001
 OpenBabel04121316033D

 87 90  0  0  1  0  0  0  0  0999 V2000
    4.2292    6.7107   -2.8551 C   0  0  0  0  0  0  0  0  0  0  0  0
    4.9628    5.5615   -2.4542 O   0  0  0  0  0  0  0  0  0  0  0  0
    4.0243    4.5517   -2.5218 C   0  0  0  0  0  0  0  0  0  0  0  0
    3.6482    3.9313   -1.2689 C   0  0  0  0  0  0  0  0  0  0  0  0
    3.0069    2.5694   -1.1127 C   0  0  0  0  0  0  0  0  0  0  0  0
    2.4618    2.1615   -2.3508 C   0  0  0  0  0  0  0  0  0  0  0  0
    2.7649    2.8801   -3.6532 C   0  0  0  0  0  0  0  0  0  0  0  0
    3.6308    4.0515   -3.7522 C   0  0  0  0  0  0  0  0  0  0  0  0
    4.2157    4.4334   -4.9501 O   0  0  0  0  0  0  0  0  0  0  0  0
    5.3225    5.3347   -5.1973 C   0  0  0  0  0  0  0  0  0  0  0  0
    2.5330    2.0229   -4.7322 O   0  0  0  0  0  0  0  0  0  0  0  0
    2.9688    2.4751   -6.0149 C   0  0  0  0  0  0  0  0  0  0  0  0
    3.1783    1.2843    0.2268 C   0  0  0  0  0  0  0  0  0  0  0  0
    4.7436    0.3239    0.8950 C   0  0  0  0  0  0  0  0  0  0  0  0
    4.8438   -0.0224    2.0897 O   0  0  0  0  0  0  0  0  0  0  0  0
    6.0392    0.0271    0.0368 N   0  0  0  0  0  0  0  0  0  0  0  0
    5.9043   -1.2640   -0.5517 C   0  0  0  0  0  0  0  0  0  0  0  0
    6.2414   -1.2359   -2.0189 C   0  0  0  0  0  0  0  0  0  0  0  0
    7.6471   -0.7062   -2.3556 C   0  0  0  0  0  0  0  0  0  0  0  0
    8.1631    0.5734   -1.6912 C   0  0  0  0  0  0  0  0  0  0  0  0
    7.6679    0.7582   -0.1429 C   0  0  1  0  0  0  0  0  0  0  0  0
    8.3295    0.1358    0.4582 H   0  0  0  0  0  0  0  0  0  0  0  0
    8.1537    2.3722    0.1881 C   0  0  0  0  0  0  0  0  0  0  0  0
    9.2770    2.8307   -0.1620 O   0  0  0  0  0  0  0  0  0  0  0  0
    7.3132    3.2134    0.8602 O   0  0  0  0  0  0  0  0  0  0  0  0
    6.1972    2.4556    1.1401 C   0  0  2  0  0  0  0  0  0  0  0  0
    6.6215    1.5560    1.5788 H   0  0  0  0  0  0  0  0  0  0  0  0
    5.4981    2.4138   -0.2223 C   0  0  0  0  0  0  0  0  0  0  0  0
    5.9447    2.2429   -1.6556 C   0  0  0  0  0  0  0  0  0  0  0  0
    5.1520    1.5781   -2.7955 C   0  0  0  0  0  0  0  0  0  0  0  0
    5.7453    1.3577   -4.1363 C   0  0  0  0  0  0  0  0  0  0  0  0
    6.7828    2.1997   -4.4949 C   0  0  0  0  0  0  0  0  0  0  0  0
    7.2945    2.1474   -5.7561 C   0  0  0  0  0  0  0  0  0  0  0  0
    6.6058    1.3928   -6.6817 C   0  0  0  0  0  0  0  0  0  0  0  0
    5.5624    0.5768   -6.3950 N   0  0  0  0  0  0  0  0  0  0  0  0
    5.1679    0.5438   -5.1067 C   0  0  0  0  0  0  0  0  0  0  0  0
    5.2602    2.7994    2.3286 C   0  0  0  0  0  0  0  0  0  0  0  0
    4.4509    4.0442    2.2223 C   0  0  0  0  0  0  0  0  0  0  0  0
    3.6380    4.1964    3.5013 C   0  0  0  0  0  0  0  0  0  0  0  0
    2.9284    5.5046    3.4140 C   0  0  0  0  0  0  0  0  0  0  0  0
    1.5616    5.5859    3.6661 C   0  0  0  0  0  0  0  0  0  0  0  0
    0.8918    6.7616    3.3542 C   0  0  0  0  0  0  0  0  0  0  0  0
    1.6020    7.8751    2.8966 C   0  0  0  0  0  0  0  0  0  0  0  0
    2.9833    7.8282    2.7612 C   0  0  0  0  0  0  0  0  0  0  0  0
    3.6372    6.6366    2.9879 C   0  0  0  0  0  0  0  0  0  0  0  0
    2.5951    1.8512    1.3454 F   0  0  0  0  0  0  0  0  0  0  0  0
    2.3309    0.2538   -0.1011 F   0  0  0  0  0  0  0  0  0  0  0  0
    4.9221    7.5276   -3.0605 H   0  0  0  0  0  0  0  0  0  0  0  0
    3.5068    6.9447   -2.0819 H   0  0  0  0  0  0  0  0  0  0  0  0
    3.6480    6.5250   -3.7664 H   0  0  0  0  0  0  0  0  0  0  0  0
    4.2152    4.4810   -0.4966 H   0  0  0  0  0  0  0  0  0  0  0  0
    2.1165    1.1269   -2.4108 H   0  0  0  0  0  0  0  0  0  0  0  0
    5.4713    5.3951   -6.2841 H   0  0  0  0  0  0  0  0  0  0  0  0
    6.2776    5.0528   -4.7363 H   0  0  0  0  0  0  0  0  0  0  0  0
    5.1151    6.3785   -4.9665 H   0  0  0  0  0  0  0  0  0  0  0  0
    2.6878    1.7346   -6.7652 H   0  0  0  0  0  0  0  0  0  0  0  0
    4.0550    2.5776   -6.1056 H   0  0  0  0  0  0  0  0  0  0  0  0
    2.4933    3.4271   -6.2423 H   0  0  0  0  0  0  0  0  0  0  0  0
    4.8595   -1.5685   -0.4233 H   0  0  0  0  0  0  0  0  0  0  0  0
    6.5493   -1.9559   -0.0134 H   0  0  0  0  0  0  0  0  0  0  0  0
    5.4629   -0.6894   -2.5288 H   0  0  0  0  0  0  0  0  0  0  0  0
    6.1020   -2.2302   -2.4438 H   0  0  0  0  0  0  0  0  0  0  0  0
    7.6965   -0.5848   -3.4467 H   0  0  0  0  0  0  0  0  0  0  0  0
    8.3579   -1.4726   -2.0681 H   0  0  0  0  0  0  0  0  0  0  0  0
    7.8765    1.4152   -2.3408 H   0  0  0  0  0  0  0  0  0  0  0  0
    9.2327    0.7624   -1.8315 H   0  0  0  0  0  0  0  0  0  0  0  0
    4.7311    3.0299    0.0986 H   0  0  0  0  0  0  0  0  0  0  0  0
    4.8990    1.5847   -0.4331 H   0  0  0  0  0  0  0  0  0  0  0  0
    6.3547    1.2933   -1.5815 H   0  0  0  0  0  0  0  0  0  0  0  0
    6.6141    3.0343   -1.9318 H   0  0  0  0  0  0  0  0  0  0  0  0
    4.6364    2.4214   -3.0362 H   0  0  0  0  0  0  0  0  0  0  0  0
    4.4216    0.7974   -2.5360 H   0  0  0  0  0  0  0  0  0  0  0  0
    7.1596    2.9410   -3.8008 H   0  0  0  0  0  0  0  0  0  0  0  0
    8.1763    2.7258   -5.9782 H   0  0  0  0  0  0  0  0  0  0  0  0
    6.8672    1.4657   -7.7280 H   0  0  0  0  0  0  0  0  0  0  0  0
    4.2792   -0.0585   -4.9094 H   0  0  0  0  0  0  0  0  0  0  0  0
    5.8418    2.7859    3.2514 H   0  0  0  0  0  0  0  0  0  0  0  0
    4.4928    2.0413    2.4970 H   0  0  0  0  0  0  0  0  0  0  0  0
    3.7124    4.0275    1.4148 H   0  0  0  0  0  0  0  0  0  0  0  0
    5.1585    4.8399    2.0023 H   0  0  0  0  0  0  0  0  0  0  0  0
    4.2790    4.1523    4.3843 H   0  0  0  0  0  0  0  0  0  0  0  0
    2.9128    3.3695    3.5782 H   0  0  0  0  0  0  0  0  0  0  0  0
    1.0169    4.7303    4.0602 H   0  0  0  0  0  0  0  0  0  0  0  0
   -0.1869    6.8085    3.4608 H   0  0  0  0  0  0  0  0  0  0  0  0
    1.0773    8.7900    2.6501 H   0  0  0  0  0  0  0  0  0  0  0  0
    3.5607    8.6960    2.4639 H   0  0  0  0  0  0  0  0  0  0  0  0
    4.7040    6.5877    2.7840 H   0  0  0  0  0  0  0  0  0  0  0  0
  1  2  1  0  0  0  0
  1 48  1  0  0  0  0
  1 49  1  0  0  0  0
  1 50  1  0  0  0  0
  2  3  1  0  0  0  0
  3  4  2  0  0  0  0
  3  8  1  0  0  0  0
  4  5  1  0  0  0  0
  4 51  1  0  0  0  0
  5  6  2  0  0  0  0
  5 13  1  0  0  0  0
  6  7  1  0  0  0  0
  6 52  1  0  0  0  0
  7  8  2  0  0  0  0
  7 11  1  0  0  0  0
  8  9  1  0  0  0  0
  9 10  1  0  0  0  0
 10 53  1  0  0  0  0
 10 54  1  0  0  0  0
 10 55  1  0  0  0  0
 11 12  1  0  0  0  0
 12 56  1  0  0  0  0
 12 57  1  0  0  0  0
 12 58  1  0  0  0  0
 13 14  1  0  0  0  0
 13 46  1  0  0  0  0
 13 47  1  0  0  0  0
 14 15  2  0  0  0  0
 14 16  1  0  0  0  0
 16 17  1  0  0  0  0
 16 21  1  0  0  0  0
 17 18  1  0  0  0  0
 17 59  1  0  0  0  0
 17 60  1  0  0  0  0
 18 19  1  0  0  0  0
 18 61  1  0  0  0  0
 18 62  1  0  0  0  0
 19 20  1  0  0  0  0
 19 63  1  0  0  0  0
 19 64  1  0  0  0  0
 20 21  1  0  0  0  0
 20 65  1  0  0  0  0
 20 66  1  0  0  0  0
 21 23  1  0  0  0  0
 21 22  1  1  0  0  0
 23 24  2  0  0  0  0
 23 25  1  0  0  0  0
 26 28  1  0  0  0  0
 26 37  1  0  0  0  0
 26 27  1  1  0  0  0
 26 25  1  0  0  0  0
 28 29  1  0  0  0  0
 28 67  1  0  0  0  0
 28 68  1  0  0  0  0
 29 30  1  0  0  0  0
 29 69  1  0  0  0  0
 29 70  1  0  0  0  0
 30 31  1  0  0  0  0
 30 71  1  0  0  0  0
 30 72  1  0  0  0  0
 31 32  2  0  0  0  0
 31 36  1  0  0  0  0
 32 33  1  0  0  0  0
 32 73  1  0  0  0  0
 33 34  2  0  0  0  0
 33 74  1  0  0  0  0
 34 35  1  0  0  0  0
 34 75  1  0  0  0  0
 35 36  2  0  0  0  0
 36 76  1  0  0  0  0
 37 38  1  0  0  0  0
 37 77  1  0  0  0  0
 37 78  1  0  0  0  0
 38 39  1  0  0  0  0
 38 79  1  0  0  0  0
 38 80  1  0  0  0  0
 39 40  1  0  0  0  0
 39 81  1  0  0  0  0
 39 82  1  0  0  0  0
 40 41  2  0  0  0  0
 40 45  1  0  0  0  0
 41 42  1  0  0  0  0
 41 83  1  0  0  0  0
 42 43  2  0  0  0  0
 42 84  1  0  0  0  0
 43 44  1  0  0  0  0
 43 85  1  0  0  0  0
 44 45  2  0  0  0  0
 44 86  1  0  0  0  0
 45 87  1  0  0  0  0
M  END
$$$$
