002
 OpenBabel04121316033D

 67 67  0  0  1  0  0  0  0  0999 V2000
    2.1674    6.1303   -3.7852 C   0  0  0  0  0  0  0  0  0  0  0  0
    0.7579    6.4495   -3.4211 C   0  0  0  0  0  0  0  0  0  0  0  0
   -0.2100    5.3708   -3.8258 C   0  0  1  0  0  0  0  0  0  0  0  0
   -0.1791    5.1717   -4.9150 H   0  0  0  0  0  0  0  0  0  0  0  0
   -0.2438    4.0037   -3.0566 C   0  0  1  0  0  0  0  0  0  0  0  0
   -0.4097    4.1361   -1.9859 H   0  0  0  0  0  0  0  0  0  0  0  0
   -1.3592    2.9160   -3.5474 C   0  0  0  0  0  0  0  0  0  0  0  0
   -1.0700    1.8624   -4.1201 O   0  0  0  0  0  0  0  0  0  0  0  0
   -2.7103    3.0584   -3.3304 N   0  0  0  0  0  0  0  0  0  0  0  0
   -3.4840    4.1970   -2.8191 C   0  0  2  0  0  0  0  0  0  0  0  0
   -2.7876    4.6633   -2.1158 H   0  0  0  0  0  0  0  0  0  0  0  0
   -4.6094    3.8873   -1.8340 C   0  0  0  0  0  0  0  0  0  0  0  0
   -5.5696    4.6369   -1.6503 O   0  0  0  0  0  0  0  0  0  0  0  0
   -4.3852    2.8223   -1.0404 O   0  0  0  0  0  0  0  0  0  0  0  0
   -3.9741    5.2116   -3.9426 C   0  0  0  0  0  0  0  0  0  0  0  0
   -4.7555    4.6386   -5.0914 C   0  0  0  0  0  0  0  0  0  0  0  0
   -6.0619    4.1841   -4.5298 C   0  0  0  0  0  0  0  0  0  0  0  0
   -4.9085    5.7423   -6.1515 C   0  0  0  0  0  0  0  0  0  0  0  0
    1.1030    3.5239   -3.2211 N   0  0  0  0  0  0  0  0  0  0  0  0
    1.5506    2.3312   -2.7417 C   0  0  0  0  0  0  0  0  0  0  0  0
    0.8987    1.7025   -1.9488 O   0  0  0  0  0  0  0  0  0  0  0  0
    2.9484    2.0048   -3.3199 C   0  0  2  0  0  0  0  0  0  0  0  0
    3.3627    2.9028   -3.8087 H   0  0  0  0  0  0  0  0  0  0  0  0
    2.9831    0.8860   -4.3888 C   0  0  0  0  0  0  0  0  0  0  0  0
    2.2063    1.0914   -5.6743 C   0  0  0  0  0  0  0  0  0  0  0  0
    1.1940    2.0279   -5.8035 C   0  0  0  0  0  0  0  0  0  0  0  0
    0.2077    2.0302   -6.7682 C   0  0  0  0  0  0  0  0  0  0  0  0
    0.3454    1.1676   -7.8125 C   0  0  0  0  0  0  0  0  0  0  0  0
    1.4734    0.3452   -7.8526 C   0  0  0  0  0  0  0  0  0  0  0  0
    2.3592    0.2495   -6.7626 C   0  0  0  0  0  0  0  0  0  0  0  0
    3.8347    1.7236   -2.1107 C   0  0  0  0  0  0  0  0  0  0  0  0
    3.3567    0.5007   -1.3547 C   0  0  0  0  0  0  0  0  0  0  0  0
    2.4978   -0.2902   -1.7364 O   0  0  0  0  0  0  0  0  0  0  0  0
    3.9780    0.2751   -0.1638 N   0  0  0  0  0  0  0  0  0  0  0  0
    3.5107   -0.8813    0.5067 O   0  0  0  0  0  0  0  0  0  0  0  0
   -1.4547    6.0687   -3.5157 C   0  0  0  0  0  0  0  0  0  0  0  0
    2.7957    6.9954   -3.6097 H   0  0  0  0  0  0  0  0  0  0  0  0
    2.2143    5.8238   -4.8365 H   0  0  0  0  0  0  0  0  0  0  0  0
    2.5486    5.3410   -3.1402 H   0  0  0  0  0  0  0  0  0  0  0  0
    0.4676    7.3762   -3.9416 H   0  0  0  0  0  0  0  0  0  0  0  0
    0.6442    6.6318   -2.3472 H   0  0  0  0  0  0  0  0  0  0  0  0
   -3.2246    2.2978   -3.7721 H   0  0  0  0  0  0  0  0  0  0  0  0
   -3.4854    2.4476   -1.1376 H   0  0  0  0  0  0  0  0  0  0  0  0
   -3.2494    5.6705   -4.6104 H   0  0  0  0  0  0  0  0  0  0  0  0
   -4.3876    6.1079   -3.4628 H   0  0  0  0  0  0  0  0  0  0  0  0
   -4.1868    3.8129   -5.5408 H   0  0  0  0  0  0  0  0  0  0  0  0
   -6.5032    5.0080   -3.9573 H   0  0  0  0  0  0  0  0  0  0  0  0
   -5.8845    3.3340   -3.8671 H   0  0  0  0  0  0  0  0  0  0  0  0
   -6.7439    3.8671   -5.3082 H   0  0  0  0  0  0  0  0  0  0  0  0
   -5.3066    6.6598   -5.7019 H   0  0  0  0  0  0  0  0  0  0  0  0
   -5.5641    5.4124   -6.9550 H   0  0  0  0  0  0  0  0  0  0  0  0
   -3.9379    6.0100   -6.5988 H   0  0  0  0  0  0  0  0  0  0  0  0
    1.6345    3.9234   -3.9766 H   0  0  0  0  0  0  0  0  0  0  0  0
    2.6050   -0.0462   -3.9613 H   0  0  0  0  0  0  0  0  0  0  0  0
    4.0365    0.6997   -4.6448 H   0  0  0  0  0  0  0  0  0  0  0  0
    1.0353    2.7916   -5.1074 H   0  0  0  0  0  0  0  0  0  0  0  0
   -0.6475    2.6884   -6.6359 H   0  0  0  0  0  0  0  0  0  0  0  0
   -0.4180    1.1610   -8.5780 H   0  0  0  0  0  0  0  0  0  0  0  0
    1.6470   -0.2514   -8.7375 H   0  0  0  0  0  0  0  0  0  0  0  0
    3.1483   -0.4964   -6.7667 H   0  0  0  0  0  0  0  0  0  0  0  0
    3.8148    2.5982   -1.4433 H   0  0  0  0  0  0  0  0  0  0  0  0
    4.8728    1.5736   -2.4247 H   0  0  0  0  0  0  0  0  0  0  0  0
    4.8105    0.7338    0.1778 H   0  0  0  0  0  0  0  0  0  0  0  0
    2.7417   -1.1377   -0.0616 H   0  0  0  0  0  0  0  0  0  0  0  0
   -1.7237    6.9486   -4.1000 H   0  0  0  0  0  0  0  0  0  0  0  0
   -1.6705    6.2112   -2.4548 H   0  0  0  0  0  0  0  0  0  0  0  0
   -1.9447    5.2258   -3.9054 H   0  0  0  0  0  0  0  0  0  0  0  0
  1  2  1  0  0  0  0
  1 37  1  0  0  0  0
  1 38  1  0  0  0  0
  1 39  1  0  0  0  0
  2  3  1  0  0  0  0
  2 40  1  0  0  0  0
  2 41  1  0  0  0  0
  3  4  1  6  0  0  0
  3  5  1  0  0  0  0
  3 36  1  0  0  0  0
  5  6  1  1  0  0  0
  5  7  1  0  0  0  0
  5 19  1  0  0  0  0
  7  8  2  0  0  0  0
  7  9  1  0  0  0  0
  9 42  1  0  0  0  0
 10 12  1  0  0  0  0
 10 15  1  0  0  0  0
 10 11  1  1  0  0  0
 10  9  1  0  0  0  0
 12 13  2  0  0  0  0
 12 14  1  0  0  0  0
 14 43  1  0  0  0  0
 15 16  1  0  0  0  0
 15 44  1  0  0  0  0
 15 45  1  0  0  0  0
 16 17  1  0  0  0  0
 16 18  1  0  0  0  0
 16 46  1  0  0  0  0
 17 47  1  0  0  0  0
 17 48  1  0  0  0  0
 17 49  1  0  0  0  0
 18 50  1  0  0  0  0
 18 51  1  0  0  0  0
 18 52  1  0  0  0  0
 19 20  1  0  0  0  0
 19 53  1  0  0  0  0
 20 21  2  0  0  0  0
 22 24  1  0  0  0  0
 22 31  1  0  0  0  0
 22 23  1  6  0  0  0
 22 20  1  0  0  0  0
 24 25  1  0  0  0  0
 24 54  1  0  0  0  0
 24 55  1  0  0  0  0
 25 26  2  0  0  0  0
 25 30  1  0  0  0  0
 26 27  1  0  0  0  0
 26 56  1  0  0  0  0
 27 28  2  0  0  0  0
 27 57  1  0  0  0  0
 28 29  1  0  0  0  0
 28 58  1  0  0  0  0
 29 30  2  0  0  0  0
 29 59  1  0  0  0  0
 30 60  1  0  0  0  0
 31 32  1  0  0  0  0
 31 61  1  0  0  0  0
 31 62  1  0  0  0  0
 32 33  2  0  0  0  0
 32 34  1  0  0  0  0
 34 35  1  0  0  0  0
 34 63  1  0  0  0  0
 35 64  1  0  0  0  0
 36 65  1  0  0  0  0
 36 66  1  0  0  0  0
 36 67  1  0  0  0  0
M  END
$$$$
