003
 OpenBabel04121316033D

 58 62  0  0  0  0  0  0  0  0999 V2000
    1.1307    0.2915   -0.3733 C   0  0  0  0  0  0  0  0  0  0  0  0
    2.6560    0.0503   -0.0618 C   0  0  0  0  0  0  0  0  0  0  0  0
    3.2319    0.0175    1.4642 C   0  0  0  0  0  0  0  0  0  0  0  0
    2.7964    1.1168    2.3327 N   0  0  0  0  0  0  0  0  0  0  0  0
    2.1632    1.0179    3.5922 C   0  0  0  0  0  0  0  0  0  0  0  0
    2.0690   -0.0567    4.3794 N   0  0  0  0  0  0  0  0  0  0  0  0
    0.9898    0.1833    5.1941 N   0  0  0  0  0  0  0  0  0  0  0  0
    0.8199    1.5988    5.3431 C   0  0  0  0  0  0  0  0  0  0  0  0
    1.5917    2.1269    4.2476 C   0  0  0  0  0  0  0  0  0  0  0  0
    1.9513    3.4641    3.7296 C   0  0  0  0  0  0  0  0  0  0  0  0
    1.6638    4.5243    4.2567 O   0  0  0  0  0  0  0  0  0  0  0  0
    2.7440    3.4693    2.5712 N   0  0  0  0  0  0  0  0  0  0  0  0
    3.1490    2.3643    1.8597 C   0  0  0  0  0  0  0  0  0  0  0  0
    3.8296    2.5052    0.8371 O   0  0  0  0  0  0  0  0  0  0  0  0
    3.2714    4.7245    2.0544 C   0  0  0  0  0  0  0  0  0  0  0  0
    0.1023    2.2928    6.4776 C   0  0  0  0  0  0  0  0  0  0  0  0
   -0.7082    1.6819    7.4431 C   0  0  0  0  0  0  0  0  0  0  0  0
   -1.2865    2.4520    8.4652 C   0  0  0  0  0  0  0  0  0  0  0  0
   -1.0437    3.7598    8.6682 N   0  0  0  0  0  0  0  0  0  0  0  0
   -0.2105    4.3288    7.7926 C   0  0  0  0  0  0  0  0  0  0  0  0
    0.3191    3.6565    6.7005 C   0  0  0  0  0  0  0  0  0  0  0  0
    0.1881   -1.0167    5.7359 C   0  0  0  0  0  0  0  0  0  0  0  0
    0.3037   -2.4517    5.0920 C   0  0  0  0  0  0  0  0  0  0  0  0
   -0.0173   -3.6336    5.7750 C   0  0  0  0  0  0  0  0  0  0  0  0
    0.0718   -4.9139    5.1499 C   0  0  0  0  0  0  0  0  0  0  0  0
    0.5215   -5.0847    3.8414 C   0  0  0  0  0  0  0  0  0  0  0  0
    0.7743   -3.9538    3.1046 C   0  0  0  0  0  0  0  0  0  0  0  0
    0.5592   -2.7022    3.7520 C   0  0  0  0  0  0  0  0  0  0  0  0
    0.4906   -1.6325    2.9456 C   0  0  0  0  0  0  0  0  0  0  0  0
    0.8117   -1.7690    1.6515 C   0  0  0  0  0  0  0  0  0  0  0  0
    1.0050   -2.9340    0.9695 C   0  0  0  0  0  0  0  0  0  0  0  0
    1.0782   -4.0650    1.7342 C   0  0  0  0  0  0  0  0  0  0  0  0
    3.1945   -1.1651   -0.8223 C   0  0  0  0  0  0  0  0  0  0  0  0
    0.7125    1.0653    0.2835 H   0  0  0  0  0  0  0  0  0  0  0  0
    0.4711   -0.5856   -0.3112 H   0  0  0  0  0  0  0  0  0  0  0  0
    0.9488    0.5475   -1.4157 H   0  0  0  0  0  0  0  0  0  0  0  0
    3.1135    0.9092   -0.5554 H   0  0  0  0  0  0  0  0  0  0  0  0
    4.3273    0.1088    1.3809 H   0  0  0  0  0  0  0  0  0  0  0  0
    3.1116   -0.9432    1.9717 H   0  0  0  0  0  0  0  0  0  0  0  0
    3.0159    5.5844    2.6707 H   0  0  0  0  0  0  0  0  0  0  0  0
    2.9006    4.8801    1.0335 H   0  0  0  0  0  0  0  0  0  0  0  0
    4.3661    4.6475    1.9947 H   0  0  0  0  0  0  0  0  0  0  0  0
   -0.9045    0.6215    7.4804 H   0  0  0  0  0  0  0  0  0  0  0  0
   -1.9738    2.0168    9.1869 H   0  0  0  0  0  0  0  0  0  0  0  0
    0.0724    5.3607    7.9856 H   0  0  0  0  0  0  0  0  0  0  0  0
    0.9566    4.2515    6.0836 H   0  0  0  0  0  0  0  0  0  0  0  0
   -0.8736   -0.7288    5.6844 H   0  0  0  0  0  0  0  0  0  0  0  0
    0.5112   -1.0883    6.7766 H   0  0  0  0  0  0  0  0  0  0  0  0
   -0.3882   -3.5966    6.7934 H   0  0  0  0  0  0  0  0  0  0  0  0
   -0.2399   -5.8074    5.6837 H   0  0  0  0  0  0  0  0  0  0  0  0
    0.5510   -6.0541    3.3552 H   0  0  0  0  0  0  0  0  0  0  0  0
    0.2368   -0.6367    3.2326 H   0  0  0  0  0  0  0  0  0  0  0  0
    0.9755   -0.7841    1.3183 H   0  0  0  0  0  0  0  0  0  0  0  0
    1.0904   -2.9291   -0.1094 H   0  0  0  0  0  0  0  0  0  0  0  0
    1.3322   -4.9961    1.2441 H   0  0  0  0  0  0  0  0  0  0  0  0
    2.9296   -2.1118   -0.3592 H   0  0  0  0  0  0  0  0  0  0  0  0
    4.2870   -1.1500   -0.8418 H   0  0  0  0  0  0  0  0  0  0  0  0
    2.8234   -1.1780   -1.8510 H   0  0  0  0  0  0  0  0  0  0  0  0
  1  2  1  0  0  0  0
  1 34  1  0  0  0  0
  1 35  1  0  0  0  0
  1 36  1  0  0  0  0
  2  3  1  0  0  0  0
  2 33  1  0  0  0  0
  2 37  1  0  0  0  0
  3  4  1  0  0  0  0
  3 38  1  0  0  0  0
  3 39  1  0  0  0  0
  4  5  1  0  0  0  0
  4 13  1  0  0  0  0
  5  6  2  0  0  0  0
  5  9  1  0  0  0  0
  6  7  1  0  0  0  0
  7  8  1  0  0  0  0
  7 22  1  0  0  0  0
  8  9  2  0  0  0  0
  8 16  1  0  0  0  0
  9 10  1  0  0  0  0
 10 11  2  0  0  0  0
 10 12  1  0  0  0  0
 12 13  1  0  0  0  0
 12 15  1  0  0  0  0
 13 14  2  0  0  0  0
 15 40  1  0  0  0  0
 15 41  1  0  0  0  0
 15 42  1  0  0  0  0
 16 17  2  0  0  0  0
 16 21  1  0  0  0  0
 17 18  1  0  0  0  0
 17 43  1  0  0  0  0
 18 19  2  0  0  0  0
 18 44  1  0  0  0  0
 19 20  1  0  0  0  0
 20 21  2  0  0  0  0
 20 45  1  0  0  0  0
 21 46  1  0  0  0  0
 22 23  1  0  0  0  0
 22 47  1  0  0  0  0
 22 48  1  0  0  0  0
 23 24  2  0  0  0  0
 23 28  1  0  0  0  0
 24 25  1  0  0  0  0
 24 49  1  0  0  0  0
 25 26  2  0  0  0  0
 25 50  1  0  0  0  0
 26 27  1  0  0  0  0
 26 51  1  0  0  0  0
 27 28  2  0  0  0  0
 27 32  1  0  0  0  0
 28 29  1  0  0  0  0
 29 30  2  0  0  0  0
 29 52  1  0  0  0  0
 30 31  1  0  0  0  0
 30 53  1  0  0  0  0
 31 32  2  0  0  0  0
 31 54  1  0  0  0  0
 32 55  1  0  0  0  0
 33 56  1  0  0  0  0
 33 57  1  0  0  0  0
 33 58  1  0  0  0  0
M  END
$$$$
