00A
 OpenBabel04121316033D

 49 52  0  0  1  0  0  0  0  0999 V2000
    3.1106    0.3059   -1.4049 O   0  0  0  0  0  0  0  0  0  0  0  0
    2.5817    0.1120   -0.0862 C   0  0  2  0  0  0  0  0  0  0  0  0
    1.5108    0.1249   -0.2671 H   0  0  0  0  0  0  0  0  0  0  0  0
    3.0731    1.2122    0.8557 C   0  0  1  0  0  0  0  0  0  0  0  0
    3.2035    2.1502    0.3084 H   0  0  0  0  0  0  0  0  0  0  0  0
    2.2291    1.4942    2.1085 C   0  0  0  0  0  0  0  0  0  0  0  0
    0.8897    1.8693    1.7866 O   0  0  0  0  0  0  0  0  0  0  0  0
   -0.0748    2.0871    3.2061 P   0  0  1  0  0  0  0  0  0  0  0  0
   -1.1627    2.8106    2.4182 O   0  0  0  0  0  0  0  0  0  0  0  0
   -0.4173    0.4622    3.3349 O   0  0  0  0  0  0  0  0  0  0  0  0
   -0.1163   -0.4937    2.4682 C   0  0  0  0  0  0  0  0  0  0  0  0
    0.3990   -0.3760    1.3545 O   0  0  0  0  0  0  0  0  0  0  0  0
   -0.3503   -1.8875    2.7825 C   0  0  0  0  0  0  0  0  0  0  0  0
    0.7154   -2.7031    3.1670 C   0  0  0  0  0  0  0  0  0  0  0  0
    0.7579   -4.0621    2.8380 C   0  0  0  0  0  0  0  0  0  0  0  0
   -0.3988   -4.6363    2.3392 C   0  0  0  0  0  0  0  0  0  0  0  0
   -1.5223   -3.8437    2.0877 C   0  0  0  0  0  0  0  0  0  0  0  0
   -1.4501   -2.4579    2.1793 C   0  0  0  0  0  0  0  0  0  0  0  0
   -0.4717   -6.3334    2.0881 Cl  0  0  0  0  0  0  0  0  0  0  0  0
   -1.0393    2.3049    4.6257 O   0  0  0  0  0  0  0  0  0  0  0  0
    4.3774    0.7498    1.2864 O   0  0  0  0  0  0  0  0  0  0  0  0
    4.3311   -0.6857    1.4295 C   0  0  2  0  0  0  0  0  0  0  0  0
    5.2587   -1.1290    1.0537 H   0  0  0  0  0  0  0  0  0  0  0  0
    3.1130   -1.1656    0.5899 C   0  0  2  0  0  0  0  0  0  0  0  0
    2.3466   -1.6050    1.2263 H   0  0  0  0  0  0  0  0  0  0  0  0
    3.4738   -2.1754   -0.3557 O   0  0  0  0  0  0  0  0  0  0  0  0
    4.3124   -1.0297    2.8525 N   0  0  0  0  0  0  0  0  0  0  0  0
    3.7446   -2.1538    3.3786 C   0  0  0  0  0  0  0  0  0  0  0  0
    3.6946   -2.1380    4.6917 N   0  0  0  0  0  0  0  0  0  0  0  0
    4.5462   -1.1201    5.0344 C   0  0  0  0  0  0  0  0  0  0  0  0
    4.9806   -0.4442    3.8987 C   0  0  0  0  0  0  0  0  0  0  0  0
    5.8920    0.5355    3.8597 N   0  0  0  0  0  0  0  0  0  0  0  0
    6.3741    0.7969    5.0919 C   0  0  0  0  0  0  0  0  0  0  0  0
    6.0162    0.2480    6.2762 N   0  0  0  0  0  0  0  0  0  0  0  0
    5.0732   -0.7189    6.2742 C   0  0  0  0  0  0  0  0  0  0  0  0
    4.6987   -1.2886    7.4720 N   0  0  0  0  0  0  0  0  0  0  0  0
    4.0592    0.1199   -1.3842 H   0  0  0  0  0  0  0  0  0  0  0  0
    2.6917    2.2840    2.7134 H   0  0  0  0  0  0  0  0  0  0  0  0
    2.2134    0.6236    2.7729 H   0  0  0  0  0  0  0  0  0  0  0  0
    1.5143   -2.2410    3.7156 H   0  0  0  0  0  0  0  0  0  0  0  0
    1.6501   -4.6664    3.0078 H   0  0  0  0  0  0  0  0  0  0  0  0
   -2.4638   -4.2934    1.8046 H   0  0  0  0  0  0  0  0  0  0  0  0
   -2.2158   -1.8111    1.7622 H   0  0  0  0  0  0  0  0  0  0  0  0
   -1.3818    3.2190    4.5893 H   0  0  0  0  0  0  0  0  0  0  0  0
    3.6806   -2.9975    0.1206 H   0  0  0  0  0  0  0  0  0  0  0  0
    3.3102   -2.9198    2.7566 H   0  0  0  0  0  0  0  0  0  0  0  0
    7.1538    1.5507    5.1375 H   0  0  0  0  0  0  0  0  0  0  0  0
    5.1808   -1.0059    8.3109 H   0  0  0  0  0  0  0  0  0  0  0  0
    4.0261   -2.0424    7.4770 H   0  0  0  0  0  0  0  0  0  0  0  0
  1 37  1  0  0  0  0
  2  4  1  0  0  0  0
  2 24  1  0  0  0  0
  2  3  1  6  0  0  0
  2  1  1  0  0  0  0
  4  5  1  6  0  0  0
  4  6  1  0  0  0  0
  4 21  1  0  0  0  0
  6  7  1  0  0  0  0
  6 38  1  0  0  0  0
  6 39  1  0  0  0  0
  8  7  1  6  0  0  0
  8  9  2  0  0  0  0
  8 10  1  0  0  0  0
  8 20  1  0  0  0  0
 10 11  1  0  0  0  0
 11 12  2  0  0  0  0
 11 13  1  0  0  0  0
 13 14  2  0  0  0  0
 13 18  1  0  0  0  0
 14 15  1  0  0  0  0
 14 40  1  0  0  0  0
 15 16  2  0  0  0  0
 15 41  1  0  0  0  0
 16 17  1  0  0  0  0
 16 19  1  0  0  0  0
 17 18  2  0  0  0  0
 17 42  1  0  0  0  0
 18 43  1  0  0  0  0
 20 44  1  0  0  0  0
 21 22  1  0  0  0  0
 22 24  1  0  0  0  0
 22 27  1  0  0  0  0
 22 23  1  6  0  0  0
 24 25  1  1  0  0  0
 24 26  1  0  0  0  0
 26 45  1  0  0  0  0
 27 28  1  0  0  0  0
 27 31  1  0  0  0  0
 28 29  2  0  0  0  0
 28 46  1  0  0  0  0
 29 30  1  0  0  0  0
 30 31  2  0  0  0  0
 30 35  1  0  0  0  0
 31 32  1  0  0  0  0
 32 33  2  0  0  0  0
 33 34  1  0  0  0  0
 33 47  1  0  0  0  0
 34 35  2  0  0  0  0
 35 36  1  0  0  0  0
 36 48  1  0  0  0  0
 36 49  1  0  0  0  0
M  END
$$$$
