00J
 OpenBabel04121316033D

 61 65  0  0  0  0  0  0  0  0999 V2000
    0.9707    0.0514   -0.0700 C   0  0  0  0  0  0  0  0  0  0  0  0
    2.4066    0.0638   -0.1142 N   0  0  0  0  0  0  0  0  0  0  0  0
    3.0529   -0.1205   -1.3163 C   0  0  0  0  0  0  0  0  0  0  0  0
    2.4805   -0.3540   -2.3649 O   0  0  0  0  0  0  0  0  0  0  0  0
    4.4929   -0.0742   -1.2077 C   0  0  0  0  0  0  0  0  0  0  0  0
    5.2928    1.0387   -1.1925 C   0  0  0  0  0  0  0  0  0  0  0  0
    4.9118    2.4551   -1.2647 C   0  0  0  0  0  0  0  0  0  0  0  0
    6.6261    0.6976   -1.1701 O   0  0  0  0  0  0  0  0  0  0  0  0
    6.6795   -0.6726   -1.2682 C   0  0  0  0  0  0  0  0  0  0  0  0
    5.3786   -1.1424   -1.3643 C   0  0  0  0  0  0  0  0  0  0  0  0
    5.1578   -2.4590   -1.6855 C   0  0  0  0  0  0  0  0  0  0  0  0
    6.2674   -3.2014   -2.0650 C   0  0  0  0  0  0  0  0  0  0  0  0
    7.5176   -2.8844   -1.5548 C   0  0  0  0  0  0  0  0  0  0  0  0
    7.7941   -1.5327   -1.2749 C   0  0  0  0  0  0  0  0  0  0  0  0
    8.4752   -3.8567   -1.2806 O   0  0  0  0  0  0  0  0  0  0  0  0
    8.1673   -5.2236   -1.1322 C   0  0  0  0  0  0  0  0  0  0  0  0
    9.2247   -6.0738   -1.4322 C   0  0  0  0  0  0  0  0  0  0  0  0
    8.9807   -7.4388   -1.4561 C   0  0  0  0  0  0  0  0  0  0  0  0
    7.7655   -8.0104   -1.2673 N   0  0  0  0  0  0  0  0  0  0  0  0
    6.7272   -7.2091   -0.9772 C   0  0  0  0  0  0  0  0  0  0  0  0
    6.9226   -5.8284   -0.7779 C   0  0  0  0  0  0  0  0  0  0  0  0
    5.8249   -5.1335   -0.2970 C   0  0  0  0  0  0  0  0  0  0  0  0
    4.5974   -5.5137   -0.7818 C   0  0  0  0  0  0  0  0  0  0  0  0
    4.3283   -6.8429   -0.9003 C   0  0  0  0  0  0  0  0  0  0  0  0
    5.4151   -7.7123   -0.8909 C   0  0  0  0  0  0  0  0  0  0  0  0
    3.0444   -7.2945   -0.9636 O   0  0  0  0  0  0  0  0  0  0  0  0
    2.0242   -6.2575   -0.9189 C   0  0  0  0  0  0  0  0  0  0  0  0
    0.7000   -6.9480   -0.6700 C   0  0  0  0  0  0  0  0  0  0  0  0
   -0.5496   -6.1902   -0.5602 N   0  0  0  0  0  0  0  0  0  0  0  0
   -1.0003   -6.1095    0.8354 C   0  0  0  0  0  0  0  0  0  0  0  0
   -0.3910   -4.9201    1.5821 C   0  0  0  0  0  0  0  0  0  0  0  0
   -0.7444   -3.6856    0.9511 O   0  0  0  0  0  0  0  0  0  0  0  0
   -0.2506   -3.6543   -0.3946 C   0  0  0  0  0  0  0  0  0  0  0  0
   -0.7080   -4.8788   -1.2155 C   0  0  0  0  0  0  0  0  0  0  0  0
    0.6388    0.1994    0.9587 H   0  0  0  0  0  0  0  0  0  0  0  0
    0.6105   -0.9059   -0.4492 H   0  0  0  0  0  0  0  0  0  0  0  0
    0.5924    0.8503   -0.7131 H   0  0  0  0  0  0  0  0  0  0  0  0
    2.9421    0.1729    0.7364 H   0  0  0  0  0  0  0  0  0  0  0  0
    3.8173    2.5344   -1.2875 H   0  0  0  0  0  0  0  0  0  0  0  0
    5.2887    2.9168   -2.1801 H   0  0  0  0  0  0  0  0  0  0  0  0
    5.2704    2.9837   -0.3834 H   0  0  0  0  0  0  0  0  0  0  0  0
    4.1431   -2.8336   -1.7008 H   0  0  0  0  0  0  0  0  0  0  0  0
    6.0911   -4.1599   -2.5355 H   0  0  0  0  0  0  0  0  0  0  0  0
    8.8018   -1.1722   -1.1097 H   0  0  0  0  0  0  0  0  0  0  0  0
   10.2152   -5.6898   -1.6488 H   0  0  0  0  0  0  0  0  0  0  0  0
    9.7844   -8.1431   -1.6555 H   0  0  0  0  0  0  0  0  0  0  0  0
    5.9290   -4.1477    0.1352 H   0  0  0  0  0  0  0  0  0  0  0  0
    3.8630   -4.7673   -1.0498 H   0  0  0  0  0  0  0  0  0  0  0  0
    5.2477   -8.7832   -0.8965 H   0  0  0  0  0  0  0  0  0  0  0  0
    2.0111   -5.7326   -1.8809 H   0  0  0  0  0  0  0  0  0  0  0  0
    2.2020   -5.5478   -0.0967 H   0  0  0  0  0  0  0  0  0  0  0  0
    0.8562   -7.5458    0.2394 H   0  0  0  0  0  0  0  0  0  0  0  0
    0.5739   -7.7082   -1.4474 H   0  0  0  0  0  0  0  0  0  0  0  0
   -0.7786   -7.0378    1.3737 H   0  0  0  0  0  0  0  0  0  0  0  0
   -2.0922   -6.0234    0.8207 H   0  0  0  0  0  0  0  0  0  0  0  0
    0.7014   -4.9905    1.6396 H   0  0  0  0  0  0  0  0  0  0  0  0
   -0.7761   -4.9038    2.6048 H   0  0  0  0  0  0  0  0  0  0  0  0
    0.8401   -3.5655   -0.3700 H   0  0  0  0  0  0  0  0  0  0  0  0
   -0.6452   -2.7397   -0.8519 H   0  0  0  0  0  0  0  0  0  0  0  0
   -0.2789   -4.8458   -2.2237 H   0  0  0  0  0  0  0  0  0  0  0  0
   -1.7909   -4.7503   -1.3618 H   0  0  0  0  0  0  0  0  0  0  0  0
  1  2  1  0  0  0  0
  1 35  1  0  0  0  0
  1 36  1  0  0  0  0
  1 37  1  0  0  0  0
  2  3  1  0  0  0  0
  2 38  1  0  0  0  0
  3  4  2  0  0  0  0
  3  5  1  0  0  0  0
  5  6  2  0  0  0  0
  5 10  1  0  0  0  0
  6  7  1  0  0  0  0
  6  8  1  0  0  0  0
  7 39  1  0  0  0  0
  7 40  1  0  0  0  0
  7 41  1  0  0  0  0
  8  9  1  0  0  0  0
  9 10  2  0  0  0  0
  9 14  1  0  0  0  0
 10 11  1  0  0  0  0
 11 12  2  0  0  0  0
 11 42  1  0  0  0  0
 12 13  1  0  0  0  0
 12 43  1  0  0  0  0
 13 14  2  0  0  0  0
 13 15  1  0  0  0  0
 14 44  1  0  0  0  0
 15 16  1  0  0  0  0
 16 17  2  0  0  0  0
 16 21  1  0  0  0  0
 17 18  1  0  0  0  0
 17 45  1  0  0  0  0
 18 19  2  0  0  0  0
 18 46  1  0  0  0  0
 19 20  1  0  0  0  0
 20 21  2  0  0  0  0
 20 25  1  0  0  0  0
 21 22  1  0  0  0  0
 22 23  2  0  0  0  0
 22 47  1  0  0  0  0
 23 24  1  0  0  0  0
 23 48  1  0  0  0  0
 24 25  2  0  0  0  0
 24 26  1  0  0  0  0
 25 49  1  0  0  0  0
 26 27  1  0  0  0  0
 27 28  1  0  0  0  0
 27 50  1  0  0  0  0
 27 51  1  0  0  0  0
 28 29  1  0  0  0  0
 28 52  1  0  0  0  0
 28 53  1  0  0  0  0
 29 30  1  0  0  0  0
 29 34  1  0  0  0  0
 30 31  1  0  0  0  0
 30 54  1  0  0  0  0
 30 55  1  0  0  0  0
 31 32  1  0  0  0  0
 31 56  1  0  0  0  0
 31 57  1  0  0  0  0
 32 33  1  0  0  0  0
 33 34  1  0  0  0  0
 33 58  1  0  0  0  0
 33 59  1  0  0  0  0
 34 60  1  0  0  0  0
 34 61  1  0  0  0  0
M  END
$$$$
