018
 OpenBabel04121316033D

 29 30  0  0  0  0  0  0  0  0999 V2000
    0.9298    0.1811   -0.0481 O   0  5  0  0  0  0  0  0  0  0  0  0
    2.1123    0.1353    0.3037 N   0  3  0  0  0  0  0  0  0  0  0  0
    2.6011   -0.7528    1.0231 O   0  0  0  0  0  0  0  0  0  0  0  0
    2.9662    1.2509   -0.0940 C   0  0  0  0  0  0  0  0  0  0  0  0
    2.4799    2.4886    0.3292 C   0  0  0  0  0  0  0  0  0  0  0  0
    3.0289    3.6642   -0.1791 C   0  0  0  0  0  0  0  0  0  0  0  0
    4.1753    3.5978   -0.9727 C   0  0  0  0  0  0  0  0  0  0  0  0
    4.7383    2.3618   -1.2801 C   0  0  0  0  0  0  0  0  0  0  0  0
    4.1071    1.1532   -0.9191 C   0  0  0  0  0  0  0  0  0  0  0  0
    4.6068    0.0317   -1.5550 N   0  0  0  0  0  0  0  0  0  0  0  0
    4.1117   -1.2918   -1.2871 C   0  0  0  0  0  0  0  0  0  0  0  0
    4.7361   -2.4285   -1.9888 C   0  0  0  0  0  0  0  0  0  0  0  0
    5.7741   -2.3654   -2.8920 C   0  0  0  0  0  0  0  0  0  0  0  0
    6.2317   -3.9119   -3.4415 S   0  0  0  0  0  0  0  0  0  0  0  0
    5.0438   -4.6718   -2.4740 C   0  0  0  0  0  0  0  0  0  0  0  0
    4.3156   -3.7704   -1.7410 C   0  0  0  0  0  0  0  0  0  0  0  0
    2.3505    4.9770    0.0766 C   0  0  0  0  0  0  0  0  0  0  0  0
    3.1711    5.8697    0.6851 F   0  0  0  0  0  0  0  0  0  0  0  0
    1.9237    5.5614   -1.0745 F   0  0  0  0  0  0  0  0  0  0  0  0
    1.2516    4.8602    0.8703 F   0  0  0  0  0  0  0  0  0  0  0  0
    1.6236    2.5260    1.0015 H   0  0  0  0  0  0  0  0  0  0  0  0
    4.6183    4.5055   -1.3810 H   0  0  0  0  0  0  0  0  0  0  0  0
    5.6587    2.3486   -1.8657 H   0  0  0  0  0  0  0  0  0  0  0  0
    5.5224    0.0955   -1.9827 H   0  0  0  0  0  0  0  0  0  0  0  0
    3.0456   -1.3165   -1.5455 H   0  0  0  0  0  0  0  0  0  0  0  0
    4.2681   -1.5127   -0.2288 H   0  0  0  0  0  0  0  0  0  0  0  0
    6.2868   -1.4797   -3.2423 H   0  0  0  0  0  0  0  0  0  0  0  0
    4.9370   -5.7446   -2.4801 H   0  0  0  0  0  0  0  0  0  0  0  0
    3.5230   -4.0403   -1.0481 H   0  0  0  0  0  0  0  0  0  0  0  0
  1  2  1  0  0  0  0
  2  3  2  0  0  0  0
  2  4  1  0  0  0  0
  4  5  2  0  0  0  0
  4  9  1  0  0  0  0
  5  6  1  0  0  0  0
  5 21  1  0  0  0  0
  6  7  2  0  0  0  0
  6 17  1  0  0  0  0
  7  8  1  0  0  0  0
  7 22  1  0  0  0  0
  8  9  2  0  0  0  0
  8 23  1  0  0  0  0
  9 10  1  0  0  0  0
 10 11  1  0  0  0  0
 10 24  1  0  0  0  0
 11 12  1  0  0  0  0
 11 25  1  0  0  0  0
 11 26  1  0  0  0  0
 12 13  2  0  0  0  0
 12 16  1  0  0  0  0
 13 14  1  0  0  0  0
 13 27  1  0  0  0  0
 14 15  1  0  0  0  0
 15 16  2  0  0  0  0
 15 28  1  0  0  0  0
 16 29  1  0  0  0  0
 17 18  1  0  0  0  0
 17 19  1  0  0  0  0
 17 20  1  0  0  0  0
M  CHG  2   1  -1   2   1
M  END
$$$$
