01I
 OpenBabel04121316033D

 30 33  0  0  0  0  0  0  0  0999 V2000
    1.0696    0.0667    0.2126 O   0  0  0  0  0  0  0  0  0  0  0  0
    2.4344    0.1918    0.1426 C   0  0  0  0  0  0  0  0  0  0  0  0
    2.9331    1.1637   -0.4023 O   0  0  0  0  0  0  0  0  0  0  0  0
    3.0439   -0.9863    0.7424 C   0  0  0  0  0  0  0  0  0  0  0  0
    2.4393   -2.2134    0.7513 C   0  0  0  0  0  0  0  0  0  0  0  0
    3.2798   -3.0858    1.4316 C   0  0  0  0  0  0  0  0  0  0  0  0
    4.4436   -2.4638    1.8219 C   0  0  0  0  0  0  0  0  0  0  0  0
    4.2829   -1.0931    1.4322 O   0  0  0  0  0  0  0  0  0  0  0  0
    5.5231   -3.2771    2.4356 C   0  0  0  0  0  0  0  0  0  0  0  0
    5.5088   -4.8834    2.3974 C   0  0  0  0  0  0  0  0  0  0  0  0
    4.1730   -5.2275    2.1138 C   0  0  0  0  0  0  0  0  0  0  0  0
    3.1155   -4.4188    1.7046 C   0  0  0  0  0  0  0  0  0  0  0  0
    3.7552   -6.4965    2.2224 C   0  0  0  0  0  0  0  0  0  0  0  0
    4.4820   -7.3649    3.0379 C   0  0  0  0  0  0  0  0  0  0  0  0
    5.7652   -6.9231    3.6671 C   0  0  0  0  0  0  0  0  0  0  0  0
    6.4680   -6.2686    2.6537 C   0  0  0  0  0  0  0  0  0  0  0  0
    6.7347   -8.0267    2.2945 C   0  0  0  0  0  0  0  0  0  0  0  0
    7.5752   -8.4953    3.3265 C   0  0  0  0  0  0  0  0  0  0  0  0
    7.1674   -7.4784    4.2096 O   0  0  0  0  0  0  0  0  0  0  0  0
    8.3556   -9.6355    3.8696 C   0  0  0  0  0  0  0  0  0  0  0  0
    9.4595   -9.4629    4.4598 O   0  0  0  0  0  0  0  0  0  0  0  0
    7.9296  -10.9268    3.7575 O   0  0  0  0  0  0  0  0  0  0  0  0
    0.6659    0.9227   -0.0332 H   0  0  0  0  0  0  0  0  0  0  0  0
    1.4982   -2.4652    0.2797 H   0  0  0  0  0  0  0  0  0  0  0  0
    6.3401   -2.7077    2.8984 H   0  0  0  0  0  0  0  0  0  0  0  0
    2.1291   -4.8156    1.4867 H   0  0  0  0  0  0  0  0  0  0  0  0
    2.8781   -6.8321    1.6606 H   0  0  0  0  0  0  0  0  0  0  0  0
    4.2849   -8.3381    2.5410 H   0  0  0  0  0  0  0  0  0  0  0  0
    5.9523   -8.8420    2.3613 H   0  0  0  0  0  0  0  0  0  0  0  0
    7.0562  -11.1480    3.3938 H   0  0  0  0  0  0  0  0  0  0  0  0
  1  2  1  0  0  0  0
  1 23  1  0  0  0  0
  2  3  2  0  0  0  0
  2  4  1  0  0  0  0
  4  5  2  0  0  0  0
  4  8  1  0  0  0  0
  5  6  1  0  0  0  0
  5 24  1  0  0  0  0
  6  7  2  0  0  0  0
  6 12  1  0  0  0  0
  7  8  1  0  0  0  0
  7  9  1  0  0  0  0
  9 10  2  0  0  0  0
  9 25  1  0  0  0  0
 10 11  1  0  0  0  0
 10 16  1  0  0  0  0
 11 12  2  0  0  0  0
 11 13  1  0  0  0  0
 12 26  1  0  0  0  0
 13 14  2  0  0  0  0
 13 27  1  0  0  0  0
 14 15  1  0  0  0  0
 14 28  1  0  0  0  0
 15 16  2  0  0  0  0
 15 19  1  0  0  0  0
 16 17  1  0  0  0  0
 17 18  2  0  0  0  0
 17 29  1  0  0  0  0
 18 19  1  0  0  0  0
 18 20  1  0  0  0  0
 20 21  2  0  0  0  0
 20 22  1  0  0  0  0
 22 30  1  0  0  0  0
M  END
$$$$
