024
 OpenBabel04121316033D

 47 49  0  0  0  0  0  0  0  0999 V2000
    1.1125    0.1069    0.0112 O   0  0  0  0  0  0  0  0  0  0  0  0
    2.4646    0.2289    0.0353 C   0  0  0  0  0  0  0  0  0  0  0  0
    3.0301    1.0609   -0.6590 O   0  0  0  0  0  0  0  0  0  0  0  0
    3.1832   -0.7991    0.9242 C   0  0  0  0  0  0  0  0  0  0  0  0
    4.6100   -0.7796    0.6826 O   0  0  0  0  0  0  0  0  0  0  0  0
    5.3536   -1.8179    1.1922 C   0  0  0  0  0  0  0  0  0  0  0  0
    6.6554   -1.6947    1.9057 C   0  0  0  0  0  0  0  0  0  0  0  0
    7.4424    0.0103    2.2256 Br  0  0  0  0  0  0  0  0  0  0  0  0
    7.2099   -2.9146    2.3120 C   0  0  0  0  0  0  0  0  0  0  0  0
    6.2205   -4.1498    1.6546 S   0  0  0  0  0  0  0  0  0  0  0  0
    5.0673   -3.1482    0.9635 C   0  0  0  0  0  0  0  0  0  0  0  0
    4.0569   -3.9267    0.2726 C   0  0  0  0  0  0  0  0  0  0  0  0
    3.8060   -5.0990    0.4745 O   0  0  0  0  0  0  0  0  0  0  0  0
    3.3951   -3.2331   -0.6855 O   0  0  0  0  0  0  0  0  0  0  0  0
    8.4063   -3.4469    3.0689 C   0  0  0  0  0  0  0  0  0  0  0  0
    9.4819   -2.7046    3.5258 C   0  0  0  0  0  0  0  0  0  0  0  0
   10.5595   -3.3416    4.1780 C   0  0  0  0  0  0  0  0  0  0  0  0
   10.6624   -4.7424    4.2447 C   0  0  0  0  0  0  0  0  0  0  0  0
    9.6286   -5.5384    3.7837 C   0  0  0  0  0  0  0  0  0  0  0  0
    8.5030   -4.8465    3.3221 C   0  0  0  0  0  0  0  0  0  0  0  0
    9.7350   -6.9230    3.7286 N   0  0  0  0  0  0  0  0  0  0  0  0
    8.6134   -7.7992    3.3691 C   0  0  0  0  0  0  0  0  0  0  0  0
    8.7580   -8.4230    1.9786 C   0  0  0  0  0  0  0  0  0  0  0  0
    9.6960   -9.6199    1.9462 C   0  0  0  0  0  0  0  0  0  0  0  0
    9.2934  -10.6502    2.9946 C   0  0  0  0  0  0  0  0  0  0  0  0
    9.3014  -10.0287    4.3870 C   0  0  0  0  0  0  0  0  0  0  0  0
    8.3582   -8.8364    4.4591 C   0  0  0  0  0  0  0  0  0  0  0  0
    0.7093   -0.6194    0.5238 H   0  0  0  0  0  0  0  0  0  0  0  0
    2.7026   -1.7413    0.6702 H   0  0  0  0  0  0  0  0  0  0  0  0
    2.9761   -0.6186    1.9797 H   0  0  0  0  0  0  0  0  0  0  0  0
    3.8143   -2.3772   -0.8879 H   0  0  0  0  0  0  0  0  0  0  0  0
    9.5243   -1.6321    3.3946 H   0  0  0  0  0  0  0  0  0  0  0  0
   11.3466   -2.7357    4.6196 H   0  0  0  0  0  0  0  0  0  0  0  0
   11.5558   -5.1952    4.6667 H   0  0  0  0  0  0  0  0  0  0  0  0
    7.6291   -5.4455    3.1275 H   0  0  0  0  0  0  0  0  0  0  0  0
   10.5652   -7.3523    4.1249 H   0  0  0  0  0  0  0  0  0  0  0  0
    7.6847   -7.2388    3.3273 H   0  0  0  0  0  0  0  0  0  0  0  0
    9.0625   -7.6815    1.2315 H   0  0  0  0  0  0  0  0  0  0  0  0
    7.7607   -8.7747    1.6761 H   0  0  0  0  0  0  0  0  0  0  0  0
   10.7237   -9.2869    2.1276 H   0  0  0  0  0  0  0  0  0  0  0  0
    9.6683  -10.0782    0.9511 H   0  0  0  0  0  0  0  0  0  0  0  0
    9.9810  -11.5007    2.9584 H   0  0  0  0  0  0  0  0  0  0  0  0
    8.2899  -11.0351    2.7681 H   0  0  0  0  0  0  0  0  0  0  0  0
   10.3188   -9.7106    4.6405 H   0  0  0  0  0  0  0  0  0  0  0  0
    8.9990  -10.7754    5.1288 H   0  0  0  0  0  0  0  0  0  0  0  0
    8.4035   -8.3704    5.4500 H   0  0  0  0  0  0  0  0  0  0  0  0
    7.3293   -9.1991    4.3297 H   0  0  0  0  0  0  0  0  0  0  0  0
  1  2  1  0  0  0  0
  1 28  1  0  0  0  0
  2  3  2  0  0  0  0
  2  4  1  0  0  0  0
  4  5  1  0  0  0  0
  4 29  1  0  0  0  0
  4 30  1  0  0  0  0
  5  6  1  0  0  0  0
  6  7  1  0  0  0  0
  6 11  2  0  0  0  0
  7  8  1  0  0  0  0
  7  9  2  0  0  0  0
  9 10  1  0  0  0  0
  9 15  1  0  0  0  0
 10 11  1  0  0  0  0
 11 12  1  0  0  0  0
 12 13  2  0  0  0  0
 12 14  1  0  0  0  0
 14 31  1  0  0  0  0
 15 16  2  0  0  0  0
 15 20  1  0  0  0  0
 16 17  1  0  0  0  0
 16 32  1  0  0  0  0
 17 18  2  0  0  0  0
 17 33  1  0  0  0  0
 18 19  1  0  0  0  0
 18 34  1  0  0  0  0
 19 20  2  0  0  0  0
 19 21  1  0  0  0  0
 20 35  1  0  0  0  0
 21 22  1  0  0  0  0
 21 36  1  0  0  0  0
 22 23  1  0  0  0  0
 22 27  1  0  0  0  0
 22 37  1  0  0  0  0
 23 24  1  0  0  0  0
 23 38  1  0  0  0  0
 23 39  1  0  0  0  0
 24 25  1  0  0  0  0
 24 40  1  0  0  0  0
 24 41  1  0  0  0  0
 25 26  1  0  0  0  0
 25 42  1  0  0  0  0
 25 43  1  0  0  0  0
 26 27  1  0  0  0  0
 26 44  1  0  0  0  0
 26 45  1  0  0  0  0
 27 46  1  0  0  0  0
 27 47  1  0  0  0  0
M  END
$$$$
