027
 OpenBabel04121316033D

 55 58  0  0  0  0  0  0  0  0999 V2000
    0.9563   -0.0311    0.0329 C   0  0  0  0  0  0  0  0  0  0  0  0
    2.4230   -0.0323   -0.0123 N   0  0  0  0  0  0  0  0  0  0  0  0
    2.9060   -1.3753   -0.4034 C   0  0  0  0  0  0  0  0  0  0  0  0
    2.4518   -1.7946   -1.8113 C   0  0  0  0  0  0  0  0  0  0  0  0
    2.8520   -0.7814   -2.8078 N   0  0  0  0  0  0  0  0  0  0  0  0
    2.4811    0.5983   -2.4722 C   0  0  0  0  0  0  0  0  0  0  0  0
    2.9032    0.9377   -1.0274 C   0  0  0  0  0  0  0  0  0  0  0  0
    3.7445   -1.0899   -3.8021 C   0  0  0  0  0  0  0  0  0  0  0  0
    4.4001   -0.1174   -4.5674 C   0  0  0  0  0  0  0  0  0  0  0  0
    5.4149   -0.4434   -5.4530 C   0  0  0  0  0  0  0  0  0  0  0  0
    5.5751   -1.7707   -5.8045 C   0  0  0  0  0  0  0  0  0  0  0  0
    4.8619   -2.7524   -5.1415 C   0  0  0  0  0  0  0  0  0  0  0  0
    4.0209   -2.4168   -4.1055 C   0  0  0  0  0  0  0  0  0  0  0  0
    4.9114   -4.1534   -5.5399 C   0  0  0  0  0  0  0  0  0  0  0  0
    4.2872   -5.0078   -4.8968 O   0  0  0  0  0  0  0  0  0  0  0  0
    5.6433   -4.4059   -6.6679 N   0  0  0  0  0  0  0  0  0  0  0  0
    6.3420   -3.4370   -7.3077 N   0  0  0  0  0  0  0  0  0  0  0  0
    6.3826   -2.1855   -6.9534 C   0  0  0  0  0  0  0  0  0  0  0  0
    7.1286   -1.2293   -7.6459 N   0  0  0  0  0  0  0  0  0  0  0  0
    7.8711   -1.5387   -8.7319 C   0  0  0  0  0  0  0  0  0  0  0  0
    8.5267   -0.6820   -9.5262 N   0  0  0  0  0  0  0  0  0  0  0  0
    9.0897   -1.4757  -10.4806 N   0  0  0  0  0  0  0  0  0  0  0  0
    9.6464   -1.0416  -11.2066 H   0  0  0  0  0  0  0  0  0  0  0  0
    8.8152   -2.7970  -10.3149 C   0  0  0  0  0  0  0  0  0  0  0  0
    8.0773   -2.8374   -9.1818 C   0  0  0  0  0  0  0  0  0  0  0  0
    9.1953   -3.9663  -11.1174 C   0  0  0  0  0  0  0  0  0  0  0  0
    5.7119   -5.7705   -7.2046 C   0  0  0  0  0  0  0  0  0  0  0  0
    4.3284   -6.2532   -7.6407 C   0  0  0  0  0  0  0  0  0  0  0  0
    6.6641   -5.9126   -8.3907 C   0  0  0  0  0  0  0  0  0  0  0  0
    0.5977   -0.7713    0.7538 H   0  0  0  0  0  0  0  0  0  0  0  0
    0.4798   -0.2647   -0.9252 H   0  0  0  0  0  0  0  0  0  0  0  0
    0.5884    0.9505    0.3390 H   0  0  0  0  0  0  0  0  0  0  0  0
    2.5681   -2.1276    0.3189 H   0  0  0  0  0  0  0  0  0  0  0  0
    4.0055   -1.3940   -0.3582 H   0  0  0  0  0  0  0  0  0  0  0  0
    1.3669   -1.9144   -1.8739 H   0  0  0  0  0  0  0  0  0  0  0  0
    2.8496   -2.7988   -1.9590 H   0  0  0  0  0  0  0  0  0  0  0  0
    1.3978    0.6859   -2.5951 H   0  0  0  0  0  0  0  0  0  0  0  0
    2.8924    1.3613   -3.1349 H   0  0  0  0  0  0  0  0  0  0  0  0
    2.5488    1.9431   -0.7752 H   0  0  0  0  0  0  0  0  0  0  0  0
    4.0012    0.9861   -0.9777 H   0  0  0  0  0  0  0  0  0  0  0  0
    4.1459    0.9333   -4.5135 H   0  0  0  0  0  0  0  0  0  0  0  0
    6.0059    0.3595   -5.8725 H   0  0  0  0  0  0  0  0  0  0  0  0
    3.5414   -3.2467   -3.6022 H   0  0  0  0  0  0  0  0  0  0  0  0
    7.0780   -0.2521   -7.4065 H   0  0  0  0  0  0  0  0  0  0  0  0
    7.7333   -3.7560   -8.7824 H   0  0  0  0  0  0  0  0  0  0  0  0
    9.8175   -3.7121  -11.9696 H   0  0  0  0  0  0  0  0  0  0  0  0
    8.2857   -4.4767  -11.4630 H   0  0  0  0  0  0  0  0  0  0  0  0
    9.7224   -4.6846  -10.4749 H   0  0  0  0  0  0  0  0  0  0  0  0
    6.0789   -6.4062   -6.3895 H   0  0  0  0  0  0  0  0  0  0  0  0
    3.9217   -5.6021   -8.4220 H   0  0  0  0  0  0  0  0  0  0  0  0
    3.6124   -6.2545   -6.8154 H   0  0  0  0  0  0  0  0  0  0  0  0
    4.3824   -7.2756   -8.0247 H   0  0  0  0  0  0  0  0  0  0  0  0
    6.3302   -5.2818   -9.2252 H   0  0  0  0  0  0  0  0  0  0  0  0
    6.7145   -6.9381   -8.7598 H   0  0  0  0  0  0  0  0  0  0  0  0
    7.6804   -5.6274   -8.0996 H   0  0  0  0  0  0  0  0  0  0  0  0
  1  2  1  0  0  0  0
  1 30  1  0  0  0  0
  1 31  1  0  0  0  0
  1 32  1  0  0  0  0
  2  3  1  0  0  0  0
  2  7  1  0  0  0  0
  3  4  1  0  0  0  0
  3 33  1  0  0  0  0
  3 34  1  0  0  0  0
  4  5  1  0  0  0  0
  4 35  1  0  0  0  0
  4 36  1  0  0  0  0
  5  6  1  0  0  0  0
  5  8  1  0  0  0  0
  6  7  1  0  0  0  0
  6 37  1  0  0  0  0
  6 38  1  0  0  0  0
  7 39  1  0  0  0  0
  7 40  1  0  0  0  0
  8  9  2  0  0  0  0
  8 13  1  0  0  0  0
  9 10  1  0  0  0  0
  9 41  1  0  0  0  0
 10 11  2  0  0  0  0
 10 42  1  0  0  0  0
 11 12  1  0  0  0  0
 11 18  1  0  0  0  0
 12 13  2  0  0  0  0
 12 14  1  0  0  0  0
 13 43  1  0  0  0  0
 14 15  2  0  0  0  0
 14 16  1  0  0  0  0
 16 17  1  0  0  0  0
 16 27  1  0  0  0  0
 17 18  2  0  0  0  0
 18 19  1  0  0  0  0
 19 20  1  0  0  0  0
 19 44  1  0  0  0  0
 20 21  2  0  0  0  0
 20 25  1  0  0  0  0
 21 22  1  0  0  0  0
 22 23  1  0  0  0  0
 22 24  1  0  0  0  0
 24 25  2  0  0  0  0
 24 26  1  0  0  0  0
 25 45  1  0  0  0  0
 26 46  1  0  0  0  0
 26 47  1  0  0  0  0
 26 48  1  0  0  0  0
 27 28  1  0  0  0  0
 27 29  1  0  0  0  0
 27 49  1  0  0  0  0
 28 50  1  0  0  0  0
 28 51  1  0  0  0  0
 28 52  1  0  0  0  0
 29 53  1  0  0  0  0
 29 54  1  0  0  0  0
 29 55  1  0  0  0  0
M  END
$$$$
