028
 OpenBabel04121316033D

 34 33  0  0  0  0  0  0  0  0999 V2000
    0.8551   -0.0048    0.0754 C   0  0  0  0  0  0  0  0  0  0  0  0
    2.3678    0.0293    0.1039 C   0  0  0  0  0  0  0  0  0  0  0  0
    2.9183   -0.6089   -1.1502 C   0  0  0  0  0  0  0  0  0  0  0  0
    4.4400   -0.5298   -1.1595 C   0  0  0  0  0  0  0  0  0  0  0  0
    4.9096   -1.1009   -2.4820 C   0  0  0  0  0  0  0  0  0  0  0  0
    6.4209   -1.3378   -2.4905 C   0  0  0  0  0  0  0  0  0  0  0  0
    6.9909   -2.0933   -3.7400 C   0  0  0  0  0  0  0  0  0  0  0  0
    6.8051   -3.9713   -3.3726 P   0  0  0  0  0  0  0  0  0  0  0  0
    7.9722   -4.5731   -2.6239 O   0  0  0  0  0  0  0  0  0  0  0  0
    5.4792   -4.1591   -2.5178 O   0  0  0  0  0  0  0  0  0  0  0  0
    6.3522   -4.8297   -4.6450 O   0  0  0  0  0  0  0  0  0  0  0  0
    6.3809   -1.1958   -5.2136 P   0  0  0  0  0  0  0  0  0  0  0  0
    7.7407   -1.2409   -5.9021 O   0  0  0  0  0  0  0  0  0  0  0  0
    5.4335   -2.4589   -5.6514 O   0  0  0  0  0  0  0  0  0  0  0  0
    5.8042   -0.3473   -6.6066 O   0  0  0  0  0  0  0  0  0  0  0  0
    8.4411   -1.9169   -3.5619 O   0  0  0  0  0  0  0  0  0  0  0  0
    0.4556    0.4774    0.9695 H   0  0  0  0  0  0  0  0  0  0  0  0
    0.4903   -1.0367    0.0397 H   0  0  0  0  0  0  0  0  0  0  0  0
    0.4748    0.5210   -0.8067 H   0  0  0  0  0  0  0  0  0  0  0  0
    2.7401   -0.5078    0.9835 H   0  0  0  0  0  0  0  0  0  0  0  0
    2.7200    1.0639    0.1687 H   0  0  0  0  0  0  0  0  0  0  0  0
    2.5157   -0.1174   -2.0451 H   0  0  0  0  0  0  0  0  0  0  0  0
    2.5942   -1.6591   -1.1977 H   0  0  0  0  0  0  0  0  0  0  0  0
    4.8340   -1.1191   -0.3210 H   0  0  0  0  0  0  0  0  0  0  0  0
    4.7937    0.4999   -1.0472 H   0  0  0  0  0  0  0  0  0  0  0  0
    4.6093   -0.4611   -3.3162 H   0  0  0  0  0  0  0  0  0  0  0  0
    4.2899   -1.9759   -2.6196 H   0  0  0  0  0  0  0  0  0  0  0  0
    6.7446   -1.8632   -1.5813 H   0  0  0  0  0  0  0  0  0  0  0  0
    6.9028   -0.3524   -2.4401 H   0  0  0  0  0  0  0  0  0  0  0  0
    4.8224   -3.4741   -2.7015 H   0  0  0  0  0  0  0  0  0  0  0  0
    6.3303   -5.7872   -4.3873 H   0  0  0  0  0  0  0  0  0  0  0  0
    5.7574   -3.3923   -5.6375 H   0  0  0  0  0  0  0  0  0  0  0  0
    6.4167    0.3938   -6.7750 H   0  0  0  0  0  0  0  0  0  0  0  0
    8.7644   -2.6535   -2.9955 H   0  0  0  0  0  0  0  0  0  0  0  0
  1  2  1  0  0  0  0
  1 17  1  0  0  0  0
  1 18  1  0  0  0  0
  1 19  1  0  0  0  0
  2  3  1  0  0  0  0
  2 20  1  0  0  0  0
  2 21  1  0  0  0  0
  3  4  1  0  0  0  0
  3 22  1  0  0  0  0
  3 23  1  0  0  0  0
  4  5  1  0  0  0  0
  4 24  1  0  0  0  0
  4 25  1  0  0  0  0
  5  6  1  0  0  0  0
  5 26  1  0  0  0  0
  5 27  1  0  0  0  0
  6  7  1  0  0  0  0
  6 28  1  0  0  0  0
  6 29  1  0  0  0  0
  7  8  1  0  0  0  0
  7 12  1  0  0  0  0
  7 16  1  0  0  0  0
  8  9  2  0  0  0  0
  8 10  1  0  0  0  0
  8 11  1  0  0  0  0
 10 30  1  0  0  0  0
 11 31  1  0  0  0  0
 12 13  2  0  0  0  0
 12 14  1  0  0  0  0
 12 15  1  0  0  0  0
 14 32  1  0  0  0  0
 15 33  1  0  0  0  0
 16 34  1  0  0  0  0
M  END
$$$$
