032
 OpenBabel04121316033D

 51 54  0  0  0  0  0  0  0  0999 V2000
    0.9243    0.0513   -0.0010 C   0  0  0  0  0  0  0  0  0  0  0  0
    2.4384    0.1027    0.1108 C   0  0  0  0  0  0  0  0  0  0  0  0
    3.1090   -0.8504   -0.8505 C   0  0  0  0  0  0  0  0  0  0  0  0
    4.9153   -0.6827   -0.7411 S   0  0  0  0  0  0  0  0  0  0  0  0
    5.2715    0.6395   -1.2462 O   0  0  0  0  0  0  0  0  0  0  0  0
    5.3462   -1.1515    0.5419 O   0  0  0  0  0  0  0  0  0  0  0  0
    5.4594   -1.7874   -1.8773 N   0  0  0  0  0  0  0  0  0  0  0  0
    6.8633   -2.0406   -2.0565 C   0  0  0  0  0  0  0  0  0  0  0  0
    7.6850   -1.0249   -2.4866 C   0  0  0  0  0  0  0  0  0  0  0  0
    9.0524   -1.2589   -2.4756 C   0  0  0  0  0  0  0  0  0  0  0  0
    9.5425   -2.5648   -2.5400 C   0  0  0  0  0  0  0  0  0  0  0  0
    8.6838   -3.6454   -2.3977 C   0  0  0  0  0  0  0  0  0  0  0  0
    7.4223   -3.3238   -1.8956 C   0  0  0  0  0  0  0  0  0  0  0  0
    6.7087   -4.2472   -1.2374 F   0  0  0  0  0  0  0  0  0  0  0  0
    9.1314   -5.0334   -2.7474 C   0  0  0  0  0  0  0  0  0  0  0  0
   10.3286   -5.2326   -2.9448 O   0  0  0  0  0  0  0  0  0  0  0  0
    8.1762   -6.1506   -2.8974 C   0  0  0  0  0  0  0  0  0  0  0  0
    8.5588   -7.4859   -2.8486 C   0  0  0  0  0  0  0  0  0  0  0  0
    7.4343   -8.2760   -2.8748 N   0  0  0  0  0  0  0  0  0  0  0  0
    7.4135   -9.2840   -2.8363 H   0  0  0  0  0  0  0  0  0  0  0  0
    6.3176   -7.4901   -2.9499 C   0  0  0  0  0  0  0  0  0  0  0  0
    6.7588   -6.1902   -3.1072 C   0  0  0  0  0  0  0  0  0  0  0  0
    5.7530   -5.2538   -3.3768 C   0  0  0  0  0  0  0  0  0  0  0  0
    4.3904   -5.5440   -3.2473 C   0  0  0  0  0  0  0  0  0  0  0  0
    4.1267   -6.8914   -3.0210 C   0  0  0  0  0  0  0  0  0  0  0  0
    5.0369   -7.9103   -2.9164 N   0  0  0  0  0  0  0  0  0  0  0  0
    3.3708   -4.4687   -3.3815 C   0  0  0  0  0  0  0  0  0  0  0  0
    1.9894   -4.6493   -3.2777 C   0  0  0  0  0  0  0  0  0  0  0  0
    1.0983   -3.5831   -3.5183 C   0  0  0  0  0  0  0  0  0  0  0  0
    1.5627   -2.2830   -3.6649 C   0  0  0  0  0  0  0  0  0  0  0  0
    2.9170   -2.0649   -3.7049 C   0  0  0  0  0  0  0  0  0  0  0  0
    3.7714   -3.1588   -3.6861 C   0  0  0  0  0  0  0  0  0  0  0  0
    0.4935   -0.9581   -3.8614 Cl  0  0  0  0  0  0  0  0  0  0  0  0
   10.8635   -2.7255   -2.6879 F   0  0  0  0  0  0  0  0  0  0  0  0
    0.4839    0.7661    0.6992 H   0  0  0  0  0  0  0  0  0  0  0  0
    0.5405   -0.9475    0.2282 H   0  0  0  0  0  0  0  0  0  0  0  0
    0.5865    0.3203   -1.0079 H   0  0  0  0  0  0  0  0  0  0  0  0
    2.7595   -0.1232    1.1298 H   0  0  0  0  0  0  0  0  0  0  0  0
    2.7734    1.1155   -0.1374 H   0  0  0  0  0  0  0  0  0  0  0  0
    2.7807   -0.5266   -1.8326 H   0  0  0  0  0  0  0  0  0  0  0  0
    2.8136   -1.8929   -0.6742 H   0  0  0  0  0  0  0  0  0  0  0  0
    4.8653   -2.6094   -1.8705 H   0  0  0  0  0  0  0  0  0  0  0  0
    7.2840   -0.0469   -2.7309 H   0  0  0  0  0  0  0  0  0  0  0  0
    9.7352   -0.4224   -2.3867 H   0  0  0  0  0  0  0  0  0  0  0  0
    9.5461   -7.9240   -2.7592 H   0  0  0  0  0  0  0  0  0  0  0  0
    6.0946   -4.2719   -3.6422 H   0  0  0  0  0  0  0  0  0  0  0  0
    3.0980   -7.2348   -2.9523 H   0  0  0  0  0  0  0  0  0  0  0  0
    1.5635   -5.6288   -3.0831 H   0  0  0  0  0  0  0  0  0  0  0  0
    0.0391   -3.7852   -3.6345 H   0  0  0  0  0  0  0  0  0  0  0  0
    3.3477   -1.0652   -3.7442 H   0  0  0  0  0  0  0  0  0  0  0  0
    4.8073   -2.9169   -3.8858 H   0  0  0  0  0  0  0  0  0  0  0  0
  1  2  1  0  0  0  0
  1 35  1  0  0  0  0
  1 36  1  0  0  0  0
  1 37  1  0  0  0  0
  2  3  1  0  0  0  0
  2 38  1  0  0  0  0
  2 39  1  0  0  0  0
  3  4  1  0  0  0  0
  3 40  1  0  0  0  0
  3 41  1  0  0  0  0
  4  5  2  0  0  0  0
  4  6  2  0  0  0  0
  4  7  1  0  0  0  0
  7  8  1  0  0  0  0
  7 42  1  0  0  0  0
  8  9  2  0  0  0  0
  8 13  1  0  0  0  0
  9 10  1  0  0  0  0
  9 43  1  0  0  0  0
 10 11  2  0  0  0  0
 10 44  1  0  0  0  0
 11 12  1  0  0  0  0
 11 34  1  0  0  0  0
 12 13  2  0  0  0  0
 12 15  1  0  0  0  0
 13 14  1  0  0  0  0
 15 16  2  0  0  0  0
 15 17  1  0  0  0  0
 17 18  2  0  0  0  0
 17 22  1  0  0  0  0
 18 19  1  0  0  0  0
 18 45  1  0  0  0  0
 19 20  1  0  0  0  0
 19 21  1  0  0  0  0
 21 22  2  0  0  0  0
 21 26  1  0  0  0  0
 22 23  1  0  0  0  0
 23 24  2  0  0  0  0
 23 46  1  0  0  0  0
 24 25  1  0  0  0  0
 24 27  1  0  0  0  0
 25 26  2  0  0  0  0
 25 47  1  0  0  0  0
 27 28  2  0  0  0  0
 27 32  1  0  0  0  0
 28 29  1  0  0  0  0
 28 48  1  0  0  0  0
 29 30  2  0  0  0  0
 29 49  1  0  0  0  0
 30 31  1  0  0  0  0
 30 33  1  0  0  0  0
 31 32  2  0  0  0  0
 31 50  1  0  0  0  0
 32 51  1  0  0  0  0
M  END
$$$$
