039
 OpenBabel04121316033D

 46 50  0  0  0  0  0  0  0  0999 V2000
    1.4106    0.1706    0.9272 C   0  0  0  0  0  0  0  0  0  0  0  0
    2.7902   -0.0199    0.4039 O   0  0  0  0  0  0  0  0  0  0  0  0
    3.2648    0.2235   -0.9297 C   0  0  0  0  0  0  0  0  0  0  0  0
    3.4800    1.5144   -1.4739 C   0  0  0  0  0  0  0  0  0  0  0  0
    3.8460    1.7245   -2.8496 C   0  0  0  0  0  0  0  0  0  0  0  0
    4.1745    0.6745   -3.6840 C   0  0  0  0  0  0  0  0  0  0  0  0
    4.1228   -0.5886   -3.1458 C   0  0  0  0  0  0  0  0  0  0  0  0
    3.6318   -0.8487   -1.8230 C   0  0  0  0  0  0  0  0  0  0  0  0
    3.3725   -2.2241   -1.5539 N   0  0  0  0  0  0  0  0  0  0  0  0
    2.1767   -2.6040   -1.0293 C   0  0  0  0  0  0  0  0  0  0  0  0
    1.0106   -1.6775   -0.8414 C   0  0  0  0  0  0  0  0  0  0  0  0
    0.6022    0.0369   -2.0863 S   0  0  0  0  0  0  0  0  0  0  0  0
    0.0363    1.7634   -1.0812 C   0  0  0  0  0  0  0  0  0  0  0  0
    0.7890    2.9463   -0.9672 N   0  0  0  0  0  0  0  0  0  0  0  0
    0.3427    3.9247   -0.0882 C   0  0  0  0  0  0  0  0  0  0  0  0
   -0.7051    3.8756    0.7839 N   0  0  0  0  0  0  0  0  0  0  0  0
   -1.2759    2.6572    0.7558 C   0  0  0  0  0  0  0  0  0  0  0  0
   -0.9717    1.5969   -0.0962 C   0  0  0  0  0  0  0  0  0  0  0  0
   -1.6018    0.4502    0.3242 N   0  0  0  0  0  0  0  0  0  0  0  0
   -2.3596    0.8141    1.3280 C   0  0  0  0  0  0  0  0  0  0  0  0
   -2.2997    2.1658    1.5360 N   0  0  0  0  0  0  0  0  0  0  0  0
   -2.9444    2.6919    2.1092 H   0  0  0  0  0  0  0  0  0  0  0  0
    1.9937   -3.7598   -0.4547 N   0  0  0  0  0  0  0  0  0  0  0  0
    2.8966   -4.7797   -0.6814 C   0  0  0  0  0  0  0  0  0  0  0  0
    3.9560   -4.5903   -1.5682 C   0  0  0  0  0  0  0  0  0  0  0  0
    4.1893   -3.2255   -2.0212 C   0  0  0  0  0  0  0  0  0  0  0  0
    5.1084   -3.0593   -2.8811 O   0  0  0  0  0  0  0  0  0  0  0  0
    4.6696   -5.6860   -2.0286 C   0  0  0  0  0  0  0  0  0  0  0  0
    6.1172   -5.5929   -2.9644 Cl  0  0  0  0  0  0  0  0  0  0  0  0
    4.1953   -6.9584   -1.7409 C   0  0  0  0  0  0  0  0  0  0  0  0
    3.1006   -7.1462   -0.8982 C   0  0  0  0  0  0  0  0  0  0  0  0
    2.5458   -6.0573   -0.2455 C   0  0  0  0  0  0  0  0  0  0  0  0
    1.2002    0.1168    1.9905 H   0  0  0  0  0  0  0  0  0  0  0  0
    0.5589   -0.5650    0.8413 H   0  0  0  0  0  0  0  0  0  0  0  0
    0.9036    0.6410    0.1783 H   0  0  0  0  0  0  0  0  0  0  0  0
    3.3003    2.4124   -0.8966 H   0  0  0  0  0  0  0  0  0  0  0  0
    3.8243    2.7167   -3.2999 H   0  0  0  0  0  0  0  0  0  0  0  0
    4.4196    0.7926   -4.7404 H   0  0  0  0  0  0  0  0  0  0  0  0
    4.3674   -1.3818   -3.8506 H   0  0  0  0  0  0  0  0  0  0  0  0
    1.3941   -1.6596    0.1875 H   0  0  0  0  0  0  0  0  0  0  0  0
    0.0760   -2.2192   -0.7455 H   0  0  0  0  0  0  0  0  0  0  0  0
    0.8579    4.8959   -0.0980 H   0  0  0  0  0  0  0  0  0  0  0  0
   -3.0024    0.1369    1.8768 H   0  0  0  0  0  0  0  0  0  0  0  0
    4.7006   -7.8111   -2.1775 H   0  0  0  0  0  0  0  0  0  0  0  0
    2.6755   -8.1365   -0.7720 H   0  0  0  0  0  0  0  0  0  0  0  0
    1.7758   -6.1986    0.5128 H   0  0  0  0  0  0  0  0  0  0  0  0
  1  2  1  0  0  0  0
  1 33  1  0  0  0  0
  1 34  1  0  0  0  0
  1 35  1  0  0  0  0
  2  3  1  0  0  0  0
  3  4  2  0  0  0  0
  3  8  1  0  0  0  0
  4  5  1  0  0  0  0
  4 36  1  0  0  0  0
  5  6  2  0  0  0  0
  5 37  1  0  0  0  0
  6  7  1  0  0  0  0
  6 38  1  0  0  0  0
  7  8  2  0  0  0  0
  7 39  1  0  0  0  0
  8  9  1  0  0  0  0
  9 10  1  0  0  0  0
  9 26  1  0  0  0  0
 10 11  1  0  0  0  0
 10 23  2  0  0  0  0
 11 12  1  0  0  0  0
 11 40  1  0  0  0  0
 11 41  1  0  0  0  0
 12 13  1  0  0  0  0
 13 14  2  0  0  0  0
 13 18  1  0  0  0  0
 14 15  1  0  0  0  0
 15 16  2  0  0  0  0
 15 42  1  0  0  0  0
 16 17  1  0  0  0  0
 17 18  2  0  0  0  0
 17 21  1  0  0  0  0
 18 19  1  0  0  0  0
 19 20  2  0  0  0  0
 20 21  1  0  0  0  0
 20 43  1  0  0  0  0
 21 22  1  0  0  0  0
 23 24  1  0  0  0  0
 24 25  2  0  0  0  0
 24 32  1  0  0  0  0
 25 26  1  0  0  0  0
 25 28  1  0  0  0  0
 26 27  2  0  0  0  0
 28 29  1  0  0  0  0
 28 30  2  0  0  0  0
 30 31  1  0  0  0  0
 30 44  1  0  0  0  0
 31 32  2  0  0  0  0
 31 45  1  0  0  0  0
 32 46  1  0  0  0  0
M  END
$$$$
