03C
 OpenBabel04121316033D

 57 60  0  0  0  0  0  0  0  0999 V2000
    0.9908    0.0568    0.0277 O   0  0  0  0  0  0  0  0  0  0  0  0
    2.2143    0.0586    0.1475 C   0  0  0  0  0  0  0  0  0  0  0  0
    2.9112   -0.9714    0.8581 C   0  0  0  0  0  0  0  0  0  0  0  0
    3.9145   -0.9152    1.8387 C   0  0  0  0  0  0  0  0  0  0  0  0
    4.2862   -2.1278    2.2650 N   0  0  0  0  0  0  0  0  0  0  0  0
    3.4304   -2.9735    1.6217 N   0  0  0  0  0  0  0  0  0  0  0  0
    2.7213   -2.3101    0.6259 C   0  0  0  0  0  0  0  0  0  0  0  0
    2.0373   -2.8975   -0.3931 N   0  0  0  0  0  0  0  0  0  0  0  0
    3.3789   -4.3580    1.9030 C   0  0  0  0  0  0  0  0  0  0  0  0
    4.5951   -5.0538    1.9737 C   0  0  0  0  0  0  0  0  0  0  0  0
    4.5823   -6.4468    1.9429 C   0  0  0  0  0  0  0  0  0  0  0  0
    3.3720   -7.1335    2.0136 C   0  0  0  0  0  0  0  0  0  0  0  0
    2.1701   -6.4320    2.1162 C   0  0  0  0  0  0  0  0  0  0  0  0
    2.1419   -5.0370    1.9958 C   0  0  0  0  0  0  0  0  0  0  0  0
    0.8012   -4.3446    2.0267 C   0  0  0  0  0  0  0  0  0  0  0  0
    2.9899    1.0803   -0.5701 C   0  0  0  0  0  0  0  0  0  0  0  0
    2.6429    2.4068   -0.4218 C   0  0  0  0  0  0  0  0  0  0  0  0
    3.1981    3.3495   -1.2792 C   0  0  0  0  0  0  0  0  0  0  0  0
    3.9111    2.9408   -2.4076 C   0  0  0  0  0  0  0  0  0  0  0  0
    4.2451    1.5979   -2.5784 C   0  0  0  0  0  0  0  0  0  0  0  0
    3.9166    0.7133   -1.5376 C   0  0  0  0  0  0  0  0  0  0  0  0
    4.8550    1.1377   -3.9017 C   0  0  0  0  0  0  0  0  0  0  0  0
    5.4370   -0.2828   -3.7813 C   0  0  0  0  0  0  0  0  0  0  0  0
    4.3342   -1.3584   -3.7477 C   0  0  0  0  0  0  0  0  0  0  0  0
    3.4752   -1.2357   -4.9471 N   0  0  0  0  0  0  0  0  0  0  0  0
    2.7933    0.0932   -4.9594 C   0  0  0  0  0  0  0  0  0  0  0  0
    3.8184    1.2164   -5.0601 C   0  0  0  0  0  0  0  0  0  0  0  0
    4.2616   -1.8061   -6.3398 S   0  0  0  0  0  0  0  0  0  0  0  0
    5.2328   -0.8357   -6.7739 O   0  0  0  0  0  0  0  0  0  0  0  0
    4.6672   -3.1745   -6.0602 O   0  0  0  0  0  0  0  0  0  0  0  0
    2.9686   -1.8392   -7.5392 C   0  0  0  0  0  0  0  0  0  0  0  0
    4.3888   -0.0360    2.2575 H   0  0  0  0  0  0  0  0  0  0  0  0
    1.8646   -3.9020   -0.4025 H   0  0  0  0  0  0  0  0  0  0  0  0
    1.2733   -2.3701   -0.8207 H   0  0  0  0  0  0  0  0  0  0  0  0
    5.5466   -4.5252    1.9616 H   0  0  0  0  0  0  0  0  0  0  0  0
    5.5138   -6.9997    1.8503 H   0  0  0  0  0  0  0  0  0  0  0  0
    3.3615   -8.2202    1.9995 H   0  0  0  0  0  0  0  0  0  0  0  0
    1.2486   -6.9859    2.2806 H   0  0  0  0  0  0  0  0  0  0  0  0
   -0.0095   -5.0536    2.2154 H   0  0  0  0  0  0  0  0  0  0  0  0
    0.5326   -3.8926    1.0737 H   0  0  0  0  0  0  0  0  0  0  0  0
    0.7804   -3.5707    2.7984 H   0  0  0  0  0  0  0  0  0  0  0  0
    1.9545    2.6886    0.3666 H   0  0  0  0  0  0  0  0  0  0  0  0
    3.0279    4.4032   -1.0964 H   0  0  0  0  0  0  0  0  0  0  0  0
    4.2010    3.6748   -3.1563 H   0  0  0  0  0  0  0  0  0  0  0  0
    4.3059   -0.2960   -1.4900 H   0  0  0  0  0  0  0  0  0  0  0  0
    5.6751    1.8267   -4.1488 H   0  0  0  0  0  0  0  0  0  0  0  0
    6.0890   -0.3537   -2.9035 H   0  0  0  0  0  0  0  0  0  0  0  0
    6.1066   -0.4664   -4.6272 H   0  0  0  0  0  0  0  0  0  0  0  0
    3.6415   -1.2955   -2.9070 H   0  0  0  0  0  0  0  0  0  0  0  0
    4.7738   -2.3525   -3.6384 H   0  0  0  0  0  0  0  0  0  0  0  0
    2.2080    0.2184   -4.0355 H   0  0  0  0  0  0  0  0  0  0  0  0
    2.0491    0.1362   -5.7592 H   0  0  0  0  0  0  0  0  0  0  0  0
    3.3101    2.1875   -5.0947 H   0  0  0  0  0  0  0  0  0  0  0  0
    4.3300    1.1464   -6.0253 H   0  0  0  0  0  0  0  0  0  0  0  0
    2.5582   -0.8352   -7.6505 H   0  0  0  0  0  0  0  0  0  0  0  0
    2.2111   -2.5593   -7.2353 H   0  0  0  0  0  0  0  0  0  0  0  0
    3.4385   -2.1368   -8.4778 H   0  0  0  0  0  0  0  0  0  0  0  0
  1  2  2  0  0  0  0
  2  3  1  0  0  0  0
  2 16  1  0  0  0  0
  3  4  1  0  0  0  0
  3  7  2  0  0  0  0
  4  5  2  0  0  0  0
  4 32  1  0  0  0  0
  5  6  1  0  0  0  0
  6  7  1  0  0  0  0
  6  9  1  0  0  0  0
  7  8  1  0  0  0  0
  8 33  1  0  0  0  0
  8 34  1  0  0  0  0
  9 10  2  0  0  0  0
  9 14  1  0  0  0  0
 10 11  1  0  0  0  0
 10 35  1  0  0  0  0
 11 12  2  0  0  0  0
 11 36  1  0  0  0  0
 12 13  1  0  0  0  0
 12 37  1  0  0  0  0
 13 14  2  0  0  0  0
 13 38  1  0  0  0  0
 14 15  1  0  0  0  0
 15 39  1  0  0  0  0
 15 40  1  0  0  0  0
 15 41  1  0  0  0  0
 16 17  2  0  0  0  0
 16 21  1  0  0  0  0
 17 18  1  0  0  0  0
 17 42  1  0  0  0  0
 18 19  2  0  0  0  0
 18 43  1  0  0  0  0
 19 20  1  0  0  0  0
 19 44  1  0  0  0  0
 20 21  2  0  0  0  0
 20 22  1  0  0  0  0
 21 45  1  0  0  0  0
 22 23  1  0  0  0  0
 22 27  1  0  0  0  0
 22 46  1  0  0  0  0
 23 24  1  0  0  0  0
 23 47  1  0  0  0  0
 23 48  1  0  0  0  0
 24 25  1  0  0  0  0
 24 49  1  0  0  0  0
 24 50  1  0  0  0  0
 25 26  1  0  0  0  0
 25 28  1  0  0  0  0
 26 27  1  0  0  0  0
 26 51  1  0  0  0  0
 26 52  1  0  0  0  0
 27 53  1  0  0  0  0
 27 54  1  0  0  0  0
 28 29  2  0  0  0  0
 28 30  2  0  0  0  0
 28 31  1  0  0  0  0
 31 55  1  0  0  0  0
 31 56  1  0  0  0  0
 31 57  1  0  0  0  0
M  END
$$$$
