03Q
 OpenBabel04121316033D

 53 56  0  0  0  0  0  0  0  0999 V2000
    1.0695    0.0250    0.0470 O   0  0  0  0  0  0  0  0  0  0  0  0
    2.4909    0.0212    0.0454 C   0  0  0  0  0  0  0  0  0  0  0  0
    2.9970    1.1664   -0.8159 C   0  0  0  0  0  0  0  0  0  0  0  0
    4.4273    1.1790   -0.8366 O   0  0  0  0  0  0  0  0  0  0  0  0
    4.8837    2.2718   -1.6351 C   0  0  0  0  0  0  0  0  0  0  0  0
    6.4057    2.3235   -1.6361 C   0  0  0  0  0  0  0  0  0  0  0  0
    6.8989    3.3997   -2.4819 N   0  0  0  0  0  0  0  0  0  0  0  0
    6.5945    4.7152   -2.1928 C   0  0  0  0  0  0  0  0  0  0  0  0
    7.0340    5.5024   -3.2268 C   0  0  0  0  0  0  0  0  0  0  0  0
    7.6785    4.6588   -4.1482 C   0  0  0  0  0  0  0  0  0  0  0  0
    7.6068    3.3522   -3.6685 C   0  0  0  0  0  0  0  0  0  0  0  0
    8.2007    2.3494   -4.4309 C   0  0  0  0  0  0  0  0  0  0  0  0
    8.7710    2.7200   -5.6002 N   0  0  0  0  0  0  0  0  0  0  0  0
    8.7907    3.9960   -5.9720 C   0  0  0  0  0  0  0  0  0  0  0  0
    8.2722    5.0181   -5.3063 N   0  0  0  0  0  0  0  0  0  0  0  0
    8.2267    1.0197   -4.0740 N   0  0  0  0  0  0  0  0  0  0  0  0
    8.7711   -0.0621   -4.7567 C   0  0  0  0  0  0  0  0  0  0  0  0
    9.6388    0.0287   -5.8375 C   0  0  0  0  0  0  0  0  0  0  0  0
   10.0604   -1.0259   -6.5579 N   0  0  0  0  0  0  0  0  0  0  0  0
    9.6906   -2.2546   -6.1387 C   0  0  0  0  0  0  0  0  0  0  0  0
    8.9395   -2.4430   -4.9687 C   0  0  0  0  0  0  0  0  0  0  0  0
    8.3911   -1.3299   -4.3563 C   0  0  0  0  0  0  0  0  0  0  0  0
    8.7038   -3.9032   -4.0714 Cl  0  0  0  0  0  0  0  0  0  0  0  0
   10.1870   -3.1965   -6.9934 O   0  0  0  0  0  0  0  0  0  0  0  0
    9.6862   -4.4619   -6.9905 C   0  0  0  0  0  0  0  0  0  0  0  0
   10.6368   -5.4746   -7.0270 C   0  0  0  0  0  0  0  0  0  0  0  0
   10.2382   -6.7903   -6.8376 C   0  0  0  0  0  0  0  0  0  0  0  0
    8.8860   -7.0872   -6.6489 C   0  0  0  0  0  0  0  0  0  0  0  0
    7.9182   -6.0707   -6.6677 C   0  0  0  0  0  0  0  0  0  0  0  0
    8.3260   -4.7563   -6.9076 C   0  0  0  0  0  0  0  0  0  0  0  0
    6.4690   -6.3685   -6.3933 C   0  0  0  0  0  0  0  0  0  0  0  0
    5.8804   -7.0295   -7.4245 F   0  0  0  0  0  0  0  0  0  0  0  0
    6.2853   -7.1443   -5.2888 F   0  0  0  0  0  0  0  0  0  0  0  0
    5.7150   -5.2508   -6.1839 F   0  0  0  0  0  0  0  0  0  0  0  0
    0.7833   -0.7211    0.6011 H   0  0  0  0  0  0  0  0  0  0  0  0
    2.8501   -0.9372   -0.3430 H   0  0  0  0  0  0  0  0  0  0  0  0
    2.8532    0.1262    1.0732 H   0  0  0  0  0  0  0  0  0  0  0  0
    2.6218    2.1179   -0.4189 H   0  0  0  0  0  0  0  0  0  0  0  0
    2.6131    1.0592   -1.8377 H   0  0  0  0  0  0  0  0  0  0  0  0
    4.4760    3.2023   -1.2261 H   0  0  0  0  0  0  0  0  0  0  0  0
    4.5155    2.1465   -2.6604 H   0  0  0  0  0  0  0  0  0  0  0  0
    6.7819    1.3540   -1.9413 H   0  0  0  0  0  0  0  0  0  0  0  0
    6.8033    2.4801   -0.6264 H   0  0  0  0  0  0  0  0  0  0  0  0
    6.0527    4.9761   -1.2933 H   0  0  0  0  0  0  0  0  0  0  0  0
    6.9120    6.5704   -3.3203 H   0  0  0  0  0  0  0  0  0  0  0  0
    9.2905    4.2051   -6.9126 H   0  0  0  0  0  0  0  0  0  0  0  0
    7.8098    0.7669   -3.1980 H   0  0  0  0  0  0  0  0  0  0  0  0
   10.0652    0.9696   -6.1635 H   0  0  0  0  0  0  0  0  0  0  0  0
    7.6957   -1.4565   -3.5291 H   0  0  0  0  0  0  0  0  0  0  0  0
   11.6861   -5.2229   -7.1633 H   0  0  0  0  0  0  0  0  0  0  0  0
   10.9864   -7.5767   -6.8065 H   0  0  0  0  0  0  0  0  0  0  0  0
    8.5868   -8.1195   -6.4814 H   0  0  0  0  0  0  0  0  0  0  0  0
    7.5892   -3.9540   -6.8890 H   0  0  0  0  0  0  0  0  0  0  0  0
  1  2  1  0  0  0  0
  1 35  1  0  0  0  0
  2  3  1  0  0  0  0
  2 36  1  0  0  0  0
  2 37  1  0  0  0  0
  3  4  1  0  0  0  0
  3 38  1  0  0  0  0
  3 39  1  0  0  0  0
  4  5  1  0  0  0  0
  5  6  1  0  0  0  0
  5 40  1  0  0  0  0
  5 41  1  0  0  0  0
  6  7  1  0  0  0  0
  6 42  1  0  0  0  0
  6 43  1  0  0  0  0
  7  8  1  0  0  0  0
  7 11  1  0  0  0  0
  8  9  2  0  0  0  0
  8 44  1  0  0  0  0
  9 10  1  0  0  0  0
  9 45  1  0  0  0  0
 10 11  2  0  0  0  0
 10 15  1  0  0  0  0
 11 12  1  0  0  0  0
 12 13  2  0  0  0  0
 12 16  1  0  0  0  0
 13 14  1  0  0  0  0
 14 15  2  0  0  0  0
 14 46  1  0  0  0  0
 16 17  1  0  0  0  0
 16 47  1  0  0  0  0
 17 18  2  0  0  0  0
 17 22  1  0  0  0  0
 18 19  1  0  0  0  0
 18 48  1  0  0  0  0
 19 20  2  0  0  0  0
 20 21  1  0  0  0  0
 20 24  1  0  0  0  0
 21 22  2  0  0  0  0
 21 23  1  0  0  0  0
 22 49  1  0  0  0  0
 24 25  1  0  0  0  0
 25 26  2  0  0  0  0
 25 30  1  0  0  0  0
 26 27  1  0  0  0  0
 26 50  1  0  0  0  0
 27 28  2  0  0  0  0
 27 51  1  0  0  0  0
 28 29  1  0  0  0  0
 28 52  1  0  0  0  0
 29 30  2  0  0  0  0
 29 31  1  0  0  0  0
 30 53  1  0  0  0  0
 31 32  1  0  0  0  0
 31 33  1  0  0  0  0
 31 34  1  0  0  0  0
M  END
$$$$
