057
 OpenBabel04121316033D

 49 52  0  0  0  0  0  0  0  0999 V2000
    1.0644   -0.0413    0.0679 O   0  0  0  0  0  0  0  0  0  0  0  0
    2.4959   -0.0513    0.0577 C   0  0  0  0  0  0  0  0  0  0  0  0
    3.0456    1.2234   -0.6343 C   0  0  0  0  0  0  0  0  0  0  0  0
    2.6194    1.2755   -2.0333 N   0  0  0  0  0  0  0  0  0  0  0  0
    2.9231    0.2540   -2.9050 C   0  0  0  0  0  0  0  0  0  0  0  0
    3.5944   -0.7399   -2.6228 O   0  0  0  0  0  0  0  0  0  0  0  0
    2.3921    0.3708   -4.2634 C   0  0  0  0  0  0  0  0  0  0  0  0
    2.1117   -0.8061   -4.9591 C   0  0  0  0  0  0  0  0  0  0  0  0
    1.6442   -0.7533   -6.2668 C   0  0  0  0  0  0  0  0  0  0  0  0
    1.4839    0.5189   -6.8454 C   0  0  0  0  0  0  0  0  0  0  0  0
    1.7836    1.7100   -6.1663 C   0  0  0  0  0  0  0  0  0  0  0  0
    2.2430    1.6322   -4.8478 C   0  0  0  0  0  0  0  0  0  0  0  0
    1.5226    2.8005   -7.0377 C   0  0  0  0  0  0  0  0  0  0  0  0
    1.0463    2.2583   -8.2158 C   0  0  0  0  0  0  0  0  0  0  0  0
    1.0443    0.8855   -8.0994 N   0  0  0  0  0  0  0  0  0  0  0  0
    0.6466   -0.0557   -9.1276 C   0  0  0  0  0  0  0  0  0  0  0  0
    1.6883    4.2690   -6.7751 C   0  0  0  0  0  0  0  0  0  0  0  0
    0.6926    5.1702   -6.4421 C   0  0  0  0  0  0  0  0  0  0  0  0
    1.1995    6.4771   -6.6964 C   0  0  0  0  0  0  0  0  0  0  0  0
    2.5561    6.3394   -6.9677 C   0  0  0  0  0  0  0  0  0  0  0  0
    2.8591    4.9983   -6.8533 N   0  0  0  0  0  0  0  0  0  0  0  0
    3.7917    4.6257   -6.9482 H   0  0  0  0  0  0  0  0  0  0  0  0
    3.4192    7.3237   -7.3027 N   0  0  0  0  0  0  0  0  0  0  0  0
    2.8198    8.5401   -7.4094 C   0  0  0  0  0  0  0  0  0  0  0  0
    1.4790    8.8127   -7.1682 C   0  0  0  0  0  0  0  0  0  0  0  0
    0.6451    7.7666   -6.7756 C   0  0  0  0  0  0  0  0  0  0  0  0
    2.5157    2.4625    0.1089 C   0  0  0  0  0  0  0  0  0  0  0  0
    4.5820    1.2531   -0.5939 C   0  0  0  0  0  0  0  0  0  0  0  0
    0.7855   -0.9070    0.4106 H   0  0  0  0  0  0  0  0  0  0  0  0
    2.8191   -0.9693   -0.4402 H   0  0  0  0  0  0  0  0  0  0  0  0
    2.8386   -0.1017    1.0949 H   0  0  0  0  0  0  0  0  0  0  0  0
    1.9115    1.9542   -2.2892 H   0  0  0  0  0  0  0  0  0  0  0  0
    2.2649   -1.7710   -4.4756 H   0  0  0  0  0  0  0  0  0  0  0  0
    1.4250   -1.6724   -6.8028 H   0  0  0  0  0  0  0  0  0  0  0  0
    2.4963    2.5430   -4.3191 H   0  0  0  0  0  0  0  0  0  0  0  0
    0.7272    2.7282   -9.1352 H   0  0  0  0  0  0  0  0  0  0  0  0
    0.3450    0.4845  -10.0269 H   0  0  0  0  0  0  0  0  0  0  0  0
   -0.1916   -0.6533   -8.7555 H   0  0  0  0  0  0  0  0  0  0  0  0
    1.4956   -0.7083   -9.3561 H   0  0  0  0  0  0  0  0  0  0  0  0
   -0.3278    4.9351   -6.1753 H   0  0  0  0  0  0  0  0  0  0  0  0
    3.4786    9.3504   -7.7211 H   0  0  0  0  0  0  0  0  0  0  0  0
    1.0835    9.8162   -7.2956 H   0  0  0  0  0  0  0  0  0  0  0  0
   -0.4115    7.9334   -6.5977 H   0  0  0  0  0  0  0  0  0  0  0  0
    1.4204    2.5013    0.1069 H   0  0  0  0  0  0  0  0  0  0  0  0
    2.8711    3.3905   -0.3525 H   0  0  0  0  0  0  0  0  0  0  0  0
    2.8478    2.4544    1.1534 H   0  0  0  0  0  0  0  0  0  0  0  0
    5.0277    0.4025   -1.1184 H   0  0  0  0  0  0  0  0  0  0  0  0
    4.9554    1.2327    0.4324 H   0  0  0  0  0  0  0  0  0  0  0  0
    4.9615    2.1568   -1.0872 H   0  0  0  0  0  0  0  0  0  0  0  0
  1  2  1  0  0  0  0
  1 29  1  0  0  0  0
  2  3  1  0  0  0  0
  2 30  1  0  0  0  0
  2 31  1  0  0  0  0
  3  4  1  0  0  0  0
  3 27  1  0  0  0  0
  3 28  1  0  0  0  0
  4  5  1  0  0  0  0
  4 32  1  0  0  0  0
  5  6  2  0  0  0  0
  5  7  1  0  0  0  0
  7  8  2  0  0  0  0
  7 12  1  0  0  0  0
  8  9  1  0  0  0  0
  8 33  1  0  0  0  0
  9 10  2  0  0  0  0
  9 34  1  0  0  0  0
 10 11  1  0  0  0  0
 10 15  1  0  0  0  0
 11 12  2  0  0  0  0
 11 13  1  0  0  0  0
 12 35  1  0  0  0  0
 13 14  2  0  0  0  0
 13 17  1  0  0  0  0
 14 15  1  0  0  0  0
 14 36  1  0  0  0  0
 15 16  1  0  0  0  0
 16 37  1  0  0  0  0
 16 38  1  0  0  0  0
 16 39  1  0  0  0  0
 17 18  2  0  0  0  0
 17 21  1  0  0  0  0
 18 19  1  0  0  0  0
 18 40  1  0  0  0  0
 19 20  2  0  0  0  0
 19 26  1  0  0  0  0
 20 21  1  0  0  0  0
 20 23  1  0  0  0  0
 21 22  1  0  0  0  0
 23 24  2  0  0  0  0
 24 25  1  0  0  0  0
 24 41  1  0  0  0  0
 25 26  2  0  0  0  0
 25 42  1  0  0  0  0
 26 43  1  0  0  0  0
 27 44  1  0  0  0  0
 27 45  1  0  0  0  0
 27 46  1  0  0  0  0
 28 47  1  0  0  0  0
 28 48  1  0  0  0  0
 28 49  1  0  0  0  0
M  END
$$$$
