06J
 OpenBabel04121316033D

 66 70  0  0  1  0  0  0  0  0999 V2000
    1.4874    0.0521   -0.3228 N   0  0  0  0  0  0  0  0  0  0  0  0
    3.2251    0.3338   -0.3731 C   0  0  0  0  0  0  0  0  0  0  0  0
    3.3404    0.3712    0.8783 O   0  0  0  0  0  0  0  0  0  0  0  0
    4.6009    0.9873   -1.7015 C   0  0  0  0  0  0  0  0  0  0  0  0
    3.5730    0.5114   -2.4918 C   0  0  0  0  0  0  0  0  0  0  0  0
    4.0219   -0.0763   -3.6955 C   0  0  0  0  0  0  0  0  0  0  0  0
    4.8588   -1.1873   -3.6698 C   0  0  0  0  0  0  0  0  0  0  0  0
    5.9005   -0.7040   -2.8495 C   0  0  0  0  0  0  0  0  0  0  0  0
    6.2096    0.9759   -2.5849 C   0  0  0  0  0  0  0  0  0  0  0  0
    7.2985    2.3754   -3.6329 N   0  0  0  0  0  0  0  0  0  0  0  0
    8.3656    3.5614   -4.9063 C   0  0  0  0  0  0  0  0  0  0  0  0
    9.4337    3.6942   -6.7087 C   0  0  1  0  0  0  0  0  0  0  0  0
    9.1192    4.5069   -7.5260 H   0  0  0  0  0  0  0  0  0  0  0  0
   11.1585    3.8886   -7.2872 C   0  0  0  0  0  0  0  0  0  0  0  0
   11.6621    2.5797   -6.8115 C   0  0  0  0  0  0  0  0  0  0  0  0
   10.5029    1.6670   -7.1822 C   0  0  0  0  0  0  0  0  0  0  0  0
    9.2845    2.4592   -7.4636 N   0  0  3  0  0  0  0  0  0  0  0  0
    8.0569    2.0602   -6.8561 C   0  0  0  0  0  0  0  0  0  0  0  0
    7.9051    0.6956   -6.4479 C   0  0  0  0  0  0  0  0  0  0  0  0
    6.7744    0.3531   -5.5228 C   0  0  0  0  0  0  0  0  0  0  0  0
    6.6995   -1.1103   -5.2811 C   0  0  0  0  0  0  0  0  0  0  0  0
    5.7369   -1.8441   -4.5696 N   0  0  0  0  0  0  0  0  0  0  0  0
    6.2292   -3.1891   -4.5090 C   0  0  0  0  0  0  0  0  0  0  0  0
    5.7069   -4.4908   -4.0274 C   0  0  0  0  0  0  0  0  0  0  0  0
    6.2050   -5.8423   -4.7893 C   0  0  0  0  0  0  0  0  0  0  0  0
    6.0363   -6.9764   -5.8617 C   0  0  0  0  0  0  0  0  0  0  0  0
    4.9932   -6.5056   -4.0881 C   0  0  0  0  0  0  0  0  0  0  0  0
    7.7343   -5.6495   -4.9511 C   0  0  0  0  0  0  0  0  0  0  0  0
    7.7275   -4.4773   -5.9077 C   0  0  0  0  0  0  0  0  0  0  0  0
    7.6991   -4.6065   -7.1293 O   0  0  0  0  0  0  0  0  0  0  0  0
    7.2970   -3.2414   -5.3429 C   0  0  0  0  0  0  0  0  0  0  0  0
    7.6241   -1.9900   -5.7541 C   0  0  0  0  0  0  0  0  0  0  0  0
    8.7063   -1.7418   -6.6851 C   0  0  0  0  0  0  0  0  0  0  0  0
    0.8896    0.1913    0.5849 H   0  0  0  0  0  0  0  0  0  0  0  0
    0.7023   -0.3345   -0.9023 H   0  0  0  0  0  0  0  0  0  0  0  0
    2.9773    1.4231   -2.3309 H   0  0  0  0  0  0  0  0  0  0  0  0
    4.6128    0.7508   -4.1197 H   0  0  0  0  0  0  0  0  0  0  0  0
    5.0856   -1.7148   -2.2464 H   0  0  0  0  0  0  0  0  0  0  0  0
    8.3058    1.9860   -3.5062 H   0  0  0  0  0  0  0  0  0  0  0  0
    9.1546    4.5595   -4.7722 H   0  0  0  0  0  0  0  0  0  0  0  0
    7.6603    4.2696   -5.4561 H   0  0  0  0  0  0  0  0  0  0  0  0
   11.7365    4.7672   -6.9670 H   0  0  0  0  0  0  0  0  0  0  0  0
   11.3978    3.8992   -8.4255 H   0  0  0  0  0  0  0  0  0  0  0  0
   11.7332    2.7090   -5.7321 H   0  0  0  0  0  0  0  0  0  0  0  0
   12.6266    2.2112   -7.1775 H   0  0  0  0  0  0  0  0  0  0  0  0
   10.4087    1.0334   -6.3179 H   0  0  0  0  0  0  0  0  0  0  0  0
   10.7374    1.0244   -8.0358 H   0  0  0  0  0  0  0  0  0  0  0  0
    7.1880    2.6740   -7.0965 H   0  0  0  0  0  0  0  0  0  0  0  0
    8.2144    2.1865   -5.8436 H   0  0  0  0  0  0  0  0  0  0  0  0
    8.8170    0.4504   -5.8795 H   0  0  0  0  0  0  0  0  0  0  0  0
    7.7796    0.3004   -7.4165 H   0  0  0  0  0  0  0  0  0  0  0  0
    5.8842    0.8847   -5.8255 H   0  0  0  0  0  0  0  0  0  0  0  0
    7.0829    0.7213   -4.5821 H   0  0  0  0  0  0  0  0  0  0  0  0
    4.6240   -4.3971   -4.0625 H   0  0  0  0  0  0  0  0  0  0  0  0
    6.0450   -4.7054   -2.9746 H   0  0  0  0  0  0  0  0  0  0  0  0
    6.8402   -7.1044   -6.5865 H   0  0  0  0  0  0  0  0  0  0  0  0
    5.1136   -6.9011   -6.4259 H   0  0  0  0  0  0  0  0  0  0  0  0
    6.0687   -7.9693   -5.3405 H   0  0  0  0  0  0  0  0  0  0  0  0
    4.5976   -6.0516   -3.1805 H   0  0  0  0  0  0  0  0  0  0  0  0
    5.0973   -7.5341   -3.8004 H   0  0  0  0  0  0  0  0  0  0  0  0
    4.1487   -6.3530   -4.8169 H   0  0  0  0  0  0  0  0  0  0  0  0
    8.3052   -6.3998   -5.5240 H   0  0  0  0  0  0  0  0  0  0  0  0
    8.3054   -5.4252   -4.0505 H   0  0  0  0  0  0  0  0  0  0  0  0
    9.1778   -2.6438   -7.0070 H   0  0  0  0  0  0  0  0  0  0  0  0
    9.4754   -1.1571   -6.1895 H   0  0  0  0  0  0  0  0  0  0  0  0
    8.3009   -1.2940   -7.5881 H   0  0  0  0  0  0  0  0  0  0  0  0
  1  2  1  0  0  0  0
  1 34  1  0  0  0  0
  1 35  1  0  0  0  0
  2  3  2  0  0  0  0
  2  4  1  0  0  0  0
  4  5  2  0  0  0  0
  4  9  1  0  0  0  0
  5  6  1  0  0  0  0
  5 36  1  0  0  0  0
  6  7  2  0  0  0  0
  6 37  1  0  0  0  0
  7  8  1  0  0  0  0
  7 22  1  0  0  0  0
  8  9  2  0  0  0  0
  8 38  1  0  0  0  0
  9 10  1  0  0  0  0
 10 11  1  0  0  0  0
 10 39  1  0  0  0  0
 11 12  1  0  0  0  0
 11 40  1  0  0  0  0
 11 41  1  0  0  0  0
 12 14  1  0  0  0  0
 12 17  1  0  0  0  0
 12 13  1  6  0  0  0
 14 15  1  0  0  0  0
 14 42  1  0  0  0  0
 14 43  1  0  0  0  0
 15 16  1  0  0  0  0
 15 44  1  0  0  0  0
 15 45  1  0  0  0  0
 16 17  1  0  0  0  0
 16 46  1  0  0  0  0
 16 47  1  0  0  0  0
 17 18  1  0  0  0  0
 18 19  1  0  0  0  0
 18 48  1  0  0  0  0
 18 49  1  0  0  0  0
 19 20  1  0  0  0  0
 19 50  1  0  0  0  0
 19 51  1  0  0  0  0
 20 21  1  0  0  0  0
 20 52  1  0  0  0  0
 20 53  1  0  0  0  0
 21 22  1  0  0  0  0
 21 32  2  0  0  0  0
 22 23  1  0  0  0  0
 23 24  1  0  0  0  0
 23 31  2  0  0  0  0
 24 25  1  0  0  0  0
 24 54  1  0  0  0  0
 24 55  1  0  0  0  0
 25 28  1  0  0  0  0
 25 26  1  0  0  0  0
 25 27  1  0  0  0  0
 26 56  1  0  0  0  0
 26 57  1  0  0  0  0
 26 58  1  0  0  0  0
 27 59  1  0  0  0  0
 27 60  1  0  0  0  0
 27 61  1  0  0  0  0
 28 29  1  0  0  0  0
 28 62  1  0  0  0  0
 28 63  1  0  0  0  0
 29 31  1  0  0  0  0
 29 30  2  0  0  0  0
 31 32  1  0  0  0  0
 32 33  1  0  0  0  0
 33 64  1  0  0  0  0
 33 65  1  0  0  0  0
 33 66  1  0  0  0  0
M  END
$$$$
