071
 OpenBabel04121316033D

 61 65  0  0  0  0  0  0  0  0999 V2000
    0.7434    0.1839    0.4628 C   0  0  0  0  0  0  0  0  0  0  0  0
    2.1120    0.4283    0.2725 O   0  0  0  0  0  0  0  0  0  0  0  0
    2.9131    0.4069    1.3476 C   0  0  0  0  0  0  0  0  0  0  0  0
    3.1561    1.6862    1.8008 C   0  0  0  0  0  0  0  0  0  0  0  0
    4.0791    1.8882    2.7878 C   0  0  0  0  0  0  0  0  0  0  0  0
    4.7020    0.8137    3.4263 C   0  0  0  0  0  0  0  0  0  0  0  0
    4.3973   -0.4976    2.9399 C   0  0  0  0  0  0  0  0  0  0  0  0
    3.5922   -0.7239    1.8061 C   0  0  0  0  0  0  0  0  0  0  0  0
    3.5509   -1.9840    1.1553 N   0  0  0  0  0  0  0  0  0  0  0  0
    3.0776   -2.3170   -0.1355 C   0  0  0  0  0  0  0  0  0  0  0  0
    2.9489   -3.6113   -0.4630 N   0  0  0  0  0  0  0  0  0  0  0  0
    2.3441   -3.8678   -1.6468 C   0  0  0  0  0  0  0  0  0  0  0  0
    1.7913   -2.8988   -2.4573 C   0  0  0  0  0  0  0  0  0  0  0  0
    2.0016   -1.5950   -2.0742 C   0  0  0  0  0  0  0  0  0  0  0  0
    2.7244   -1.3384   -0.9938 N   0  0  0  0  0  0  0  0  0  0  0  0
    1.2766   -0.5160   -2.8082 C   0  0  0  0  0  0  0  0  0  0  0  0
    1.2716    0.8670   -2.7724 N   0  0  0  0  0  0  0  0  0  0  0  0
    2.0356    1.7986   -1.9717 C   0  0  0  0  0  0  0  0  0  0  0  0
    0.3534    1.4154   -3.6164 N   0  0  0  0  0  0  0  0  0  0  0  0
   -0.2361    0.3846   -4.2510 C   0  0  0  0  0  0  0  0  0  0  0  0
    0.2729   -0.8315   -3.7201 C   0  0  0  0  0  0  0  0  0  0  0  0
   -0.0860   -2.2468   -3.9880 C   0  0  0  0  0  0  0  0  0  0  0  0
    1.0937   -3.1828   -3.7421 C   0  0  0  0  0  0  0  0  0  0  0  0
   -1.2221    0.5813   -5.3441 C   0  0  0  0  0  0  0  0  0  0  0  0
   -1.5709    1.6878   -5.7882 O   0  0  0  0  0  0  0  0  0  0  0  0
   -1.7658   -0.5304   -5.9342 N   0  0  0  0  0  0  0  0  0  0  0  0
    5.5696    1.0587    4.4749 N   0  0  0  0  0  0  0  0  0  0  0  0
    6.4402    0.0100    5.0191 C   0  0  0  0  0  0  0  0  0  0  0  0
    7.9200    0.4313    4.9042 C   0  0  0  0  0  0  0  0  0  0  0  0
    8.2264    1.7353    5.5375 N   0  0  0  0  0  0  0  0  0  0  0  0
    7.3584    2.7530    4.9005 C   0  0  0  0  0  0  0  0  0  0  0  0
    5.8510    2.4225    4.9932 C   0  0  0  0  0  0  0  0  0  0  0  0
    7.9589    1.6679    6.9784 C   0  0  0  0  0  0  0  0  0  0  0  0
    0.3227   -0.0341   -0.5189 H   0  0  0  0  0  0  0  0  0  0  0  0
    0.2796    1.1114    0.7850 H   0  0  0  0  0  0  0  0  0  0  0  0
    0.5498   -0.6896    1.0803 H   0  0  0  0  0  0  0  0  0  0  0  0
    2.6570    2.5231    1.3261 H   0  0  0  0  0  0  0  0  0  0  0  0
    4.2686    2.9261    3.0161 H   0  0  0  0  0  0  0  0  0  0  0  0
    4.7850   -1.3706    3.4543 H   0  0  0  0  0  0  0  0  0  0  0  0
    3.9877   -2.7753    1.6062 H   0  0  0  0  0  0  0  0  0  0  0  0
    2.2979   -4.9145   -1.9362 H   0  0  0  0  0  0  0  0  0  0  0  0
    2.8521    1.2778   -1.4873 H   0  0  0  0  0  0  0  0  0  0  0  0
    1.3613    2.2946   -1.2565 H   0  0  0  0  0  0  0  0  0  0  0  0
    2.5022    2.5581   -2.5981 H   0  0  0  0  0  0  0  0  0  0  0  0
   -0.3309   -2.4104   -5.0317 H   0  0  0  0  0  0  0  0  0  0  0  0
   -0.9504   -2.5097   -3.3635 H   0  0  0  0  0  0  0  0  0  0  0  0
    1.8258   -3.0221   -4.5442 H   0  0  0  0  0  0  0  0  0  0  0  0
    0.7403   -4.2141   -3.7986 H   0  0  0  0  0  0  0  0  0  0  0  0
   -1.6810   -1.4670   -5.5907 H   0  0  0  0  0  0  0  0  0  0  0  0
   -2.3956   -0.3979   -6.7109 H   0  0  0  0  0  0  0  0  0  0  0  0
    6.3485   -0.9588    4.5285 H   0  0  0  0  0  0  0  0  0  0  0  0
    6.1578   -0.1611    6.0631 H   0  0  0  0  0  0  0  0  0  0  0  0
    8.1922    0.4827    3.8396 H   0  0  0  0  0  0  0  0  0  0  0  0
    8.5531   -0.3496    5.3387 H   0  0  0  0  0  0  0  0  0  0  0  0
    7.6410    2.8500    3.8415 H   0  0  0  0  0  0  0  0  0  0  0  0
    7.5518    3.7373    5.3450 H   0  0  0  0  0  0  0  0  0  0  0  0
    5.3140    3.2388    4.5087 H   0  0  0  0  0  0  0  0  0  0  0  0
    5.5104    2.4703    6.0324 H   0  0  0  0  0  0  0  0  0  0  0  0
    8.5608    0.8796    7.4391 H   0  0  0  0  0  0  0  0  0  0  0  0
    6.9143    1.4547    7.2283 H   0  0  0  0  0  0  0  0  0  0  0  0
    8.2146    2.6156    7.4593 H   0  0  0  0  0  0  0  0  0  0  0  0
  1  2  1  0  0  0  0
  1 34  1  0  0  0  0
  1 35  1  0  0  0  0
  1 36  1  0  0  0  0
  2  3  1  0  0  0  0
  3  4  2  0  0  0  0
  3  8  1  0  0  0  0
  4  5  1  0  0  0  0
  4 37  1  0  0  0  0
  5  6  2  0  0  0  0
  5 38  1  0  0  0  0
  6  7  1  0  0  0  0
  6 27  1  0  0  0  0
  7  8  2  0  0  0  0
  7 39  1  0  0  0  0
  8  9  1  0  0  0  0
  9 10  1  0  0  0  0
  9 40  1  0  0  0  0
 10 11  2  0  0  0  0
 10 15  1  0  0  0  0
 11 12  1  0  0  0  0
 12 13  2  0  0  0  0
 12 41  1  0  0  0  0
 13 14  1  0  0  0  0
 13 23  1  0  0  0  0
 14 15  2  0  0  0  0
 14 16  1  0  0  0  0
 16 17  1  0  0  0  0
 16 21  2  0  0  0  0
 17 18  1  0  0  0  0
 17 19  1  0  0  0  0
 18 42  1  0  0  0  0
 18 43  1  0  0  0  0
 18 44  1  0  0  0  0
 19 20  2  0  0  0  0
 20 21  1  0  0  0  0
 20 24  1  0  0  0  0
 21 22  1  0  0  0  0
 22 23  1  0  0  0  0
 22 45  1  0  0  0  0
 22 46  1  0  0  0  0
 23 47  1  0  0  0  0
 23 48  1  0  0  0  0
 24 25  2  0  0  0  0
 24 26  1  0  0  0  0
 26 49  1  0  0  0  0
 26 50  1  0  0  0  0
 27 28  1  0  0  0  0
 27 32  1  0  0  0  0
 28 29  1  0  0  0  0
 28 51  1  0  0  0  0
 28 52  1  0  0  0  0
 29 30  1  0  0  0  0
 29 53  1  0  0  0  0
 29 54  1  0  0  0  0
 30 31  1  0  0  0  0
 30 33  1  0  0  0  0
 31 32  1  0  0  0  0
 31 55  1  0  0  0  0
 31 56  1  0  0  0  0
 32 57  1  0  0  0  0
 32 58  1  0  0  0  0
 33 59  1  0  0  0  0
 33 60  1  0  0  0  0
 33 61  1  0  0  0  0
M  END
$$$$
