077
 OpenBabel04121316033D

 38 39  0  0  1  0  0  0  0  0999 V2000
    2.8676   -1.4374   -0.1592 O   0  0  0  0  0  0  0  0  0  0  0  0
    2.4128   -0.0864   -0.1275 C   0  0  2  0  0  0  0  0  0  0  0  0
    1.3179   -0.1089   -0.1003 H   0  0  0  0  0  0  0  0  0  0  0  0
    2.8838    0.7153   -1.3487 C   0  0  0  0  0  0  0  0  0  0  0  0
    2.3330    0.1343   -2.6211 C   0  0  0  0  0  0  0  0  0  0  0  0
    1.5855   -0.8350   -2.6942 O   0  0  0  0  0  0  0  0  0  0  0  0
    2.7528    0.7846   -3.7281 O   0  0  0  0  0  0  0  0  0  0  0  0
    2.9076    0.5241    1.1732 C   0  0  0  0  0  0  0  0  0  0  0  0
    4.4347    0.5400    1.2287 C   0  0  0  0  0  0  0  0  0  0  0  0
    4.8865    1.1687    2.4943 C   0  0  0  0  0  0  0  0  0  0  0  0
    4.5915    2.5086    2.7063 C   0  0  0  0  0  0  0  0  0  0  0  0
    5.0899    3.1410    3.8211 C   0  0  0  0  0  0  0  0  0  0  0  0
    5.7891    2.4383    4.8159 C   0  0  0  0  0  0  0  0  0  0  0  0
    5.9694    1.0549    4.6275 C   0  0  0  0  0  0  0  0  0  0  0  0
    5.5835    0.4356    3.4470 C   0  0  0  0  0  0  0  0  0  0  0  0
    6.3465    3.1610    5.9756 C   0  0  0  0  0  0  0  0  0  0  0  0
    6.0609    4.5245    6.1831 C   0  0  0  0  0  0  0  0  0  0  0  0
    6.7089    5.2696    7.1585 C   0  0  0  0  0  0  0  0  0  0  0  0
    7.5533    4.6319    8.0521 C   0  0  0  0  0  0  0  0  0  0  0  0
    7.7617    3.2608    7.9531 C   0  0  0  0  0  0  0  0  0  0  0  0
    7.2194    2.5479    6.8862 C   0  0  0  0  0  0  0  0  0  0  0  0
    3.8254   -1.4642   -0.3105 H   0  0  0  0  0  0  0  0  0  0  0  0
    3.9756    0.7020   -1.4356 H   0  0  0  0  0  0  0  0  0  0  0  0
    2.5475    1.7569   -1.2585 H   0  0  0  0  0  0  0  0  0  0  0  0
    3.3367    1.5492   -3.5686 H   0  0  0  0  0  0  0  0  0  0  0  0
    2.5321   -0.0592    2.0256 H   0  0  0  0  0  0  0  0  0  0  0  0
    2.4907    1.5336    1.2805 H   0  0  0  0  0  0  0  0  0  0  0  0
    4.8684    1.1258    0.4108 H   0  0  0  0  0  0  0  0  0  0  0  0
    4.8515   -0.4689    1.1480 H   0  0  0  0  0  0  0  0  0  0  0  0
    3.9906    3.0795    2.0045 H   0  0  0  0  0  0  0  0  0  0  0  0
    4.9185    4.2091    3.8675 H   0  0  0  0  0  0  0  0  0  0  0  0
    6.4265    0.4255    5.3844 H   0  0  0  0  0  0  0  0  0  0  0  0
    5.8197   -0.6135    3.2845 H   0  0  0  0  0  0  0  0  0  0  0  0
    5.3324    5.0550    5.5790 H   0  0  0  0  0  0  0  0  0  0  0  0
    6.5331    6.3392    7.2143 H   0  0  0  0  0  0  0  0  0  0  0  0
    8.0407    5.2039    8.8325 H   0  0  0  0  0  0  0  0  0  0  0  0
    8.3593    2.7399    8.6939 H   0  0  0  0  0  0  0  0  0  0  0  0
    7.5075    1.5058    6.7839 H   0  0  0  0  0  0  0  0  0  0  0  0
  1 22  1  0  0  0  0
  2  4  1  0  0  0  0
  2  8  1  0  0  0  0
  2  3  1  1  0  0  0
  2  1  1  0  0  0  0
  4  5  1  0  0  0  0
  4 23  1  0  0  0  0
  4 24  1  0  0  0  0
  5  6  2  0  0  0  0
  5  7  1  0  0  0  0
  7 25  1  0  0  0  0
  8  9  1  0  0  0  0
  8 26  1  0  0  0  0
  8 27  1  0  0  0  0
  9 10  1  0  0  0  0
  9 28  1  0  0  0  0
  9 29  1  0  0  0  0
 10 11  2  0  0  0  0
 10 15  1  0  0  0  0
 11 12  1  0  0  0  0
 11 30  1  0  0  0  0
 12 13  2  0  0  0  0
 12 31  1  0  0  0  0
 13 14  1  0  0  0  0
 13 16  1  0  0  0  0
 14 15  2  0  0  0  0
 14 32  1  0  0  0  0
 15 33  1  0  0  0  0
 16 17  2  0  0  0  0
 16 21  1  0  0  0  0
 17 18  1  0  0  0  0
 17 34  1  0  0  0  0
 18 19  2  0  0  0  0
 18 35  1  0  0  0  0
 19 20  1  0  0  0  0
 19 36  1  0  0  0  0
 20 21  2  0  0  0  0
 20 37  1  0  0  0  0
 21 38  1  0  0  0  0
M  END
$$$$
