090
 OpenBabel04121316033D

 42 45  0  0  0  0  0  0  0  0999 V2000
    0.9749    0.1364    0.0604 C   0  0  0  0  0  0  0  0  0  0  0  0
    2.4037    0.0431    0.0887 O   0  0  0  0  0  0  0  0  0  0  0  0
    2.9852   -1.2070    0.2463 C   0  0  0  0  0  0  0  0  0  0  0  0
    2.3017   -2.4252    0.0768 C   0  0  0  0  0  0  0  0  0  0  0  0
    0.9823   -2.3828   -0.2567 O   0  0  0  0  0  0  0  0  0  0  0  0
    0.2664   -3.5898   -0.4224 C   0  0  0  0  0  0  0  0  0  0  0  0
    2.9850   -3.6294    0.2422 C   0  0  0  0  0  0  0  0  0  0  0  0
    4.3318   -3.6510    0.5761 C   0  0  0  0  0  0  0  0  0  0  0  0
    5.0126   -2.4484    0.7407 C   0  0  0  0  0  0  0  0  0  0  0  0
    4.3646   -1.2132    0.5757 C   0  0  0  0  0  0  0  0  0  0  0  0
    5.0483   -0.0722    0.7413 N   0  0  0  0  0  0  0  0  0  0  0  0
    6.3454   -0.0106    1.0678 C   0  0  0  0  0  0  0  0  0  0  0  0
    7.0055    1.1919    1.2360 N   0  0  0  0  0  0  0  0  0  0  0  0
    6.3652    2.3948    1.0855 C   0  0  0  0  0  0  0  0  0  0  0  0
    5.1752    2.5315    0.8021 O   0  0  0  0  0  0  0  0  0  0  0  0
    7.1614    3.6231    1.2620 C   0  0  0  0  0  0  0  0  0  0  0  0
    6.4856    4.8442    1.2522 C   0  0  0  0  0  0  0  0  0  0  0  0
    7.2031    6.0265    1.3515 C   0  0  0  0  0  0  0  0  0  0  0  0
    8.5845    5.9494    1.3678 C   0  0  0  0  0  0  0  0  0  0  0  0
    9.2715    4.7865    1.4209 N   0  0  0  0  0  0  0  0  0  0  0  0
    8.5412    3.6507    1.4068 C   0  0  0  0  0  0  0  0  0  0  0  0
    7.0503   -1.2711    1.2483 N   0  3  0  0  0  0  0  0  0  0  0  0
    6.3645   -2.3977    1.0796 C   0  0  0  0  0  0  0  0  0  0  0  0
    7.2329   -3.3956    1.3047 N   0  0  0  0  0  0  0  0  0  0  0  0
    7.0172   -4.3868    1.2557 H   0  0  0  0  0  0  0  0  0  0  0  0
    8.4794   -2.8753    1.6172 C   0  0  0  0  0  0  0  0  0  0  0  0
    8.3571   -1.5129    1.5791 C   0  0  0  0  0  0  0  0  0  0  0  0
    0.6722    1.1855   -0.0017 H   0  0  0  0  0  0  0  0  0  0  0  0
    0.5416   -0.2782    0.9791 H   0  0  0  0  0  0  0  0  0  0  0  0
    0.5549   -0.3290   -0.8386 H   0  0  0  0  0  0  0  0  0  0  0  0
   -0.7648   -3.3288   -0.6719 H   0  0  0  0  0  0  0  0  0  0  0  0
    0.2591   -4.1585    0.5115 H   0  0  0  0  0  0  0  0  0  0  0  0
    0.6846   -4.1664   -1.2517 H   0  0  0  0  0  0  0  0  0  0  0  0
    2.4769   -4.5785    0.1113 H   0  0  0  0  0  0  0  0  0  0  0  0
    4.8113   -4.6159    0.6974 H   0  0  0  0  0  0  0  0  0  0  0  0
    7.9755    1.1527    1.4825 H   0  0  0  0  0  0  0  0  0  0  0  0
    5.4004    4.8753    1.1603 H   0  0  0  0  0  0  0  0  0  0  0  0
    6.6919    6.9807    1.3977 H   0  0  0  0  0  0  0  0  0  0  0  0
    9.1923    6.8483    1.3369 H   0  0  0  0  0  0  0  0  0  0  0  0
    9.1492    2.7632    1.5228 H   0  0  0  0  0  0  0  0  0  0  0  0
    9.2998   -3.5416    1.8282 H   0  0  0  0  0  0  0  0  0  0  0  0
    9.0537   -0.7110    1.7507 H   0  0  0  0  0  0  0  0  0  0  0  0
  1  2  1  0  0  0  0
  1 28  1  0  0  0  0
  1 29  1  0  0  0  0
  1 30  1  0  0  0  0
  2  3  1  0  0  0  0
  3  4  2  0  0  0  0
  3 10  1  0  0  0  0
  4  5  1  0  0  0  0
  4  7  1  0  0  0  0
  5  6  1  0  0  0  0
  6 31  1  0  0  0  0
  6 32  1  0  0  0  0
  6 33  1  0  0  0  0
  7  8  2  0  0  0  0
  7 34  1  0  0  0  0
  8  9  1  0  0  0  0
  8 35  1  0  0  0  0
  9 10  2  0  0  0  0
  9 23  1  0  0  0  0
 10 11  1  0  0  0  0
 11 12  2  0  0  0  0
 12 13  1  0  0  0  0
 12 22  1  0  0  0  0
 13 14  1  0  0  0  0
 13 36  1  0  0  0  0
 14 15  2  0  0  0  0
 14 16  1  0  0  0  0
 16 17  2  0  0  0  0
 16 21  1  0  0  0  0
 17 18  1  0  0  0  0
 17 37  1  0  0  0  0
 18 19  2  0  0  0  0
 18 38  1  0  0  0  0
 19 20  1  0  0  0  0
 19 39  1  0  0  0  0
 20 21  2  0  0  0  0
 21 40  1  0  0  0  0
 22 23  2  0  0  0  0
 22 27  1  0  0  0  0
 23 24  1  0  0  0  0
 24 25  1  0  0  0  0
 24 26  1  0  0  0  0
 26 27  2  0  0  0  0
 26 41  1  0  0  0  0
 27 42  1  0  0  0  0
M  CHG  1  22   1
M  END
$$$$
