0BB
 OpenBabel04121316033D

 47 50  0  0  0  0  0  0  0  0999 V2000
    0.8917    0.1262    0.0100 O   0  0  0  0  0  0  0  0  0  0  0  0
    2.2417    0.1355    0.0584 C   0  0  0  0  0  0  0  0  0  0  0  0
    2.8595    1.1168    0.3901 O   0  0  0  0  0  0  0  0  0  0  0  0
    2.8267   -1.1898   -0.4097 C   0  0  0  0  0  0  0  0  0  0  0  0
    4.3008   -1.0516   -0.3659 C   0  0  0  0  0  0  0  0  0  0  0  0
    5.1378   -2.2227   -0.7968 C   0  0  0  0  0  0  0  0  0  0  0  0
    6.5213   -1.9663   -0.4925 N   0  0  0  0  0  0  0  0  0  0  0  0
    7.5498   -2.9443   -0.4851 C   0  0  0  0  0  0  0  0  0  0  0  0
    7.4281   -4.1574   -0.8383 O   0  0  0  0  0  0  0  0  0  0  0  0
    8.7448   -2.2898   -0.0427 N   0  0  0  0  0  0  0  0  0  0  0  0
    8.3041   -0.9674    0.4759 C   0  0  0  0  0  0  0  0  0  0  0  0
    6.9985   -0.7217    0.0269 C   0  0  0  0  0  0  0  0  0  0  0  0
    6.4360    0.6672   -0.2533 C   0  0  0  0  0  0  0  0  0  0  0  0
    7.1274    1.8390   -0.1358 C   0  0  0  0  0  0  0  0  0  0  0  0
    8.3805    1.5749    0.3136 C   0  0  0  0  0  0  0  0  0  0  0  0
    8.9691    0.2114    0.8112 C   0  0  0  0  0  0  0  0  0  0  0  0
   10.0801   -2.8568   -0.4276 C   0  0  0  0  0  0  0  0  0  0  0  0
   11.3118   -1.9346   -0.6180 C   0  0  0  0  0  0  0  0  0  0  0  0
   12.5913   -2.4453   -0.4073 C   0  0  0  0  0  0  0  0  0  0  0  0
   13.7964   -1.2588   -0.2651 S   0  0  0  0  0  0  0  0  0  0  0  0
   12.6926    0.0087   -0.5799 C   0  0  0  0  0  0  0  0  0  0  0  0
   11.4333   -0.4902   -0.9814 C   0  0  0  0  0  0  0  0  0  0  0  0
   10.4852    0.4895   -1.4170 C   0  0  0  0  0  0  0  0  0  0  0  0
    9.1128    0.0334   -2.0518 C   0  0  0  0  0  0  0  0  0  0  0  0
   10.8499    1.8468   -0.8088 C   0  0  0  0  0  0  0  0  0  0  0  0
   12.0726    2.3420   -0.4873 C   0  0  0  0  0  0  0  0  0  0  0  0
   13.0296    1.3912   -0.4480 C   0  0  0  0  0  0  0  0  0  0  0  0
    0.5382   -0.5704    0.5904 H   0  0  0  0  0  0  0  0  0  0  0  0
    2.5667   -1.3516   -1.4584 H   0  0  0  0  0  0  0  0  0  0  0  0
    2.5416   -2.0206    0.2272 H   0  0  0  0  0  0  0  0  0  0  0  0
    4.6079   -0.7096    0.6374 H   0  0  0  0  0  0  0  0  0  0  0  0
    4.4689   -0.2939   -1.1255 H   0  0  0  0  0  0  0  0  0  0  0  0
    5.0128   -2.4059   -1.8725 H   0  0  0  0  0  0  0  0  0  0  0  0
    4.8464   -3.1253   -0.2562 H   0  0  0  0  0  0  0  0  0  0  0  0
    5.5467    0.9313   -0.8083 H   0  0  0  0  0  0  0  0  0  0  0  0
    6.9286    2.7594   -0.7301 H   0  0  0  0  0  0  0  0  0  0  0  0
    8.8307    2.1680   -0.5376 H   0  0  0  0  0  0  0  0  0  0  0  0
   10.0495    0.1032    0.9643 H   0  0  0  0  0  0  0  0  0  0  0  0
   10.0367   -3.5242   -1.3242 H   0  0  0  0  0  0  0  0  0  0  0  0
   10.3079   -3.5887    0.3687 H   0  0  0  0  0  0  0  0  0  0  0  0
   12.8961   -3.4682   -0.2254 H   0  0  0  0  0  0  0  0  0  0  0  0
    8.8925   -1.0478   -2.1607 H   0  0  0  0  0  0  0  0  0  0  0  0
    8.4857    0.6295   -2.7242 H   0  0  0  0  0  0  0  0  0  0  0  0
    8.4168    0.1789   -1.2987 H   0  0  0  0  0  0  0  0  0  0  0  0
   10.2747    2.5337   -0.1356 H   0  0  0  0  0  0  0  0  0  0  0  0
   12.1626    3.4027   -0.2334 H   0  0  0  0  0  0  0  0  0  0  0  0
   14.0259    1.7106   -0.1879 H   0  0  0  0  0  0  0  0  0  0  0  0
  1  2  1  0  0  0  0
  1 28  1  0  0  0  0
  2  3  2  0  0  0  0
  2  4  1  0  0  0  0
  4  5  1  0  0  0  0
  4 29  1  0  0  0  0
  4 30  1  0  0  0  0
  5  6  1  0  0  0  0
  5 31  1  0  0  0  0
  5 32  1  0  0  0  0
  6  7  1  0  0  0  0
  6 33  1  0  0  0  0
  6 34  1  0  0  0  0
  7  8  1  0  0  0  0
  7 12  1  0  0  0  0
  8  9  2  0  0  0  0
  8 10  1  0  0  0  0
 10 11  1  0  0  0  0
 10 17  1  0  0  0  0
 11 12  2  0  0  0  0
 11 16  1  0  0  0  0
 12 13  1  0  0  0  0
 13 14  2  0  0  0  0
 13 35  1  0  0  0  0
 14 15  1  0  0  0  0
 14 36  1  0  0  0  0
 15 16  2  0  0  0  0
 15 37  1  0  0  0  0
 16 38  1  0  0  0  0
 17 18  1  0  0  0  0
 17 39  1  0  0  0  0
 17 40  1  0  0  0  0
 18 19  2  0  0  0  0
 18 22  1  0  0  0  0
 19 20  1  0  0  0  0
 19 41  1  0  0  0  0
 20 21  1  0  0  0  0
 21 22  2  0  0  0  0
 21 27  1  0  0  0  0
 22 23  1  0  0  0  0
 23 24  1  0  0  0  0
 23 25  2  0  0  0  0
 24 42  1  0  0  0  0
 24 43  1  0  0  0  0
 24 44  1  0  0  0  0
 25 26  1  0  0  0  0
 25 45  1  0  0  0  0
 26 27  2  0  0  0  0
 26 46  1  0  0  0  0
 27 47  1  0  0  0  0
M  END
$$$$
