0CP
 OpenBabel04121316033D

 47 50  0  0  1  0  0  0  0  0999 V2000
    1.0244    0.0353   -0.0834 C   0  0  0  0  0  0  0  0  0  0  0  0
    2.4486    0.0696   -0.1125 O   0  0  0  0  0  0  0  0  0  0  0  0
    2.9994   -0.8631    0.7240 C   0  0  0  0  0  0  0  0  0  0  0  0
    3.8984   -0.3647    1.6752 C   0  0  0  0  0  0  0  0  0  0  0  0
    4.5852   -1.2313    2.5221 C   0  0  0  0  0  0  0  0  0  0  0  0
    4.3146   -2.5973    2.5001 C   0  0  0  0  0  0  0  0  0  0  0  0
    3.2787   -3.0370    1.6876 C   0  0  0  0  0  0  0  0  0  0  0  0
    2.7516   -2.2360    0.6592 C   0  0  0  0  0  0  0  0  0  0  0  0
    2.1150   -2.7990   -0.4620 O   0  0  0  0  0  0  0  0  0  0  0  0
    1.4098   -3.9720   -0.0836 C   0  0  1  0  0  0  0  0  0  0  0  0
    2.1183   -4.5849    0.4518 H   0  0  0  0  0  0  0  0  0  0  0  0
    0.1199   -3.4796    0.5885 C   0  0  0  0  0  0  0  0  0  0  0  0
   -0.9531   -4.4182    0.0621 C   0  0  1  0  0  0  0  0  0  0  0  0
   -1.9615   -4.0190    0.1757 H   0  0  0  0  0  0  0  0  0  0  0  0
   -0.5010   -4.6472   -1.3850 C   0  0  0  0  0  0  0  0  0  0  0  0
    0.8855   -5.1097   -0.9886 C   0  0  2  0  0  0  0  0  0  0  0  0
    1.5494   -5.4279   -1.7951 H   0  0  0  0  0  0  0  0  0  0  0  0
    0.5452   -6.2642    0.0317 C   0  0  0  0  0  0  0  0  0  0  0  0
   -0.7048   -5.7476    0.7625 C   0  0  0  0  0  0  0  0  0  0  0  0
    5.2755   -3.5975    3.1364 C   0  0  0  0  0  0  0  0  0  0  0  0
    5.0781   -5.0859    2.7749 C   0  0  0  0  0  0  0  0  0  0  0  0
    5.3345   -5.3334    1.3740 N   0  0  0  0  0  0  0  0  0  0  0  0
    6.4308   -4.8295    0.7476 C   0  0  0  0  0  0  0  0  0  0  0  0
    6.9008   -5.3444   -0.2699 O   0  0  0  0  0  0  0  0  0  0  0  0
    6.8712   -3.6363    1.2319 N   0  0  0  0  0  0  0  0  0  0  0  0
    6.6907   -3.2731    2.6220 C   0  0  0  0  0  0  0  0  0  0  0  0
    0.6484    0.8127   -0.7513 H   0  0  0  0  0  0  0  0  0  0  0  0
    0.6347    0.2203    0.9257 H   0  0  0  0  0  0  0  0  0  0  0  0
    0.6401   -0.8975   -0.4824 H   0  0  0  0  0  0  0  0  0  0  0  0
    4.1242    0.6964    1.7192 H   0  0  0  0  0  0  0  0  0  0  0  0
    5.3873   -0.8361    3.1388 H   0  0  0  0  0  0  0  0  0  0  0  0
    2.9972   -4.0683    1.8264 H   0  0  0  0  0  0  0  0  0  0  0  0
   -0.1546   -2.4805    0.2562 H   0  0  0  0  0  0  0  0  0  0  0  0
    0.2172   -3.4405    1.6761 H   0  0  0  0  0  0  0  0  0  0  0  0
   -0.4674   -3.7388   -1.9955 H   0  0  0  0  0  0  0  0  0  0  0  0
   -1.0826   -5.4191   -1.8992 H   0  0  0  0  0  0  0  0  0  0  0  0
    1.3544   -6.4403    0.7543 H   0  0  0  0  0  0  0  0  0  0  0  0
    0.3286   -7.2143   -0.4593 H   0  0  0  0  0  0  0  0  0  0  0  0
   -0.5223   -5.6024    1.8362 H   0  0  0  0  0  0  0  0  0  0  0  0
   -1.5484   -6.4310    0.6513 H   0  0  0  0  0  0  0  0  0  0  0  0
    5.2120   -3.4946    4.2258 H   0  0  0  0  0  0  0  0  0  0  0  0
    4.0904   -5.4810    3.0362 H   0  0  0  0  0  0  0  0  0  0  0  0
    5.8159   -5.6987    3.3080 H   0  0  0  0  0  0  0  0  0  0  0  0
    4.6679   -5.8116    0.7791 H   0  0  0  0  0  0  0  0  0  0  0  0
    6.8785   -2.9028    0.5276 H   0  0  0  0  0  0  0  0  0  0  0  0
    6.9687   -2.2214    2.7320 H   0  0  0  0  0  0  0  0  0  0  0  0
    7.4378   -3.8552    3.1667 H   0  0  0  0  0  0  0  0  0  0  0  0
  1  2  1  0  0  0  0
  1 27  1  0  0  0  0
  1 28  1  0  0  0  0
  1 29  1  0  0  0  0
  2  3  1  0  0  0  0
  3  4  2  0  0  0  0
  3  8  1  0  0  0  0
  4  5  1  0  0  0  0
  4 30  1  0  0  0  0
  5  6  2  0  0  0  0
  5 31  1  0  0  0  0
  6  7  1  0  0  0  0
  6 20  1  0  0  0  0
  7  8  2  0  0  0  0
  7 32  1  0  0  0  0
  8  9  1  0  0  0  0
  9 10  1  0  0  0  0
 10 12  1  0  0  0  0
 10 16  1  0  0  0  0
 10 11  1  1  0  0  0
 12 13  1  0  0  0  0
 12 33  1  0  0  0  0
 12 34  1  0  0  0  0
 13 15  1  0  0  0  0
 13 19  1  0  0  0  0
 13 14  1  1  0  0  0
 15 16  1  0  0  0  0
 15 35  1  0  0  0  0
 15 36  1  0  0  0  0
 16 18  1  0  0  0  0
 16 17  1  6  0  0  0
 18 19  1  0  0  0  0
 18 37  1  0  0  0  0
 18 38  1  0  0  0  0
 19 39  1  0  0  0  0
 19 40  1  0  0  0  0
 20 21  1  0  0  0  0
 20 26  1  0  0  0  0
 20 41  1  0  0  0  0
 21 22  1  0  0  0  0
 21 42  1  0  0  0  0
 21 43  1  0  0  0  0
 22 23  1  0  0  0  0
 22 44  1  0  0  0  0
 23 24  2  0  0  0  0
 23 25  1  0  0  0  0
 25 26  1  0  0  0  0
 25 45  1  0  0  0  0
 26 46  1  0  0  0  0
 26 47  1  0  0  0  0
M  END
$$$$
