0DI
 OpenBabel04121316033D

 48 50  0  0  1  0  0  0  0  0999 V2000
    0.9087    0.0462    0.2274 F   0  0  0  0  0  0  0  0  0  0  0  0
    2.2451    0.0543    0.1686 C   0  0  0  0  0  0  0  0  0  0  0  0
    2.9399    1.2434    0.0365 C   0  0  0  0  0  0  0  0  0  0  0  0
    4.3314    1.2170   -0.0511 C   0  0  0  0  0  0  0  0  0  0  0  0
    4.9867    0.0024   -0.2149 C   0  0  0  0  0  0  0  0  0  0  0  0
    4.2620   -1.1831   -0.1736 C   0  0  0  0  0  0  0  0  0  0  0  0
    2.9213   -1.1456    0.2032 C   0  0  0  0  0  0  0  0  0  0  0  0
    4.9337   -2.4416   -0.5546 C   0  0  0  0  0  0  0  0  0  0  0  0
    6.1341   -2.5432   -0.4290 O   0  0  0  0  0  0  0  0  0  0  0  0
    4.1526   -3.5209   -0.9943 N   0  0  0  0  0  0  0  0  0  0  0  0
    2.7512   -3.5656   -1.4227 C   0  0  0  0  0  0  0  0  0  0  0  0
    2.5558   -4.8222   -2.2752 C   0  0  0  0  0  0  0  0  0  0  0  0
    2.8370   -6.0380   -1.4992 N   0  0  0  0  0  0  0  0  0  0  0  0
    4.2117   -6.0489   -1.0330 C   0  0  0  0  0  0  0  0  0  0  0  0
    4.5116   -4.7274   -0.3277 C   0  0  0  0  0  0  0  0  0  0  0  0
    1.8340   -6.9497   -1.2175 C   0  0  0  0  0  0  0  0  0  0  0  0
    0.7057   -6.7726   -1.7017 O   0  0  0  0  0  0  0  0  0  0  0  0
    2.0911   -8.2495   -0.3536 C   0  0  1  0  0  0  0  0  0  0  0  0
    2.9300   -8.7991   -0.7929 H   0  0  0  0  0  0  0  0  0  0  0  0
    2.2636   -8.0613    1.1857 C   0  0  0  0  0  0  0  0  0  0  0  0
    3.5336   -7.4187    1.7226 C   0  0  0  0  0  0  0  0  0  0  0  0
    3.5057   -6.0848    2.1471 C   0  0  0  0  0  0  0  0  0  0  0  0
    4.7038   -5.3700    2.3669 C   0  0  0  0  0  0  0  0  0  0  0  0
    5.9235   -5.9475    1.9949 C   0  0  0  0  0  0  0  0  0  0  0  0
    5.9627   -7.2940    1.6499 C   0  0  0  0  0  0  0  0  0  0  0  0
    4.7846   -8.0564    1.6212 C   0  0  0  0  0  0  0  0  0  0  0  0
    7.4097   -7.9392    0.9684 Cl  0  0  0  0  0  0  0  0  0  0  0  0
    0.8802   -9.1361   -0.5183 N   0  0  0  0  0  0  0  0  0  0  0  0
    6.3063    0.0190   -0.4439 F   0  0  0  0  0  0  0  0  0  0  0  0
    2.3940    2.1783    0.0210 H   0  0  0  0  0  0  0  0  0  0  0  0
    4.9128    2.1310   -0.0452 H   0  0  0  0  0  0  0  0  0  0  0  0
    2.3587   -2.0264    0.4728 H   0  0  0  0  0  0  0  0  0  0  0  0
    2.5144   -2.6491   -1.9601 H   0  0  0  0  0  0  0  0  0  0  0  0
    2.1051   -3.6578   -0.5347 H   0  0  0  0  0  0  0  0  0  0  0  0
    3.3128   -4.8004   -3.0654 H   0  0  0  0  0  0  0  0  0  0  0  0
    1.5581   -4.8325   -2.7023 H   0  0  0  0  0  0  0  0  0  0  0  0
    4.9003   -6.1426   -1.8715 H   0  0  0  0  0  0  0  0  0  0  0  0
    4.3785   -6.9363   -0.4484 H   0  0  0  0  0  0  0  0  0  0  0  0
    5.5392   -4.6746    0.0101 H   0  0  0  0  0  0  0  0  0  0  0  0
    3.8116   -4.6005    0.4914 H   0  0  0  0  0  0  0  0  0  0  0  0
    2.2085   -9.0474    1.6667 H   0  0  0  0  0  0  0  0  0  0  0  0
    1.3963   -7.4990    1.5576 H   0  0  0  0  0  0  0  0  0  0  0  0
    2.5712   -5.5230    2.0370 H   0  0  0  0  0  0  0  0  0  0  0  0
    4.6620   -4.2789    2.4646 H   0  0  0  0  0  0  0  0  0  0  0  0
    6.7720   -5.2972    1.7539 H   0  0  0  0  0  0  0  0  0  0  0  0
    4.8412   -9.1015    1.3330 H   0  0  0  0  0  0  0  0  0  0  0  0
    0.6989   -9.2487   -1.5206 H   0  0  0  0  0  0  0  0  0  0  0  0
    0.0611   -8.5963   -0.2148 H   0  0  0  0  0  0  0  0  0  0  0  0
  1  2  1  0  0  0  0
  2  3  2  0  0  0  0
  2  7  1  0  0  0  0
  3  4  1  0  0  0  0
  3 30  1  0  0  0  0
  4  5  2  0  0  0  0
  4 31  1  0  0  0  0
  5  6  1  0  0  0  0
  5 29  1  0  0  0  0
  6  7  2  0  0  0  0
  6  8  1  0  0  0  0
  7 32  1  0  0  0  0
  8  9  2  0  0  0  0
  8 10  1  0  0  0  0
 10 11  1  0  0  0  0
 10 15  1  0  0  0  0
 11 12  1  0  0  0  0
 11 33  1  0  0  0  0
 11 34  1  0  0  0  0
 12 13  1  0  0  0  0
 12 35  1  0  0  0  0
 12 36  1  0  0  0  0
 13 14  1  0  0  0  0
 13 16  1  0  0  0  0
 14 15  1  0  0  0  0
 14 37  1  0  0  0  0
 14 38  1  0  0  0  0
 15 39  1  0  0  0  0
 15 40  1  0  0  0  0
 16 17  2  0  0  0  0
 16 18  1  0  0  0  0
 18 19  1  6  0  0  0
 18 20  1  0  0  0  0
 18 28  1  0  0  0  0
 20 21  1  0  0  0  0
 20 41  1  0  0  0  0
 20 42  1  0  0  0  0
 21 22  2  0  0  0  0
 21 26  1  0  0  0  0
 22 23  1  0  0  0  0
 22 43  1  0  0  0  0
 23 24  2  0  0  0  0
 23 44  1  0  0  0  0
 24 25  1  0  0  0  0
 24 45  1  0  0  0  0
 25 26  2  0  0  0  0
 25 27  1  0  0  0  0
 26 46  1  0  0  0  0
 28 47  1  0  0  0  0
 28 48  1  0  0  0  0
M  END
$$$$
