0LI
 OpenBabel04121316033D

 66 70  0  0  0  0  0  0  0  0999 V2000
    1.0283    0.0548    0.0140 C   0  0  0  0  0  0  0  0  0  0  0  0
    2.4931    0.0511   -0.0125 N   0  0  0  0  0  0  0  0  0  0  0  0
    2.9751   -1.3009   -0.3987 C   0  0  0  0  0  0  0  0  0  0  0  0
    2.6139   -1.6773   -1.8546 C   0  0  0  0  0  0  0  0  0  0  0  0
    3.1188   -0.6780   -2.8192 N   0  0  0  0  0  0  0  0  0  0  0  0
    2.5541    0.6462   -2.4555 C   0  0  0  0  0  0  0  0  0  0  0  0
    2.9393    1.0504   -1.0086 C   0  0  0  0  0  0  0  0  0  0  0  0
    4.5954   -0.6499   -2.7273 C   0  0  0  0  0  0  0  0  0  0  0  0
    5.1504    0.2685   -3.7719 C   0  0  0  0  0  0  0  0  0  0  0  0
    5.1653    1.6638   -3.5260 C   0  0  0  0  0  0  0  0  0  0  0  0
    5.1522    2.5713   -4.5767 C   0  0  0  0  0  0  0  0  0  0  0  0
    5.4228    2.0981   -5.8470 C   0  0  0  0  0  0  0  0  0  0  0  0
    5.6945    0.7376   -6.0188 C   0  0  0  0  0  0  0  0  0  0  0  0
    5.4354   -0.2113   -5.0380 C   0  0  0  0  0  0  0  0  0  0  0  0
    5.4455   -1.6614   -5.4576 C   0  0  0  0  0  0  0  0  0  0  0  0
    4.5706   -1.9163   -6.4704 F   0  0  0  0  0  0  0  0  0  0  0  0
    6.6755   -2.0272   -5.9167 F   0  0  0  0  0  0  0  0  0  0  0  0
    5.1497   -2.5844   -4.5042 F   0  0  0  0  0  0  0  0  0  0  0  0
    5.3997    2.9802   -6.9389 N   0  0  0  0  0  0  0  0  0  0  0  0
    5.6702    2.5738   -8.2320 C   0  0  0  0  0  0  0  0  0  0  0  0
    5.9746    1.4670   -8.6541 O   0  0  0  0  0  0  0  0  0  0  0  0
    5.6284    3.6084   -9.2382 C   0  0  0  0  0  0  0  0  0  0  0  0
    6.8354    4.0311   -9.7910 C   0  0  0  0  0  0  0  0  0  0  0  0
    6.8137    4.9673  -10.8128 C   0  0  0  0  0  0  0  0  0  0  0  0
    5.6046    5.5763  -11.1620 C   0  0  0  0  0  0  0  0  0  0  0  0
    4.4067    5.0919  -10.6114 C   0  0  0  0  0  0  0  0  0  0  0  0
    4.4038    4.0443   -9.7097 C   0  0  0  0  0  0  0  0  0  0  0  0
    3.1627    5.7005  -10.9288 C   0  0  0  0  0  0  0  0  0  0  0  0
    2.1469    6.2644  -11.1789 C   0  0  0  0  0  0  0  0  0  0  0  0
    0.9679    6.9754  -11.4772 C   0  0  0  0  0  0  0  0  0  0  0  0
    0.8042    8.3374  -11.5328 C   0  0  0  0  0  0  0  0  0  0  0  0
   -0.4881    8.6602  -11.8532 N   0  0  0  0  0  0  0  0  0  0  0  0
   -1.1024    7.5022  -11.9929 C   0  0  0  0  0  0  0  0  0  0  0  0
   -0.2512    6.4303  -11.7724 N   0  0  0  0  0  0  0  0  0  0  0  0
   -0.5607    5.0943  -11.8315 N   0  0  0  0  0  0  0  0  0  0  0  0
   -1.8012    4.8826  -12.1373 C   0  0  0  0  0  0  0  0  0  0  0  0
   -2.8248    5.9212  -12.4049 C   0  0  0  0  0  0  0  0  0  0  0  0
   -2.4404    7.2000  -12.3200 C   0  0  0  0  0  0  0  0  0  0  0  0
    5.5934    6.7606  -12.0824 C   0  0  0  0  0  0  0  0  0  0  0  0
    0.6624   -0.6822    0.7296 H   0  0  0  0  0  0  0  0  0  0  0  0
    0.5682   -0.1818   -0.9503 H   0  0  0  0  0  0  0  0  0  0  0  0
    0.6627    1.0427    0.3039 H   0  0  0  0  0  0  0  0  0  0  0  0
    2.5893   -2.0622    0.2858 H   0  0  0  0  0  0  0  0  0  0  0  0
    4.0653   -1.3506   -0.2658 H   0  0  0  0  0  0  0  0  0  0  0  0
    1.5250   -1.7656   -1.9589 H   0  0  0  0  0  0  0  0  0  0  0  0
    2.9997   -2.6730   -2.1001 H   0  0  0  0  0  0  0  0  0  0  0  0
    1.4661    0.6417   -2.5841 H   0  0  0  0  0  0  0  0  0  0  0  0
    2.8396    1.4192   -3.1721 H   0  0  0  0  0  0  0  0  0  0  0  0
    2.5533    2.0501   -0.7826 H   0  0  0  0  0  0  0  0  0  0  0  0
    4.0241    1.1658   -0.8975 H   0  0  0  0  0  0  0  0  0  0  0  0
    4.9816   -1.6635   -2.8093 H   0  0  0  0  0  0  0  0  0  0  0  0
    5.0064   -0.3387   -1.7675 H   0  0  0  0  0  0  0  0  0  0  0  0
    5.0099    2.0457   -2.5214 H   0  0  0  0  0  0  0  0  0  0  0  0
    4.9080    3.6113   -4.3772 H   0  0  0  0  0  0  0  0  0  0  0  0
    6.0620    0.3416   -6.9547 H   0  0  0  0  0  0  0  0  0  0  0  0
    5.1528    3.9492   -6.7602 H   0  0  0  0  0  0  0  0  0  0  0  0
    7.7729    3.6088   -9.4384 H   0  0  0  0  0  0  0  0  0  0  0  0
    7.7387    5.2309  -11.3166 H   0  0  0  0  0  0  0  0  0  0  0  0
    3.4752    3.5816   -9.3851 H   0  0  0  0  0  0  0  0  0  0  0  0
    1.5569    9.0961  -11.3553 H   0  0  0  0  0  0  0  0  0  0  0  0
   -2.1655    3.8431  -12.2126 H   0  0  0  0  0  0  0  0  0  0  0  0
   -3.8313    5.6182  -12.6541 H   0  0  0  0  0  0  0  0  0  0  0  0
   -3.1266    8.0178  -12.4970 H   0  0  0  0  0  0  0  0  0  0  0  0
    6.6013    7.0089  -12.4235 H   0  0  0  0  0  0  0  0  0  0  0  0
    5.1992    7.6323  -11.5467 H   0  0  0  0  0  0  0  0  0  0  0  0
    4.9692    6.5584  -12.9573 H   0  0  0  0  0  0  0  0  0  0  0  0
  1  2  1  0  0  0  0
  1 40  1  0  0  0  0
  1 41  1  0  0  0  0
  1 42  1  0  0  0  0
  2  3  1  0  0  0  0
  2  7  1  0  0  0  0
  3  4  1  0  0  0  0
  3 43  1  0  0  0  0
  3 44  1  0  0  0  0
  4  5  1  0  0  0  0
  4 45  1  0  0  0  0
  4 46  1  0  0  0  0
  5  6  1  0  0  0  0
  5  8  1  0  0  0  0
  6  7  1  0  0  0  0
  6 47  1  0  0  0  0
  6 48  1  0  0  0  0
  7 49  1  0  0  0  0
  7 50  1  0  0  0  0
  8  9  1  0  0  0  0
  8 51  1  0  0  0  0
  8 52  1  0  0  0  0
  9 10  2  0  0  0  0
  9 14  1  0  0  0  0
 10 11  1  0  0  0  0
 10 53  1  0  0  0  0
 11 12  2  0  0  0  0
 11 54  1  0  0  0  0
 12 13  1  0  0  0  0
 12 19  1  0  0  0  0
 13 14  2  0  0  0  0
 13 55  1  0  0  0  0
 14 15  1  0  0  0  0
 15 16  1  0  0  0  0
 15 17  1  0  0  0  0
 15 18  1  0  0  0  0
 19 20  1  0  0  0  0
 19 56  1  0  0  0  0
 20 21  2  0  0  0  0
 20 22  1  0  0  0  0
 22 23  2  0  0  0  0
 22 27  1  0  0  0  0
 23 24  1  0  0  0  0
 23 57  1  0  0  0  0
 24 25  2  0  0  0  0
 24 58  1  0  0  0  0
 25 26  1  0  0  0  0
 25 39  1  0  0  0  0
 26 27  2  0  0  0  0
 26 28  1  0  0  0  0
 27 59  1  0  0  0  0
 28 29  3  0  0  0  0
 29 30  1  0  0  0  0
 30 31  2  0  0  0  0
 30 34  1  0  0  0  0
 31 32  1  0  0  0  0
 31 60  1  0  0  0  0
 32 33  2  0  0  0  0
 33 34  1  0  0  0  0
 33 38  1  0  0  0  0
 34 35  1  0  0  0  0
 35 36  2  0  0  0  0
 36 37  1  0  0  0  0
 36 61  1  0  0  0  0
 37 38  2  0  0  0  0
 37 62  1  0  0  0  0
 38 63  1  0  0  0  0
 39 64  1  0  0  0  0
 39 65  1  0  0  0  0
 39 66  1  0  0  0  0
M  END
$$$$
