0PJ
 OpenBabel04121316033D

 66 66  0  0  1  0  0  0  0  0999 V2000
    0.9586   -1.0922    1.3478 C   0  0  0  0  0  0  0  0  0  0  0  0
    1.0581   -2.4489    0.7063 C   0  0  0  0  0  0  0  0  0  0  0  0
    0.2593   -2.3976   -0.5472 C   0  0  0  0  0  0  0  0  0  0  0  0
   -1.3084   -2.4111   -0.6808 C   0  0  1  0  0  0  0  0  0  0  0  0
   -1.6678   -3.3930   -0.4359 H   0  0  0  0  0  0  0  0  0  0  0  0
   -2.0330   -1.4188    0.2350 C   0  0  0  0  0  0  0  0  0  0  0  0
   -2.5471   -0.3855   -0.1980 O   0  0  0  0  0  0  0  0  0  0  0  0
   -2.0874   -1.6451    1.6074 N   0  0  0  0  0  0  0  0  0  0  0  0
   -1.3202   -2.5752    2.5017 C   0  0  2  0  0  0  0  0  0  0  0  0
   -0.4920   -2.7656    1.9259 H   0  0  0  0  0  0  0  0  0  0  0  0
   -1.6155   -4.1083    2.6679 C   0  0  0  0  0  0  0  0  0  0  0  0
   -1.1760   -4.8051    3.5382 O   0  0  0  0  0  0  0  0  0  0  0  0
   -2.2509   -4.6684    1.6140 O   0  0  0  0  0  0  0  0  0  0  0  0
   -0.5874   -1.9004    3.7029 C   0  0  0  0  0  0  0  0  0  0  0  0
   -1.5996   -1.4714    4.7171 C   0  0  0  0  0  0  0  0  0  0  0  0
   -2.4674   -2.6679    5.0221 C   0  0  0  0  0  0  0  0  0  0  0  0
   -0.8986   -0.9546    5.9543 C   0  0  0  0  0  0  0  0  0  0  0  0
   -1.8282   -2.4036   -2.1161 N   0  0  0  0  0  0  0  0  0  0  0  0
   -1.3230   -3.8456   -2.8939 P   0  0  2  0  0  0  0  0  0  0  0  0
    0.1326   -3.5467   -2.4736 O   0  0  0  0  0  0  0  0  0  0  0  0
   -0.9174   -3.5502   -4.7307 C   0  0  0  0  0  0  0  0  0  0  0  0
    0.5010   -3.2609   -4.8788 N   0  0  0  0  0  0  0  0  0  0  0  0
    1.0725   -3.1086   -6.0941 C   0  0  0  0  0  0  0  0  0  0  0  0
    0.4529   -3.2111   -7.1451 O   0  0  0  0  0  0  0  0  0  0  0  0
    2.3933   -2.8316   -5.9849 O   0  0  0  0  0  0  0  0  0  0  0  0
    2.9934   -2.6216   -7.2631 C   0  0  0  0  0  0  0  0  0  0  0  0
    4.4559   -2.2992   -7.1069 C   0  0  0  0  0  0  0  0  0  0  0  0
    4.8698   -1.0072   -6.7565 C   0  0  0  0  0  0  0  0  0  0  0  0
    6.2233   -0.6702   -6.7943 C   0  0  0  0  0  0  0  0  0  0  0  0
    7.1784   -1.6518   -7.0507 C   0  0  0  0  0  0  0  0  0  0  0  0
    6.7812   -2.9705   -7.2592 C   0  0  0  0  0  0  0  0  0  0  0  0
    5.4250   -3.2825   -7.3436 C   0  0  0  0  0  0  0  0  0  0  0  0
   -2.9537   -4.1804   -3.3647 O   0  0  0  0  0  0  0  0  0  0  0  0
    2.5266   -2.7656    0.6509 C   0  0  0  0  0  0  0  0  0  0  0  0
   -0.0536   -0.7283    1.4585 H   0  0  0  0  0  0  0  0  0  0  0  0
    1.4037   -0.3034    0.7493 H   0  0  0  0  0  0  0  0  0  0  0  0
    1.4539   -1.1523    2.3120 H   0  0  0  0  0  0  0  0  0  0  0  0
    0.7459   -3.4031    1.1734 H   0  0  0  0  0  0  0  0  0  0  0  0
    0.5784   -3.4131   -0.7696 H   0  0  0  0  0  0  0  0  0  0  0  0
    0.6733   -1.6417   -1.2221 H   0  0  0  0  0  0  0  0  0  0  0  0
   -2.2763   -0.7352    2.0263 H   0  0  0  0  0  0  0  0  0  0  0  0
   -2.2776   -4.0610    0.8754 H   0  0  0  0  0  0  0  0  0  0  0  0
   -0.0377   -0.9767    3.4838 H   0  0  0  0  0  0  0  0  0  0  0  0
    0.1836   -2.5765    4.1144 H   0  0  0  0  0  0  0  0  0  0  0  0
   -2.1855   -0.6629    4.2658 H   0  0  0  0  0  0  0  0  0  0  0  0
   -1.8272   -3.4943    5.3544 H   0  0  0  0  0  0  0  0  0  0  0  0
   -3.0203   -2.9708    4.1279 H   0  0  0  0  0  0  0  0  0  0  0  0
   -3.2205   -2.4651    5.7683 H   0  0  0  0  0  0  0  0  0  0  0  0
   -0.2263   -1.7131    6.3701 H   0  0  0  0  0  0  0  0  0  0  0  0
   -1.6548   -0.6966    6.6953 H   0  0  0  0  0  0  0  0  0  0  0  0
   -0.3004   -0.0637    5.7302 H   0  0  0  0  0  0  0  0  0  0  0  0
   -1.4734   -1.5617   -2.5636 H   0  0  0  0  0  0  0  0  0  0  0  0
   -1.5137   -2.7415   -5.1491 H   0  0  0  0  0  0  0  0  0  0  0  0
   -1.1087   -4.5011   -5.2407 H   0  0  0  0  0  0  0  0  0  0  0  0
    1.0678   -3.2141   -4.0296 H   0  0  0  0  0  0  0  0  0  0  0  0
    2.5007   -1.7891   -7.7839 H   0  0  0  0  0  0  0  0  0  0  0  0
    2.8807   -3.5208   -7.8836 H   0  0  0  0  0  0  0  0  0  0  0  0
    4.1379   -0.2530   -6.4763 H   0  0  0  0  0  0  0  0  0  0  0  0
    6.5339    0.3569   -6.6217 H   0  0  0  0  0  0  0  0  0  0  0  0
    8.2328   -1.3909   -7.0785 H   0  0  0  0  0  0  0  0  0  0  0  0
    7.5258   -3.7535   -7.3714 H   0  0  0  0  0  0  0  0  0  0  0  0
    5.1268   -4.2954   -7.6045 H   0  0  0  0  0  0  0  0  0  0  0  0
   -3.0514   -5.0324   -3.8328 H   0  0  0  0  0  0  0  0  0  0  0  0
    3.0581   -1.9193    0.2287 H   0  0  0  0  0  0  0  0  0  0  0  0
    2.7351   -3.6858    0.1024 H   0  0  0  0  0  0  0  0  0  0  0  0
    2.8383   -2.9229    1.6940 H   0  0  0  0  0  0  0  0  0  0  0  0
  1  2  1  0  0  0  0
  1 35  1  0  0  0  0
  1 36  1  0  0  0  0
  1 37  1  0  0  0  0
  2  3  1  0  0  0  0
  2 34  1  0  0  0  0
  2 38  1  0  0  0  0
  3  4  1  0  0  0  0
  3 39  1  0  0  0  0
  3 40  1  0  0  0  0
  4  5  1  1  0  0  0
  4  6  1  0  0  0  0
  4 18  1  0  0  0  0
  6  7  2  0  0  0  0
  6  8  1  0  0  0  0
  8 41  1  0  0  0  0
  9 11  1  0  0  0  0
  9 14  1  0  0  0  0
  9 10  1  6  0  0  0
  9  8  1  0  0  0  0
 11 12  2  0  0  0  0
 11 13  1  0  0  0  0
 13 42  1  0  0  0  0
 14 15  1  0  0  0  0
 14 43  1  0  0  0  0
 14 44  1  0  0  0  0
 15 16  1  0  0  0  0
 15 17  1  0  0  0  0
 15 45  1  0  0  0  0
 16 46  1  0  0  0  0
 16 47  1  0  0  0  0
 16 48  1  0  0  0  0
 17 49  1  0  0  0  0
 17 50  1  0  0  0  0
 17 51  1  0  0  0  0
 18 52  1  0  0  0  0
 19 21  1  6  0  0  0
 19 33  1  0  0  0  0
 19 20  2  0  0  0  0
 19 18  1  0  0  0  0
 21 22  1  0  0  0  0
 21 53  1  0  0  0  0
 21 54  1  0  0  0  0
 22 23  1  0  0  0  0
 22 55  1  0  0  0  0
 23 24  2  0  0  0  0
 23 25  1  0  0  0  0
 25 26  1  0  0  0  0
 26 27  1  0  0  0  0
 26 56  1  0  0  0  0
 26 57  1  0  0  0  0
 27 28  2  0  0  0  0
 27 32  1  0  0  0  0
 28 29  1  0  0  0  0
 28 58  1  0  0  0  0
 29 30  2  0  0  0  0
 29 59  1  0  0  0  0
 30 31  1  0  0  0  0
 30 60  1  0  0  0  0
 31 32  2  0  0  0  0
 31 61  1  0  0  0  0
 32 62  1  0  0  0  0
 33 63  1  0  0  0  0
 34 64  1  0  0  0  0
 34 65  1  0  0  0  0
 34 66  1  0  0  0  0
M  END
$$$$
