0PQ
 OpenBabel04121316033D

 66 68  0  0  1  0  0  0  0  0999 V2000
    4.6830    5.2255    1.5666 O   0  0  0  0  0  0  0  0  0  0  0  0
    4.3703    5.1153    2.7404 C   0  0  0  0  0  0  0  0  0  0  0  0
    5.2885    4.2424    3.7113 C   0  0  1  0  0  0  0  0  0  0  0  0
    5.3785    4.9515    4.5416 H   0  0  0  0  0  0  0  0  0  0  0  0
    4.3468    2.9973    3.8176 C   0  0  0  0  0  0  0  0  0  0  0  0
    2.6652    3.5925    4.2261 P   0  0  1  0  0  0  0  0  0  0  0  0
    3.1323    4.9648    4.6223 O   0  0  0  0  0  0  0  0  0  0  0  0
    2.6949    2.1464    2.9688 C   0  0  2  0  0  0  0  0  0  0  0  0
    3.4196    1.3765    3.3865 H   0  0  0  0  0  0  0  0  0  0  0  0
    3.1131    2.4699    1.4125 C   0  0  0  0  0  0  0  0  0  0  0  0
    4.4521    3.1830    0.6015 C   0  0  0  0  0  0  0  0  0  0  0  0
    4.1834    4.1941   -0.3790 C   0  0  0  0  0  0  0  0  0  0  0  0
    5.1413    5.4261   -0.4930 C   0  0  0  0  0  0  0  0  0  0  0  0
    6.3747    5.8421    0.4463 C   0  0  0  0  0  0  0  0  0  0  0  0
    6.7472    4.8058    1.3101 C   0  0  0  0  0  0  0  0  0  0  0  0
    5.8512    3.3506    1.1980 C   0  0  0  0  0  0  0  0  0  0  0  0
    1.7632    1.0333    3.1802 N   0  0  0  0  0  0  0  0  0  0  0  0
    1.0754    4.1551    4.6123 O   0  0  0  0  0  0  0  0  0  0  0  0
    6.9387    3.6067    3.4894 C   0  0  0  0  0  0  0  0  0  0  0  0
    7.4483    2.9468    4.6511 C   0  0  0  0  0  0  0  0  0  0  0  0
    6.6409    2.7438    5.7351 C   0  0  0  0  0  0  0  0  0  0  0  0
    7.2319    2.3449    6.8618 C   0  0  0  0  0  0  0  0  0  0  0  0
    8.5928    2.0737    6.8043 C   0  0  0  0  0  0  0  0  0  0  0  0
    9.3609    2.1219    5.6288 C   0  0  0  0  0  0  0  0  0  0  0  0
    8.7935    2.6254    4.5213 C   0  0  0  0  0  0  0  0  0  0  0  0
    3.1949    5.6548    2.4416 N   0  0  0  0  0  0  0  0  0  0  0  0
    2.6271    6.1945    1.0050 C   0  0  2  0  0  0  0  0  0  0  0  0
    2.2851    5.3364    0.4105 H   0  0  0  0  0  0  0  0  0  0  0  0
    3.2719    7.5862    0.0647 C   0  0  0  0  0  0  0  0  0  0  0  0
    2.4980    8.4500   -0.3616 O   0  0  0  0  0  0  0  0  0  0  0  0
    4.5796    7.9807   -0.0699 O   0  0  0  0  0  0  0  0  0  0  0  0
    1.1747    6.5324    1.3223 C   0  0  0  0  0  0  0  0  0  0  0  0
    1.2810    7.5899    2.3570 C   0  0  0  0  0  0  0  0  0  0  0  0
    2.4906    8.2975    2.5886 C   0  0  0  0  0  0  0  0  0  0  0  0
    2.6869    9.1265    3.6381 C   0  0  0  0  0  0  0  0  0  0  0  0
    1.5920    9.3746    4.4131 C   0  0  0  0  0  0  0  0  0  0  0  0
    0.3490    8.7763    4.1368 C   0  0  0  0  0  0  0  0  0  0  0  0
    0.2055    7.8025    3.1698 C   0  0  0  0  0  0  0  0  0  0  0  0
    4.5130    2.3451    4.6743 H   0  0  0  0  0  0  0  0  0  0  0  0
    4.6854    2.3491    3.0342 H   0  0  0  0  0  0  0  0  0  0  0  0
    2.1931    3.0046    1.1336 H   0  0  0  0  0  0  0  0  0  0  0  0
    3.1596    1.4832    0.9595 H   0  0  0  0  0  0  0  0  0  0  0  0
    3.1634    4.3801   -0.7973 H   0  0  0  0  0  0  0  0  0  0  0  0
    4.6039    6.1454   -1.1382 H   0  0  0  0  0  0  0  0  0  0  0  0
    6.7542    6.8852    0.7423 H   0  0  0  0  0  0  0  0  0  0  0  0
    7.0374    5.3846    2.3629 H   0  0  0  0  0  0  0  0  0  0  0  0
    5.9560    2.5185    1.9256 H   0  0  0  0  0  0  0  0  0  0  0  0
    2.1986    0.2670    2.6277 H   0  0  0  0  0  0  0  0  0  0  0  0
    0.9032    1.2652    2.7223 H   0  0  0  0  0  0  0  0  0  0  0  0
    1.1708    4.9105    5.2323 H   0  0  0  0  0  0  0  0  0  0  0  0
    7.8009    4.2467    3.2128 H   0  0  0  0  0  0  0  0  0  0  0  0
    7.2399    2.7844    2.7926 H   0  0  0  0  0  0  0  0  0  0  0  0
    5.6106    3.0284    5.8078 H   0  0  0  0  0  0  0  0  0  0  0  0
    6.5974    2.3336    7.7338 H   0  0  0  0  0  0  0  0  0  0  0  0
    9.0715    1.8461    7.7320 H   0  0  0  0  0  0  0  0  0  0  0  0
   10.3929    1.8299    5.5524 H   0  0  0  0  0  0  0  0  0  0  0  0
    9.3370    2.8364    3.5897 H   0  0  0  0  0  0  0  0  0  0  0  0
    2.5883    5.6861    3.2261 H   0  0  0  0  0  0  0  0  0  0  0  0
    5.3786    7.5049   -0.3762 H   0  0  0  0  0  0  0  0  0  0  0  0
    0.6331    5.6412    1.7184 H   0  0  0  0  0  0  0  0  0  0  0  0
    0.6377    6.8248    0.4130 H   0  0  0  0  0  0  0  0  0  0  0  0
    3.4099    8.1886    2.0331 H   0  0  0  0  0  0  0  0  0  0  0  0
    3.6761    9.5463    3.7725 H   0  0  0  0  0  0  0  0  0  0  0  0
    1.7213   10.0562    5.2350 H   0  0  0  0  0  0  0  0  0  0  0  0
   -0.5271    9.0846    4.6817 H   0  0  0  0  0  0  0  0  0  0  0  0
   -0.7018    7.2204    3.0363 H   0  0  0  0  0  0  0  0  0  0  0  0
  1  2  2  0  0  0  0
  2  3  1  0  0  0  0
  2 26  1  0  0  0  0
  3  4  1  1  0  0  0
  3  5  1  0  0  0  0
  3 19  1  0  0  0  0
  5 39  1  0  0  0  0
  5 40  1  0  0  0  0
  6  5  1  1  0  0  0
  6  7  2  0  0  0  0
  6 18  1  0  0  0  0
  8 10  1  0  0  0  0
  8 17  1  0  0  0  0
  8  9  1  1  0  0  0
  8  6  1  0  0  0  0
 10 11  1  0  0  0  0
 10 41  1  0  0  0  0
 10 42  1  0  0  0  0
 11 12  2  0  0  0  0
 11 16  1  0  0  0  0
 12 13  1  0  0  0  0
 12 43  1  0  0  0  0
 13 14  2  0  0  0  0
 13 44  1  0  0  0  0
 14 15  1  0  0  0  0
 14 45  1  0  0  0  0
 15 16  2  0  0  0  0
 15 46  1  0  0  0  0
 16 47  1  0  0  0  0
 17 48  1  0  0  0  0
 17 49  1  0  0  0  0
 18 50  1  0  0  0  0
 19 20  1  0  0  0  0
 19 51  1  0  0  0  0
 19 52  1  0  0  0  0
 20 21  2  0  0  0  0
 20 25  1  0  0  0  0
 21 22  1  0  0  0  0
 21 53  1  0  0  0  0
 22 23  2  0  0  0  0
 22 54  1  0  0  0  0
 23 24  1  0  0  0  0
 23 55  1  0  0  0  0
 24 25  2  0  0  0  0
 24 56  1  0  0  0  0
 25 57  1  0  0  0  0
 26 58  1  0  0  0  0
 27 29  1  0  0  0  0
 27 32  1  0  0  0  0
 27 28  1  6  0  0  0
 27 26  1  0  0  0  0
 29 30  2  0  0  0  0
 29 31  1  0  0  0  0
 31 59  1  0  0  0  0
 32 33  1  0  0  0  0
 32 60  1  0  0  0  0
 32 61  1  0  0  0  0
 33 34  2  0  0  0  0
 33 38  1  0  0  0  0
 34 35  1  0  0  0  0
 34 62  1  0  0  0  0
 35 36  2  0  0  0  0
 35 63  1  0  0  0  0
 36 37  1  0  0  0  0
 36 64  1  0  0  0  0
 37 38  2  0  0  0  0
 37 65  1  0  0  0  0
 38 66  1  0  0  0  0
M  END
$$$$
