0Q4
 OpenBabel04121316033D

129129  0  0  1  0  0  0  0  0999 V2000
    9.2821    1.8576    4.3437 C   0  0  0  0  0  0  0  0  0  0  0  0
    8.5762    2.1386    3.0326 C   0  0  0  0  0  0  0  0  0  0  0  0
    9.2735    3.2932    2.3756 C   0  0  0  0  0  0  0  0  0  0  0  0
    8.6755    3.6551    1.0453 C   0  0  0  0  0  0  0  0  0  0  0  0
    9.3819    4.8657    0.4426 C   0  0  1  0  0  0  0  0  0  0  0  0
    9.4285    5.6985    1.1566 H   0  0  0  0  0  0  0  0  0  0  0  0
   10.9035    4.4818    0.0984 C   0  0  0  0  0  0  0  0  0  0  0  0
   11.4084    4.2685   -1.0006 O   0  0  0  0  0  0  0  0  0  0  0  0
   11.7258    4.2511    1.1577 N   0  0  0  0  0  0  0  0  0  0  0  0
    8.4679    5.3247   -0.6170 N   0  0  0  0  0  0  0  0  0  0  0  0
    8.8207    6.3732   -1.4055 C   0  0  0  0  0  0  0  0  0  0  0  0
    9.9496    6.7699   -0.9623 O   0  0  0  0  0  0  0  0  0  0  0  0
    8.0446    6.8491   -3.2048 C   0  0  1  0  0  0  0  0  0  0  0  0
    7.6705    5.9872   -3.8466 H   0  0  0  0  0  0  0  0  0  0  0  0
    6.8103    6.9187   -2.5212 N   0  0  0  0  0  0  0  0  0  0  0  0
    6.1380    5.7885   -2.1217 C   0  0  0  0  0  0  0  0  0  0  0  0
    6.5436    4.6436   -1.9068 O   0  0  0  0  0  0  0  0  0  0  0  0
    4.7446    6.2071   -1.9315 C   0  0  1  0  0  0  0  0  0  0  0  0
    4.7515    7.1066   -1.3116 H   0  0  0  0  0  0  0  0  0  0  0  0
    4.2837    6.5013   -3.2755 N   0  0  0  0  0  0  0  0  0  0  0  0
    4.6761    7.5919   -4.0412 C   0  0  0  0  0  0  0  0  0  0  0  0
    5.5423    8.4125   -3.7279 O   0  0  0  0  0  0  0  0  0  0  0  0
    3.9949    7.7667   -5.3693 C   0  0  2  0  0  0  0  0  0  0  0  0
    4.1137    8.8288   -5.6264 H   0  0  0  0  0  0  0  0  0  0  0  0
    2.5501    7.3837   -5.3277 C   0  0  0  0  0  0  0  0  0  0  0  0
    1.8305    8.0485   -4.2068 C   0  0  0  0  0  0  0  0  0  0  0  0
    0.6160    7.4868   -3.8437 C   0  0  0  0  0  0  0  0  0  0  0  0
   -0.1652    8.1426   -2.9168 C   0  0  0  0  0  0  0  0  0  0  0  0
    0.3558    9.2224   -2.2063 C   0  0  0  0  0  0  0  0  0  0  0  0
    1.6570    9.6504   -2.4182 C   0  0  0  0  0  0  0  0  0  0  0  0
    2.3478    9.1425   -3.4945 C   0  0  0  0  0  0  0  0  0  0  0  0
    4.6492    6.9946   -6.3718 N   0  0  0  0  0  0  0  0  0  0  0  0
    4.6859    5.5650   -6.1762 C   0  0  0  0  0  0  0  0  0  0  0  0
    5.3958    4.9077   -7.3429 C   0  0  1  0  0  0  0  0  0  0  0  0
    4.9006    5.1236   -8.2932 H   0  0  0  0  0  0  0  0  0  0  0  0
    6.7323    5.4498   -7.4048 N   0  0  0  0  0  0  0  0  0  0  0  0
    7.1427    6.7084   -7.7600 C   0  0  0  0  0  0  0  0  0  0  0  0
    6.3930    7.6367   -8.0524 O   0  0  0  0  0  0  0  0  0  0  0  0
    8.6528    6.9581   -7.6667 C   0  0  2  0  0  0  0  0  0  0  0  0
    8.7457    7.9454   -8.1624 H   0  0  0  0  0  0  0  0  0  0  0  0
    9.5798    5.9826   -8.3617 C   0  0  0  0  0  0  0  0  0  0  0  0
    9.7994    4.6803   -7.6065 C   0  0  0  0  0  0  0  0  0  0  0  0
    9.0494    5.7663   -9.7579 C   0  0  0  0  0  0  0  0  0  0  0  0
    9.1942    7.1380   -6.3455 N   0  0  0  0  0  0  0  0  0  0  0  0
    9.1466    6.1974   -5.3029 C   0  0  0  0  0  0  0  0  0  0  0  0
    8.3545    5.2514   -5.5092 O   0  0  0  0  0  0  0  0  0  0  0  0
    9.9378    6.4166   -3.5699 C   0  0  2  0  0  0  0  0  0  0  0  0
   11.0172    6.4066   -3.7087 H   0  0  0  0  0  0  0  0  0  0  0  0
    9.4931    4.9428   -3.1034 C   0  0  0  0  0  0  0  0  0  0  0  0
    9.7645    3.6679   -3.7262 C   0  0  0  0  0  0  0  0  0  0  0  0
    9.0917    2.7340   -2.7246 C   0  0  0  0  0  0  0  0  0  0  0  0
    9.4850    1.4431   -3.1017 N   0  0  0  0  0  0  0  0  0  0  0  0
    9.1401    0.3913   -2.4017 C   0  0  0  0  0  0  0  0  0  0  0  0
    8.3731    0.4836   -1.3159 N   0  3  0  0  0  0  0  0  0  0  0  0
    8.1017   -0.3286   -0.7871 H   0  0  0  0  0  0  0  0  0  0  0  0
    8.0031    1.3751   -1.0036 H   0  0  0  0  0  0  0  0  0  0  0  0
    9.5822   -0.7715   -2.8281 N   0  0  0  0  0  0  0  0  0  0  0  0
    9.4342    7.9756   -2.5982 N   0  0  0  0  0  0  0  0  0  0  0  0
    5.4119    3.3819   -7.0690 C   0  0  0  0  0  0  0  0  0  0  0  0
    6.0859    2.5546   -8.1758 C   0  0  0  0  0  0  0  0  0  0  0  0
    7.5416    2.8669   -8.3184 C   0  0  0  0  0  0  0  0  0  0  0  0
    6.0427    1.0772   -7.8670 C   0  0  0  0  0  0  0  0  0  0  0  0
    4.0891    5.0179   -1.2980 C   0  0  0  0  0  0  0  0  0  0  0  0
    2.6459    5.3353   -1.0466 C   0  0  0  0  0  0  0  0  0  0  0  0
    2.0335    4.1379   -0.3913 C   0  0  0  0  0  0  0  0  0  0  0  0
    2.6437    3.1098   -0.1355 O   0  0  0  0  0  0  0  0  0  0  0  0
    0.7243    4.2894   -0.1288 O   0  0  0  0  0  0  0  0  0  0  0  0
    9.0301    8.1797   -4.2851 C   0  0  0  0  0  0  0  0  0  0  0  0
    8.8041    1.0182    4.8462 H   0  0  0  0  0  0  0  0  0  0  0  0
    9.2445    2.7380    4.9943 H   0  0  0  0  0  0  0  0  0  0  0  0
   10.3391    1.6124    4.1780 H   0  0  0  0  0  0  0  0  0  0  0  0
    7.5237    2.3802    3.1893 H   0  0  0  0  0  0  0  0  0  0  0  0
    8.6466    1.2629    2.3765 H   0  0  0  0  0  0  0  0  0  0  0  0
   10.2868    2.9256    2.2344 H   0  0  0  0  0  0  0  0  0  0  0  0
    9.2915    4.1840    3.0144 H   0  0  0  0  0  0  0  0  0  0  0  0
    7.6063    3.8741    1.1616 H   0  0  0  0  0  0  0  0  0  0  0  0
    8.7378    2.7927    0.3734 H   0  0  0  0  0  0  0  0  0  0  0  0
   11.4517    4.3908    2.1160 H   0  0  0  0  0  0  0  0  0  0  0  0
   12.6705    3.9520    0.9610 H   0  0  0  0  0  0  0  0  0  0  0  0
    7.8645    4.6527   -1.0588 H   0  0  0  0  0  0  0  0  0  0  0  0
    6.3374    7.7507   -2.7747 H   0  0  0  0  0  0  0  0  0  0  0  0
    3.5419    5.9114   -3.6180 H   0  0  0  0  0  0  0  0  0  0  0  0
    2.4507    6.3048   -5.1608 H   0  0  0  0  0  0  0  0  0  0  0  0
    2.0889    7.5912   -6.2954 H   0  0  0  0  0  0  0  0  0  0  0  0
    0.2783    6.5663   -4.3142 H   0  0  0  0  0  0  0  0  0  0  0  0
   -1.1840    7.8154   -2.7543 H   0  0  0  0  0  0  0  0  0  0  0  0
   -0.2636    9.7417   -1.4867 H   0  0  0  0  0  0  0  0  0  0  0  0
    2.1216   10.4018   -1.7890 H   0  0  0  0  0  0  0  0  0  0  0  0
    3.3077    9.6019   -3.7281 H   0  0  0  0  0  0  0  0  0  0  0  0
    5.5880    7.3824   -6.4931 H   0  0  0  0  0  0  0  0  0  0  0  0
    3.6814    5.1503   -6.1341 H   0  0  0  0  0  0  0  0  0  0  0  0
    5.2248    5.3174   -5.2536 H   0  0  0  0  0  0  0  0  0  0  0  0
    7.3494    4.9775   -6.7570 H   0  0  0  0  0  0  0  0  0  0  0  0
   10.5700    6.4460   -8.3884 H   0  0  0  0  0  0  0  0  0  0  0  0
    8.8422    4.3140   -7.3445 H   0  0  0  0  0  0  0  0  0  0  0  0
   10.2936    4.7715   -6.6387 H   0  0  0  0  0  0  0  0  0  0  0  0
   10.2704    3.8746   -8.1509 H   0  0  0  0  0  0  0  0  0  0  0  0
    7.9953    5.4727   -9.7752 H   0  0  0  0  0  0  0  0  0  0  0  0
    9.6265    4.9834  -10.2402 H   0  0  0  0  0  0  0  0  0  0  0  0
    9.1054    6.7013  -10.3185 H   0  0  0  0  0  0  0  0  0  0  0  0
    9.5746    8.0739   -6.2858 H   0  0  0  0  0  0  0  0  0  0  0  0
    8.4190    4.7600   -2.9511 H   0  0  0  0  0  0  0  0  0  0  0  0
    9.9877    4.8219   -2.1868 H   0  0  0  0  0  0  0  0  0  0  0  0
   10.8454    3.6200   -3.7608 H   0  0  0  0  0  0  0  0  0  0  0  0
    9.2933    3.5279   -4.6936 H   0  0  0  0  0  0  0  0  0  0  0  0
    7.9884    2.8011   -2.7229 H   0  0  0  0  0  0  0  0  0  0  0  0
    9.4102    2.9290   -1.6936 H   0  0  0  0  0  0  0  0  0  0  0  0
   10.0827    1.3802   -3.9094 H   0  0  0  0  0  0  0  0  0  0  0  0
   10.1634   -0.8092   -3.6558 H   0  0  0  0  0  0  0  0  0  0  0  0
    9.3477   -1.6202   -2.3466 H   0  0  0  0  0  0  0  0  0  0  0  0
    9.7314    8.2825   -1.5929 H   0  0  0  0  0  0  0  0  0  0  0  0
    8.3844    8.4594   -2.7201 H   0  0  0  0  0  0  0  0  0  0  0  0
    4.3744    3.0372   -6.9669 H   0  0  0  0  0  0  0  0  0  0  0  0
    5.8945    3.1766   -6.0980 H   0  0  0  0  0  0  0  0  0  0  0  0
    5.5993    2.7818   -9.1277 H   0  0  0  0  0  0  0  0  0  0  0  0
    8.0222    2.7091   -7.3423 H   0  0  0  0  0  0  0  0  0  0  0  0
    7.5886    3.8789   -8.6838 H   0  0  0  0  0  0  0  0  0  0  0  0
    8.1072    2.3137   -9.0651 H   0  0  0  0  0  0  0  0  0  0  0  0
    6.5435    0.8661   -6.9132 H   0  0  0  0  0  0  0  0  0  0  0  0
    6.5786    0.5309   -8.6508 H   0  0  0  0  0  0  0  0  0  0  0  0
    5.0131    0.7323   -7.8198 H   0  0  0  0  0  0  0  0  0  0  0  0
    4.6098    4.7769   -0.3561 H   0  0  0  0  0  0  0  0  0  0  0  0
    4.1927    4.1253   -1.9384 H   0  0  0  0  0  0  0  0  0  0  0  0
    2.1518    5.5323   -2.0013 H   0  0  0  0  0  0  0  0  0  0  0  0
    2.5905    6.2195   -0.4056 H   0  0  0  0  0  0  0  0  0  0  0  0
    0.3414    5.1526   -0.3777 H   0  0  0  0  0  0  0  0  0  0  0  0
   10.3101    8.0298   -4.4444 H   0  0  0  0  0  0  0  0  0  0  0  0
    9.5474    9.1714   -3.8775 H   0  0  0  0  0  0  0  0  0  0  0  0
    8.4725    8.7444   -5.0656 H   0  0  0  0  0  0  0  0  0  0  0  0
  1  2  1  0  0  0  0
  1 69  1  0  0  0  0
  1 70  1  0  0  0  0
  1 71  1  0  0  0  0
  2  3  1  0  0  0  0
  2 72  1  0  0  0  0
  2 73  1  0  0  0  0
  3  4  1  0  0  0  0
  3 74  1  0  0  0  0
  3 75  1  0  0  0  0
  4  5  1  0  0  0  0
  4 76  1  0  0  0  0
  4 77  1  0  0  0  0
  5  6  1  1  0  0  0
  5  7  1  0  0  0  0
  5 10  1  0  0  0  0
  7  8  2  0  0  0  0
  7  9  1  0  0  0  0
  9 78  1  0  0  0  0
  9 79  1  0  0  0  0
 10 11  1  0  0  0  0
 10 80  1  0  0  0  0
 11 12  2  0  0  0  0
 11 13  1  0  0  0  0
 13 14  1  6  0  0  0
 13 15  1  0  0  0  0
 13 68  1  0  0  0  0
 15 16  1  0  0  0  0
 15 81  1  0  0  0  0
 16 17  2  0  0  0  0
 16 18  1  0  0  0  0
 18 19  1  1  0  0  0
 18 20  1  0  0  0  0
 18 63  1  0  0  0  0
 20 21  1  0  0  0  0
 20 82  1  0  0  0  0
 21 22  2  0  0  0  0
 23 25  1  0  0  0  0
 23 32  1  0  0  0  0
 23 24  1  6  0  0  0
 23 21  1  0  0  0  0
 25 26  1  0  0  0  0
 25 83  1  0  0  0  0
 25 84  1  0  0  0  0
 26 27  2  0  0  0  0
 26 31  1  0  0  0  0
 27 28  1  0  0  0  0
 27 85  1  0  0  0  0
 28 29  2  0  0  0  0
 28 86  1  0  0  0  0
 29 30  1  0  0  0  0
 29 87  1  0  0  0  0
 30 31  2  0  0  0  0
 30 88  1  0  0  0  0
 31 89  1  0  0  0  0
 32 33  1  0  0  0  0
 32 90  1  0  0  0  0
 33 34  1  0  0  0  0
 33 91  1  0  0  0  0
 33 92  1  0  0  0  0
 34 35  1  6  0  0  0
 34 36  1  0  0  0  0
 34 59  1  0  0  0  0
 36 37  1  0  0  0  0
 36 93  1  0  0  0  0
 37 38  2  0  0  0  0
 39 41  1  0  0  0  0
 39 44  1  0  0  0  0
 39 40  1  6  0  0  0
 39 37  1  0  0  0  0
 41 42  1  0  0  0  0
 41 43  1  0  0  0  0
 41 94  1  0  0  0  0
 42 95  1  0  0  0  0
 42 96  1  0  0  0  0
 42 97  1  0  0  0  0
 43 98  1  0  0  0  0
 43 99  1  0  0  0  0
 43100  1  0  0  0  0
 44 45  1  0  0  0  0
 44101  1  0  0  0  0
 45 46  2  0  0  0  0
 47 49  1  0  0  0  0
 47 58  1  0  0  0  0
 47 48  1  6  0  0  0
 47 45  1  0  0  0  0
 49 50  1  0  0  0  0
 49102  1  0  0  0  0
 49103  1  0  0  0  0
 50 51  1  0  0  0  0
 50104  1  0  0  0  0
 50105  1  0  0  0  0
 51 52  1  0  0  0  0
 51106  1  0  0  0  0
 51107  1  0  0  0  0
 52 53  1  0  0  0  0
 52108  1  0  0  0  0
 53 54  2  0  0  0  0
 53 57  1  0  0  0  0
 54 55  1  0  0  0  0
 54 56  1  0  0  0  0
 57109  1  0  0  0  0
 57110  1  0  0  0  0
 58111  1  0  0  0  0
 58112  1  0  0  0  0
 59 60  1  0  0  0  0
 59113  1  0  0  0  0
 59114  1  0  0  0  0
 60 61  1  0  0  0  0
 60 62  1  0  0  0  0
 60115  1  0  0  0  0
 61116  1  0  0  0  0
 61117  1  0  0  0  0
 61118  1  0  0  0  0
 62119  1  0  0  0  0
 62120  1  0  0  0  0
 62121  1  0  0  0  0
 63 64  1  0  0  0  0
 63122  1  0  0  0  0
 63123  1  0  0  0  0
 64 65  1  0  0  0  0
 64124  1  0  0  0  0
 64125  1  0  0  0  0
 65 66  2  0  0  0  0
 65 67  1  0  0  0  0
 67126  1  0  0  0  0
 68127  1  0  0  0  0
 68128  1  0  0  0  0
 68129  1  0  0  0  0
M  CHG  1  54   1
M  END
$$$$
