0QS
 OpenBabel04121316033D

110113  0  0  1  0  0  0  0  0999 V2000
    3.5347   -5.8003    1.0520 O   0  0  0  0  0  0  0  0  0  0  0  0
    4.2541   -4.8105    1.2402 C   0  0  0  0  0  0  0  0  0  0  0  0
    4.8012   -4.8435    2.6121 C   0  0  2  0  0  0  0  0  0  0  0  0
    5.3791   -5.7852    2.6617 H   0  0  0  0  0  0  0  0  0  0  0  0
    3.5910   -4.8251    3.5176 C   0  0  0  0  0  0  0  0  0  0  0  0
    2.6754   -5.9679    3.3117 C   0  0  0  0  0  0  0  0  0  0  0  0
    2.9193   -7.3209    3.2634 C   0  0  0  0  0  0  0  0  0  0  0  0
    1.7468   -7.9217    2.8791 N   0  0  0  0  0  0  0  0  0  0  0  0
    1.6145   -8.9225    2.7683 H   0  0  0  0  0  0  0  0  0  0  0  0
    0.8199   -7.0023    2.5971 C   0  0  0  0  0  0  0  0  0  0  0  0
    1.3794   -5.8126    2.8246 N   0  3  0  0  0  0  0  0  0  0  0  0
    0.9418   -4.9236    2.5806 H   0  0  0  0  0  0  0  0  0  0  0  0
    5.6910   -3.8033    2.9333 N   0  0  0  0  0  0  0  0  0  0  0  0
    5.3701   -2.5199    2.6139 C   0  0  0  0  0  0  0  0  0  0  0  0
    4.2308   -2.1910    2.2872 O   0  0  0  0  0  0  0  0  0  0  0  0
    6.5239   -1.5822    2.5686 C   0  0  1  0  0  0  0  0  0  0  0  0
    6.9646   -1.5999    3.5698 H   0  0  0  0  0  0  0  0  0  0  0  0
    7.5461   -1.9893    1.4951 N   0  0  0  0  0  0  0  0  0  0  0  0
    8.4415   -3.3757    1.8432 S   0  0  0  0  0  0  0  0  0  0  0  0
    8.9109   -3.2365    3.1796 O   0  0  0  0  0  0  0  0  0  0  0  0
    7.5673   -4.5153    1.5115 O   0  0  0  0  0  0  0  0  0  0  0  0
    9.7971   -3.4879    0.6798 C   0  0  0  0  0  0  0  0  0  0  0  0
    9.2464   -3.4399   -0.7459 C   0  0  0  0  0  0  0  0  0  0  0  0
   10.7924   -2.3655    0.9319 C   0  0  0  0  0  0  0  0  0  0  0  0
   10.4545   -4.8573    0.9364 C   0  0  0  0  0  0  0  0  0  0  0  0
    5.8969   -0.2011    2.3017 C   0  0  0  0  0  0  0  0  0  0  0  0
    6.8404    0.9346    2.5452 C   0  0  0  0  0  0  0  0  0  0  0  0
    6.3699    2.2476    2.5017 C   0  0  0  0  0  0  0  0  0  0  0  0
    7.2856    3.2960    2.4895 C   0  0  0  0  0  0  0  0  0  0  0  0
    8.6534    3.0404    2.6029 C   0  0  0  0  0  0  0  0  0  0  0  0
    9.1056    1.7488    2.8075 C   0  0  0  0  0  0  0  0  0  0  0  0
    8.2008    0.7104    2.7834 C   0  0  0  0  0  0  0  0  0  0  0  0
    4.2875   -3.7888    0.3715 N   0  0  0  0  0  0  0  0  0  0  0  0
    3.6982   -3.8594   -0.9411 C   0  0  2  0  0  0  0  0  0  0  0  0
    4.1896   -3.0088   -1.4440 H   0  0  0  0  0  0  0  0  0  0  0  0
    2.1748   -3.4502   -1.0663 C   0  0  0  0  0  0  0  0  0  0  0  0
    1.6830   -3.2290   -2.5926 C   0  0  0  0  0  0  0  0  0  0  0  0
    2.3504   -3.9822   -3.8171 C   0  0  0  0  0  0  0  0  0  0  0  0
    1.7072   -4.7804   -4.5124 O   0  0  0  0  0  0  0  0  0  0  0  0
    3.7730   -3.7550   -4.0398 N   0  0  0  0  0  0  0  0  0  0  0  0
    4.4542   -4.8594   -4.6862 C   0  0  0  0  0  0  0  0  0  0  0  0
    6.0051   -5.4752   -4.8440 C   0  0  0  0  0  0  0  0  0  0  0  0
    6.2735   -7.0605   -5.1488 N   0  0  0  0  0  0  0  0  0  0  0  0
    5.1519   -7.6148   -4.4218 C   0  0  0  0  0  0  0  0  0  0  0  0
    3.8877   -7.3149   -5.4043 C   0  0  0  0  0  0  0  0  0  0  0  0
    3.6923   -8.2098   -6.4512 O   0  0  0  0  0  0  0  0  0  0  0  0
    4.8190   -7.9096   -7.2890 C   0  0  0  0  0  0  0  0  0  0  0  0
    6.0854   -7.9942   -6.3800 C   0  0  0  0  0  0  0  0  0  0  0  0
    0.3148   -3.3798   -2.6135 F   0  0  0  0  0  0  0  0  0  0  0  0
    1.8895   -1.8935   -2.8412 F   0  0  0  0  0  0  0  0  0  0  0  0
    1.2889   -4.1963   -0.2473 O   0  0  0  0  0  0  0  0  0  0  0  0
    2.0901   -2.1945   -0.3479 O   0  0  0  0  0  0  0  0  0  0  0  0
    4.1987   -5.1846   -1.5557 C   0  0  0  0  0  0  0  0  0  0  0  0
    3.7687   -6.6080   -1.0630 C   0  0  0  0  0  0  0  0  0  0  0  0
    2.2367   -6.7492   -0.8005 C   0  0  0  0  0  0  0  0  0  0  0  0
    1.3534   -6.5852   -2.0240 C   0  0  0  0  0  0  0  0  0  0  0  0
    1.5758   -7.7588   -2.9275 C   0  0  0  0  0  0  0  0  0  0  0  0
    3.0607   -7.9833   -2.9444 C   0  0  0  0  0  0  0  0  0  0  0  0
    4.0231   -7.9066   -1.7774 C   0  0  0  0  0  0  0  0  0  0  0  0
    3.0216   -3.9134    3.3127 H   0  0  0  0  0  0  0  0  0  0  0  0
    3.9424   -4.8257    4.5432 H   0  0  0  0  0  0  0  0  0  0  0  0
    3.8104   -7.9138    3.3893 H   0  0  0  0  0  0  0  0  0  0  0  0
   -0.1904   -7.1808    2.2532 H   0  0  0  0  0  0  0  0  0  0  0  0
    6.6489   -4.1178    2.9324 H   0  0  0  0  0  0  0  0  0  0  0  0
    8.1621   -1.2040    1.2702 H   0  0  0  0  0  0  0  0  0  0  0  0
    8.7443   -2.4874   -0.9460 H   0  0  0  0  0  0  0  0  0  0  0  0
    8.5068   -4.2327   -0.9162 H   0  0  0  0  0  0  0  0  0  0  0  0
   10.0481   -3.5692   -1.4760 H   0  0  0  0  0  0  0  0  0  0  0  0
   10.3351   -1.3852    0.7681 H   0  0  0  0  0  0  0  0  0  0  0  0
   11.6494   -2.4607    0.2591 H   0  0  0  0  0  0  0  0  0  0  0  0
   11.1638   -2.3874    1.9623 H   0  0  0  0  0  0  0  0  0  0  0  0
    9.7373   -5.6763    0.7901 H   0  0  0  0  0  0  0  0  0  0  0  0
   10.8086   -4.9381    1.9718 H   0  0  0  0  0  0  0  0  0  0  0  0
   11.2969   -5.0290    0.2644 H   0  0  0  0  0  0  0  0  0  0  0  0
    5.0232   -0.0551    2.9571 H   0  0  0  0  0  0  0  0  0  0  0  0
    5.5159   -0.1501    1.2680 H   0  0  0  0  0  0  0  0  0  0  0  0
    5.3019    2.4632    2.4769 H   0  0  0  0  0  0  0  0  0  0  0  0
    6.9366    4.3192    2.3905 H   0  0  0  0  0  0  0  0  0  0  0  0
    9.3705    3.8523    2.5698 H   0  0  0  0  0  0  0  0  0  0  0  0
   10.1514    1.5271    2.9900 H   0  0  0  0  0  0  0  0  0  0  0  0
    8.6087   -0.2764    2.9664 H   0  0  0  0  0  0  0  0  0  0  0  0
    4.3409   -2.8468    0.7523 H   0  0  0  0  0  0  0  0  0  0  0  0
    4.2802   -3.2233   -3.3597 H   0  0  0  0  0  0  0  0  0  0  0  0
    3.8645   -4.9091   -5.5884 H   0  0  0  0  0  0  0  0  0  0  0  0
    4.1113   -5.6113   -4.0162 H   0  0  0  0  0  0  0  0  0  0  0  0
    6.4245   -5.4094   -3.8091 H   0  0  0  0  0  0  0  0  0  0  0  0
    6.6392   -4.8084   -5.4139 H   0  0  0  0  0  0  0  0  0  0  0  0
    5.2463   -7.0522   -3.4969 H   0  0  0  0  0  0  0  0  0  0  0  0
    5.2916   -8.6618   -4.1021 H   0  0  0  0  0  0  0  0  0  0  0  0
    4.1856   -6.4582   -5.9782 H   0  0  0  0  0  0  0  0  0  0  0  0
    2.9314   -6.9592   -5.0376 H   0  0  0  0  0  0  0  0  0  0  0  0
    4.7520   -6.9001   -7.7240 H   0  0  0  0  0  0  0  0  0  0  0  0
    4.7231   -8.6327   -8.0904 H   0  0  0  0  0  0  0  0  0  0  0  0
    6.9892   -8.1337   -6.9555 H   0  0  0  0  0  0  0  0  0  0  0  0
    5.9382   -9.0172   -5.9369 H   0  0  0  0  0  0  0  0  0  0  0  0
    1.8384   -4.3849    0.5368 H   0  0  0  0  0  0  0  0  0  0  0  0
    1.8703   -1.5063   -0.9995 H   0  0  0  0  0  0  0  0  0  0  0  0
    5.2907   -5.0823   -1.7070 H   0  0  0  0  0  0  0  0  0  0  0  0
    3.7222   -5.1415   -2.4709 H   0  0  0  0  0  0  0  0  0  0  0  0
    4.4966   -6.7910   -0.2694 H   0  0  0  0  0  0  0  0  0  0  0  0
    1.9170   -6.0365   -0.0978 H   0  0  0  0  0  0  0  0  0  0  0  0
    2.0169   -7.6961   -0.3131 H   0  0  0  0  0  0  0  0  0  0  0  0
    1.7100   -5.6952   -2.5040 H   0  0  0  0  0  0  0  0  0  0  0  0
    0.2952   -6.3710   -1.8642 H   0  0  0  0  0  0  0  0  0  0  0  0
    1.2337   -7.5029   -3.9463 H   0  0  0  0  0  0  0  0  0  0  0  0
    1.0685   -8.6643   -2.6204 H   0  0  0  0  0  0  0  0  0  0  0  0
    3.2738   -7.0073   -3.3290 H   0  0  0  0  0  0  0  0  0  0  0  0
    3.2889   -8.7830   -3.6399 H   0  0  0  0  0  0  0  0  0  0  0  0
    5.1046   -7.9507   -1.9646 H   0  0  0  0  0  0  0  0  0  0  0  0
    3.8539   -8.7499   -1.1125 H   0  0  0  0  0  0  0  0  0  0  0  0
  1  2  2  0  0  0  0
  2 33  1  0  0  0  0
  3  5  1  0  0  0  0
  3 13  1  0  0  0  0
  3  4  1  1  0  0  0
  3  2  1  0  0  0  0
  5  6  1  0  0  0  0
  5 60  1  0  0  0  0
  5 61  1  0  0  0  0
  6  7  2  0  0  0  0
  6 11  1  0  0  0  0
  7  8  1  0  0  0  0
  7 62  1  0  0  0  0
  8  9  1  0  0  0  0
  8 10  1  0  0  0  0
 10 11  2  0  0  0  0
 10 63  1  0  0  0  0
 11 12  1  0  0  0  0
 13 14  1  0  0  0  0
 13 64  1  0  0  0  0
 14 15  2  0  0  0  0
 14 16  1  0  0  0  0
 16 17  1  1  0  0  0
 16 18  1  0  0  0  0
 16 26  1  0  0  0  0
 18 19  1  0  0  0  0
 18 65  1  0  0  0  0
 19 20  2  0  0  0  0
 19 21  2  0  0  0  0
 19 22  1  0  0  0  0
 22 23  1  0  0  0  0
 22 24  1  0  0  0  0
 22 25  1  0  0  0  0
 23 66  1  0  0  0  0
 23 67  1  0  0  0  0
 23 68  1  0  0  0  0
 24 69  1  0  0  0  0
 24 70  1  0  0  0  0
 24 71  1  0  0  0  0
 25 72  1  0  0  0  0
 25 73  1  0  0  0  0
 25 74  1  0  0  0  0
 26 27  1  0  0  0  0
 26 75  1  0  0  0  0
 26 76  1  0  0  0  0
 27 28  2  0  0  0  0
 27 32  1  0  0  0  0
 28 29  1  0  0  0  0
 28 77  1  0  0  0  0
 29 30  2  0  0  0  0
 29 78  1  0  0  0  0
 30 31  1  0  0  0  0
 30 79  1  0  0  0  0
 31 32  2  0  0  0  0
 31 80  1  0  0  0  0
 32 81  1  0  0  0  0
 33 82  1  0  0  0  0
 34 36  1  0  0  0  0
 34 53  1  0  0  0  0
 34 35  1  6  0  0  0
 34 33  1  0  0  0  0
 36 37  1  0  0  0  0
 36 51  1  0  0  0  0
 36 52  1  0  0  0  0
 37 38  1  0  0  0  0
 37 49  1  0  0  0  0
 37 50  1  0  0  0  0
 38 39  2  0  0  0  0
 38 40  1  0  0  0  0
 40 41  1  0  0  0  0
 40 83  1  0  0  0  0
 41 42  1  0  0  0  0
 41 84  1  0  0  0  0
 41 85  1  0  0  0  0
 42 43  1  0  0  0  0
 42 86  1  0  0  0  0
 42 87  1  0  0  0  0
 43 44  1  0  0  0  0
 43 48  1  0  0  0  0
 44 45  1  0  0  0  0
 44 88  1  0  0  0  0
 44 89  1  0  0  0  0
 45 46  1  0  0  0  0
 45 90  1  0  0  0  0
 45 91  1  0  0  0  0
 46 47  1  0  0  0  0
 47 48  1  0  0  0  0
 47 92  1  0  0  0  0
 47 93  1  0  0  0  0
 48 94  1  0  0  0  0
 48 95  1  0  0  0  0
 51 96  1  0  0  0  0
 52 97  1  0  0  0  0
 53 54  1  0  0  0  0
 53 98  1  0  0  0  0
 53 99  1  0  0  0  0
 54 55  1  0  0  0  0
 54 59  1  0  0  0  0
 54100  1  0  0  0  0
 55 56  1  0  0  0  0
 55101  1  0  0  0  0
 55102  1  0  0  0  0
 56 57  1  0  0  0  0
 56103  1  0  0  0  0
 56104  1  0  0  0  0
 57 58  1  0  0  0  0
 57105  1  0  0  0  0
 57106  1  0  0  0  0
 58 59  1  0  0  0  0
 58107  1  0  0  0  0
 58108  1  0  0  0  0
 59109  1  0  0  0  0
 59110  1  0  0  0  0
M  CHG  1  11   1
M  END
$$$$
