0UN
 OpenBabel04121316033D

 62 65  0  0  0  0  0  0  0  0999 V2000
    1.0817   -0.0737    0.0894 C   0  0  0  0  0  0  0  0  0  0  0  0
    2.4243   -0.0439    0.0845 C   0  0  0  0  0  0  0  0  0  0  0  0
    3.1169    1.0285   -0.6965 C   0  0  0  0  0  0  0  0  0  0  0  0
    2.4683    1.8106   -1.3626 O   0  0  0  0  0  0  0  0  0  0  0  0
    4.5170    0.9993   -0.6085 N   0  0  0  0  0  0  0  0  0  0  0  0
    5.2699    1.9600   -1.3376 C   0  0  0  0  0  0  0  0  0  0  0  0
    4.9248    3.3047   -1.2517 C   0  0  0  0  0  0  0  0  0  0  0  0
    5.4616    4.2225   -2.1458 C   0  0  0  0  0  0  0  0  0  0  0  0
    6.1640    3.7551   -3.2568 C   0  0  0  0  0  0  0  0  0  0  0  0
    6.5047    2.3991   -3.3487 C   0  0  0  0  0  0  0  0  0  0  0  0
    6.2550    1.5668   -2.2492 C   0  0  0  0  0  0  0  0  0  0  0  0
    7.0385    1.9939   -4.5593 O   0  0  0  0  0  0  0  0  0  0  0  0
    6.9695    0.6894   -5.0289 C   0  0  0  0  0  0  0  0  0  0  0  0
    7.9969    0.4025   -5.8976 N   0  0  0  0  0  0  0  0  0  0  0  0
    8.0937   -0.8587   -6.3711 C   0  0  0  0  0  0  0  0  0  0  0  0
    7.2266   -1.8245   -6.0238 N   0  0  0  0  0  0  0  0  0  0  0  0
    6.3137   -1.5442   -5.0895 C   0  0  0  0  0  0  0  0  0  0  0  0
    6.0326   -0.2741   -4.6704 C   0  0  0  0  0  0  0  0  0  0  0  0
    4.5062   -0.1089   -3.9021 Cl  0  0  0  0  0  0  0  0  0  0  0  0
    9.3019   -1.2872   -6.9344 N   0  0  0  0  0  0  0  0  0  0  0  0
    9.7646   -2.6247   -6.9835 C   0  0  0  0  0  0  0  0  0  0  0  0
   10.2569   -3.0857   -8.2218 C   0  0  0  0  0  0  0  0  0  0  0  0
   10.3000   -4.4560   -8.5241 C   0  0  0  0  0  0  0  0  0  0  0  0
    9.9578   -5.4101   -7.5710 C   0  0  0  0  0  0  0  0  0  0  0  0
    9.6913   -4.9474   -6.2711 C   0  0  0  0  0  0  0  0  0  0  0  0
    9.5761   -3.5735   -5.9571 C   0  0  0  0  0  0  0  0  0  0  0  0
    9.2218   -3.3518   -4.6422 O   0  0  0  0  0  0  0  0  0  0  0  0
    9.3992   -2.0785   -4.0328 C   0  0  0  0  0  0  0  0  0  0  0  0
    9.8275   -6.7375   -7.9079 N   0  0  0  0  0  0  0  0  0  0  0  0
   10.8841   -7.5141   -8.5616 C   0  0  0  0  0  0  0  0  0  0  0  0
   11.1271   -8.8074   -7.7362 C   0  0  0  0  0  0  0  0  0  0  0  0
    9.9049   -9.6255   -7.5045 N   0  0  0  0  0  0  0  0  0  0  0  0
    8.8835   -8.7580   -6.8572 C   0  0  0  0  0  0  0  0  0  0  0  0
    8.5760   -7.4564   -7.6321 C   0  0  0  0  0  0  0  0  0  0  0  0
    9.4029  -10.1566   -8.7758 C   0  0  0  0  0  0  0  0  0  0  0  0
    0.5237   -0.8025    0.6679 H   0  0  0  0  0  0  0  0  0  0  0  0
    0.4934    0.6436   -0.4825 H   0  0  0  0  0  0  0  0  0  0  0  0
    2.9989   -0.7532    0.6612 H   0  0  0  0  0  0  0  0  0  0  0  0
    4.9572    0.1275   -0.3565 H   0  0  0  0  0  0  0  0  0  0  0  0
    4.2232    3.6314   -0.4885 H   0  0  0  0  0  0  0  0  0  0  0  0
    5.2561    5.2799   -2.0126 H   0  0  0  0  0  0  0  0  0  0  0  0
    6.4166    4.4518   -4.0534 H   0  0  0  0  0  0  0  0  0  0  0  0
    6.6397    0.5558   -2.2330 H   0  0  0  0  0  0  0  0  0  0  0  0
    5.8695   -2.4096   -4.6003 H   0  0  0  0  0  0  0  0  0  0  0  0
    9.9524   -0.5583   -7.1733 H   0  0  0  0  0  0  0  0  0  0  0  0
   10.4918   -2.3817   -9.0153 H   0  0  0  0  0  0  0  0  0  0  0  0
   10.4947   -4.7681   -9.5481 H   0  0  0  0  0  0  0  0  0  0  0  0
    9.5490   -5.6782   -5.4771 H   0  0  0  0  0  0  0  0  0  0  0  0
    9.1715   -2.1628   -2.9675 H   0  0  0  0  0  0  0  0  0  0  0  0
    8.6514   -1.3565   -4.2963 H   0  0  0  0  0  0  0  0  0  0  0  0
   10.3673   -1.6189   -4.2303 H   0  0  0  0  0  0  0  0  0  0  0  0
   11.8230   -6.9578   -8.6498 H   0  0  0  0  0  0  0  0  0  0  0  0
   10.5763   -7.7766   -9.5817 H   0  0  0  0  0  0  0  0  0  0  0  0
   11.5358   -8.5228   -6.7561 H   0  0  0  0  0  0  0  0  0  0  0  0
   11.8975   -9.4248   -8.2129 H   0  0  0  0  0  0  0  0  0  0  0  0
    9.2481   -8.4863   -5.8568 H   0  0  0  0  0  0  0  0  0  0  0  0
    7.9602   -9.3267   -6.6935 H   0  0  0  0  0  0  0  0  0  0  0  0
    7.8502   -6.8492   -7.0804 H   0  0  0  0  0  0  0  0  0  0  0  0
    8.0912   -7.7013   -8.5866 H   0  0  0  0  0  0  0  0  0  0  0  0
   10.1662  -10.7758   -9.2579 H   0  0  0  0  0  0  0  0  0  0  0  0
    9.1159   -9.3823   -9.4943 H   0  0  0  0  0  0  0  0  0  0  0  0
    8.5240  -10.7870   -8.6101 H   0  0  0  0  0  0  0  0  0  0  0  0
  1  2  2  0  0  0  0
  1 36  1  0  0  0  0
  1 37  1  0  0  0  0
  2  3  1  0  0  0  0
  2 38  1  0  0  0  0
  3  4  2  0  0  0  0
  3  5  1  0  0  0  0
  5  6  1  0  0  0  0
  5 39  1  0  0  0  0
  6  7  2  0  0  0  0
  6 11  1  0  0  0  0
  7  8  1  0  0  0  0
  7 40  1  0  0  0  0
  8  9  2  0  0  0  0
  8 41  1  0  0  0  0
  9 10  1  0  0  0  0
  9 42  1  0  0  0  0
 10 11  2  0  0  0  0
 10 12  1  0  0  0  0
 11 43  1  0  0  0  0
 12 13  1  0  0  0  0
 13 14  2  0  0  0  0
 13 18  1  0  0  0  0
 14 15  1  0  0  0  0
 15 16  2  0  0  0  0
 15 20  1  0  0  0  0
 16 17  1  0  0  0  0
 17 18  2  0  0  0  0
 17 44  1  0  0  0  0
 18 19  1  0  0  0  0
 20 21  1  0  0  0  0
 20 45  1  0  0  0  0
 21 22  2  0  0  0  0
 21 26  1  0  0  0  0
 22 23  1  0  0  0  0
 22 46  1  0  0  0  0
 23 24  2  0  0  0  0
 23 47  1  0  0  0  0
 24 25  1  0  0  0  0
 24 29  1  0  0  0  0
 25 26  2  0  0  0  0
 25 48  1  0  0  0  0
 26 27  1  0  0  0  0
 27 28  1  0  0  0  0
 28 49  1  0  0  0  0
 28 50  1  0  0  0  0
 28 51  1  0  0  0  0
 29 30  1  0  0  0  0
 29 34  1  0  0  0  0
 30 31  1  0  0  0  0
 30 52  1  0  0  0  0
 30 53  1  0  0  0  0
 31 32  1  0  0  0  0
 31 54  1  0  0  0  0
 31 55  1  0  0  0  0
 32 33  1  0  0  0  0
 32 35  1  0  0  0  0
 33 34  1  0  0  0  0
 33 56  1  0  0  0  0
 33 57  1  0  0  0  0
 34 58  1  0  0  0  0
 34 59  1  0  0  0  0
 35 60  1  0  0  0  0
 35 61  1  0  0  0  0
 35 62  1  0  0  0  0
M  END
$$$$
