105
 OpenBabel04121316033D

 32 33  0  0  0  0  0  0  0  0999 V2000
    0.9913   -0.0789    0.0608 O   0  0  0  0  0  0  0  0  0  0  0  0
    2.4493   -0.0789    0.0608 B   0  0  0  0  0  0  0  0  0  0  0  0
    3.2283    1.0240    0.8381 C   0  0  0  0  0  0  0  0  0  0  0  0
    2.2961    1.9152    1.4662 N   0  0  0  0  0  0  0  0  0  0  0  0
    2.7616    2.9914    2.2247 C   0  0  0  0  0  0  0  0  0  0  0  0
    3.9686    3.1748    2.3539 O   0  0  0  0  0  0  0  0  0  0  0  0
    1.8233    3.8885    2.8569 C   0  0  0  0  0  0  0  0  0  0  0  0
    0.3516    3.5821    3.8174 C   0  0  0  0  0  0  0  0  0  0  0  0
   -0.3277    2.3116    4.1649 C   0  0  0  0  0  0  0  0  0  0  0  0
   -0.0431    5.2213    4.2210 O   0  0  0  0  0  0  0  0  0  0  0  0
    0.9451    5.9362    3.6186 N   0  0  0  0  0  0  0  0  0  0  0  0
    1.9194    5.2722    2.9166 C   0  0  0  0  0  0  0  0  0  0  0  0
    2.9973    5.9815    2.2683 C   0  0  0  0  0  0  0  0  0  0  0  0
    3.0321    7.4023    2.3354 C   0  0  0  0  0  0  0  0  0  0  0  0
    3.8499    8.1144    1.4429 C   0  0  0  0  0  0  0  0  0  0  0  0
    4.7622    7.4906    0.7572 C   0  0  0  0  0  0  0  0  0  0  0  0
    4.9379    6.1094    0.9152 C   0  0  0  0  0  0  0  0  0  0  0  0
    3.9387    5.3470    1.5677 C   0  0  0  0  0  0  0  0  0  0  0  0
    3.9390    3.6085    1.4574 Cl  0  0  0  0  0  0  0  0  0  0  0  0
    3.1783   -1.1110   -0.6666 O   0  0  0  0  0  0  0  0  0  0  0  0
    0.6680    0.6686    0.5876 H   0  0  0  0  0  0  0  0  0  0  0  0
    3.8435    1.5736    0.1566 H   0  0  0  0  0  0  0  0  0  0  0  0
    3.8435    0.5670    1.5848 H   0  0  0  0  0  0  0  0  0  0  0  0
    1.3282    1.7681    1.3626 H   0  0  0  0  0  0  0  0  0  0  0  0
    0.2089    1.4913    3.7357 H   0  0  0  0  0  0  0  0  0  0  0  0
   -1.3263    2.3245    3.7810 H   0  0  0  0  0  0  0  0  0  0  0  0
   -0.3559    2.2017    5.2289 H   0  0  0  0  0  0  0  0  0  0  0  0
    2.4617    7.9048    3.0334 H   0  0  0  0  0  0  0  0  0  0  0  0
    3.7270    9.1329    1.3312 H   0  0  0  0  0  0  0  0  0  0  0  0
    5.3573    8.0135    0.0958 H   0  0  0  0  0  0  0  0  0  0  0  0
    5.7905    5.6505    0.5581 H   0  0  0  0  0  0  0  0  0  0  0  0
    2.5480   -1.7137   -1.0913 H   0  0  0  0  0  0  0  0  0  0  0  0
  1  2  1  0  0  0  0
  1 21  1  0  0  0  0
  2  3  1  0  0  0  0
  2 20  1  0  0  0  0
  3  4  1  0  0  0  0
  3 22  1  0  0  0  0
  3 23  1  0  0  0  0
  4  5  1  0  0  0  0
  4 24  1  0  0  0  0
  5  6  2  0  0  0  0
  5  7  1  0  0  0  0
  7  8  2  0  0  0  0
  7 12  1  0  0  0  0
  8  9  1  0  0  0  0
  8 10  1  0  0  0  0
  9 25  1  0  0  0  0
  9 26  1  0  0  0  0
  9 27  1  0  0  0  0
 10 11  1  0  0  0  0
 11 12  2  0  0  0  0
 12 13  1  0  0  0  0
 13 14  2  0  0  0  0
 13 18  1  0  0  0  0
 14 15  1  0  0  0  0
 14 28  1  0  0  0  0
 15 16  2  0  0  0  0
 15 29  1  0  0  0  0
 16 17  1  0  0  0  0
 16 30  1  0  0  0  0
 17 18  2  0  0  0  0
 17 31  1  0  0  0  0
 18 19  1  0  0  0  0
 20 32  1  0  0  0  0
M  END
$$$$
