106
 OpenBabel04121316033D

 32 34  0  0  0  0  0  0  0  0999 V2000
    1.1241   -0.2110    0.0613 O   0  0  0  0  0  0  0  0  0  0  0  0
    2.3407   -0.0889    0.0639 C   0  0  0  0  0  0  0  0  0  0  0  0
    3.2558   -1.1271    0.0654 N   0  0  0  0  0  0  0  0  0  0  0  0
    4.4136   -0.5607    0.0656 C   0  0  0  0  0  0  0  0  0  0  0  0
    4.3749    0.9005    0.0657 C   0  0  0  0  0  0  0  0  0  0  0  0
    3.0801    1.2123    0.0638 C   0  0  0  0  0  0  0  0  0  0  0  0
    2.5613    2.4767    0.0455 N   0  0  0  0  0  0  0  0  0  0  0  0
    1.3232    2.5869    0.1436 N   0  0  0  0  0  0  0  0  0  0  0  0
    0.8760    3.9259    0.0784 C   0  0  0  0  0  0  0  0  0  0  0  0
   -0.4634    4.1617   -0.2644 C   0  0  0  0  0  0  0  0  0  0  0  0
   -0.9369    5.4615   -0.4792 C   0  0  0  0  0  0  0  0  0  0  0  0
   -0.0973    6.5472   -0.2289 C   0  0  0  0  0  0  0  0  0  0  0  0
    1.1907    6.3383    0.2661 C   0  0  0  0  0  0  0  0  0  0  0  0
    1.6881    5.0356    0.3592 C   0  0  0  0  0  0  0  0  0  0  0  0
   -0.6899    8.1738   -0.6226 S   0  0  0  0  0  0  0  0  0  0  0  0
   -0.7939    8.2528   -2.0604 O   0  0  0  0  0  0  0  0  0  0  0  0
   -1.7813    8.4698    0.2732 O   0  0  0  0  0  0  0  0  0  0  0  0
    0.5824    9.1651   -0.1837 N   0  0  0  0  0  0  0  0  0  0  0  0
    5.5696    1.6832    0.0646 C   0  0  0  0  0  0  0  0  0  0  0  0
    6.7615    1.0617    0.0656 C   0  0  0  0  0  0  0  0  0  0  0  0
    6.8421   -0.3957    0.0649 C   0  0  0  0  0  0  0  0  0  0  0  0
    5.7545   -1.1905    0.0643 C   0  0  0  0  0  0  0  0  0  0  0  0
    8.3562    2.0306    0.0675 Br  0  0  0  0  0  0  0  0  0  0  0  0
   -1.1414    3.3192   -0.3878 H   0  0  0  0  0  0  0  0  0  0  0  0
   -1.9495    5.6186   -0.8467 H   0  0  0  0  0  0  0  0  0  0  0  0
    1.8338    7.1574    0.5674 H   0  0  0  0  0  0  0  0  0  0  0  0
    2.7249    4.8925    0.6516 H   0  0  0  0  0  0  0  0  0  0  0  0
    1.3903    9.1162   -0.7985 H   0  0  0  0  0  0  0  0  0  0  0  0
    0.7077    9.2775    0.8179 H   0  0  0  0  0  0  0  0  0  0  0  0
    5.4822    2.7636    0.0642 H   0  0  0  0  0  0  0  0  0  0  0  0
    7.8339   -0.8440    0.0636 H   0  0  0  0  0  0  0  0  0  0  0  0
    5.8216   -2.2720    0.0622 H   0  0  0  0  0  0  0  0  0  0  0  0
  1  2  2  0  0  0  0
  2  3  1  0  0  0  0
  2  6  1  0  0  0  0
  3  4  2  0  0  0  0
  4  5  1  0  0  0  0
  4 22  1  0  0  0  0
  5  6  2  0  0  0  0
  5 19  1  0  0  0  0
  6  7  1  0  0  0  0
  7  8  2  0  0  0  0
  8  9  1  0  0  0  0
  9 10  2  0  0  0  0
  9 14  1  0  0  0  0
 10 11  1  0  0  0  0
 10 24  1  0  0  0  0
 11 12  2  0  0  0  0
 11 25  1  0  0  0  0
 12 13  1  0  0  0  0
 12 15  1  0  0  0  0
 13 14  2  0  0  0  0
 13 26  1  0  0  0  0
 14 27  1  0  0  0  0
 15 16  2  0  0  0  0
 15 17  2  0  0  0  0
 15 18  1  0  0  0  0
 18 28  1  0  0  0  0
 18 29  1  0  0  0  0
 19 20  2  0  0  0  0
 19 30  1  0  0  0  0
 20 21  1  0  0  0  0
 20 23  1  0  0  0  0
 21 22  2  0  0  0  0
 21 31  1  0  0  0  0
 22 32  1  0  0  0  0
M  END
$$$$
