10M
 OpenBabel04121316033D

 75 76  0  0  1  0  0  0  0  0999 V2000
    0.8041    7.1003    2.4893 C   0  0  0  0  0  0  0  0  0  0  0  0
    2.0794    7.6610    1.8889 C   0  0  0  0  0  0  0  0  0  0  0  0
    2.5247    6.8230    0.6975 C   0  0  0  0  0  0  0  0  0  0  0  0
    3.8040    7.3838    0.0936 C   0  0  0  0  0  0  0  0  0  0  0  0
    4.2406    6.5409   -1.0948 C   0  0  0  0  0  0  0  0  0  0  0  0
    5.5184    7.1026   -1.6976 C   0  0  0  0  0  0  0  0  0  0  0  0
    5.9490    6.2595   -2.8853 C   0  0  0  0  0  0  0  0  0  0  0  0
    7.2231    6.8158   -3.4991 C   0  0  0  0  0  0  0  0  0  0  0  0
    7.6282    5.9611   -4.6921 C   0  0  0  0  0  0  0  0  0  0  0  0
    8.9124    6.4848   -5.3039 C   0  0  0  0  0  0  0  0  0  0  0  0
    9.3514    5.4113   -6.6970 S   0  0  0  0  0  0  0  0  0  0  0  0
   10.8281    6.2653   -7.3537 C   0  0  2  0  0  0  0  0  0  0  0  0
   10.4705    7.2092   -7.7914 H   0  0  0  0  0  0  0  0  0  0  0  0
   11.3474    5.4249   -8.3952 O   0  0  0  0  0  0  0  0  0  0  0  0
   12.3803    6.0407   -9.1470 C   0  0  2  0  0  0  0  0  0  0  0  0
   11.9567    6.9476   -9.5617 H   0  0  0  0  0  0  0  0  0  0  0  0
   12.8134    5.1183  -10.3179 C   0  0  0  0  0  0  0  0  0  0  0  0
   13.9268    5.5523  -11.0885 O   0  0  0  0  0  0  0  0  0  0  0  0
   13.5618    6.4288   -8.2703 C   0  0  2  0  0  0  0  0  0  0  0  0
   14.0541    5.5041   -7.9298 H   0  0  0  0  0  0  0  0  0  0  0  0
   13.1344    7.1854   -7.0010 C   0  0  1  0  0  0  0  0  0  0  0  0
   12.8223    8.2085   -7.2076 H   0  0  0  0  0  0  0  0  0  0  0  0
   11.9295    6.5505   -6.3001 C   0  0  1  0  0  0  0  0  0  0  0  0
   12.2386    5.6259   -5.8010 H   0  0  0  0  0  0  0  0  0  0  0  0
   11.5062    7.4799   -5.2847 O   0  0  0  0  0  0  0  0  0  0  0  0
   14.2460    7.3160   -6.1061 O   0  0  0  0  0  0  0  0  0  0  0  0
   14.5104    7.1237   -9.0898 O   0  0  0  0  0  0  0  0  0  0  0  0
   14.3424    8.5136   -9.3249 C   0  0  1  0  0  0  0  0  0  0  0  0
   13.6917    8.9626   -8.5869 H   0  0  0  0  0  0  0  0  0  0  0  0
   15.6346    9.0639   -9.1190 O   0  0  0  0  0  0  0  0  0  0  0  0
   16.5453    8.6343  -10.1450 C   0  0  2  0  0  0  0  0  0  0  0  0
   16.5277    7.5392  -10.2574 H   0  0  0  0  0  0  0  0  0  0  0  0
   17.9486    9.0022   -9.6757 C   0  0  0  0  0  0  0  0  0  0  0  0
   18.9528    8.7076  -10.6308 O   0  0  0  0  0  0  0  0  0  0  0  0
   16.1262    9.2772  -11.4778 C   0  0  2  0  0  0  0  0  0  0  0  0
   16.1086   10.3683  -11.3687 H   0  0  0  0  0  0  0  0  0  0  0  0
   14.7236    8.7903  -11.8543 C   0  0  1  0  0  0  0  0  0  0  0  0
   14.7777    7.7526  -12.1889 H   0  0  0  0  0  0  0  0  0  0  0  0
   13.7577    8.9862  -10.6868 C   0  0  1  0  0  0  0  0  0  0  0  0
   13.6164   10.0683  -10.5834 H   0  0  0  0  0  0  0  0  0  0  0  0
   12.4464    8.4720  -10.9322 O   0  0  0  0  0  0  0  0  0  0  0  0
   14.2441    9.4941  -13.0073 O   0  0  0  0  0  0  0  0  0  0  0  0
   16.9750    8.9612  -12.5799 O   0  0  0  0  0  0  0  0  0  0  0  0
    0.4894    7.7055    3.3437 H   0  0  0  0  0  0  0  0  0  0  0  0
    0.9565    6.0721    2.8326 H   0  0  0  0  0  0  0  0  0  0  0  0
   -0.0043    7.0993    1.7511 H   0  0  0  0  0  0  0  0  0  0  0  0
    2.8679    7.6754    2.6504 H   0  0  0  0  0  0  0  0  0  0  0  0
    1.9118    8.6976    1.5741 H   0  0  0  0  0  0  0  0  0  0  0  0
    1.7344    6.8073   -0.0632 H   0  0  0  0  0  0  0  0  0  0  0  0
    2.6901    5.7854    1.0127 H   0  0  0  0  0  0  0  0  0  0  0  0
    4.5989    7.3978    0.8493 H   0  0  0  0  0  0  0  0  0  0  0  0
    3.6426    8.4202   -0.2272 H   0  0  0  0  0  0  0  0  0  0  0  0
    3.4478    6.5256   -1.8530 H   0  0  0  0  0  0  0  0  0  0  0  0
    4.4042    5.5036   -0.7772 H   0  0  0  0  0  0  0  0  0  0  0  0
    6.3133    7.1156   -0.9419 H   0  0  0  0  0  0  0  0  0  0  0  0
    5.3560    8.1393   -2.0168 H   0  0  0  0  0  0  0  0  0  0  0  0
    5.1520    6.2430   -3.6388 H   0  0  0  0  0  0  0  0  0  0  0  0
    6.1132    5.2229   -2.5654 H   0  0  0  0  0  0  0  0  0  0  0  0
    8.0245    6.8240   -2.7493 H   0  0  0  0  0  0  0  0  0  0  0  0
    7.0660    7.8540   -3.8161 H   0  0  0  0  0  0  0  0  0  0  0  0
    6.8212    5.9599   -5.4342 H   0  0  0  0  0  0  0  0  0  0  0  0
    7.7757    4.9268   -4.3551 H   0  0  0  0  0  0  0  0  0  0  0  0
    9.6821    6.4348   -4.5317 H   0  0  0  0  0  0  0  0  0  0  0  0
    8.7884    7.5200   -5.6422 H   0  0  0  0  0  0  0  0  0  0  0  0
   11.9830    5.0126  -11.0194 H   0  0  0  0  0  0  0  0  0  0  0  0
   13.0707    4.1243   -9.9450 H   0  0  0  0  0  0  0  0  0  0  0  0
   13.8645    6.5214  -11.1190 H   0  0  0  0  0  0  0  0  0  0  0  0
   11.2772    8.3297   -5.6971 H   0  0  0  0  0  0  0  0  0  0  0  0
   14.9660    7.7658   -6.5864 H   0  0  0  0  0  0  0  0  0  0  0  0
   18.1804    8.4508   -8.7561 H   0  0  0  0  0  0  0  0  0  0  0  0
   17.9920   10.0654   -9.4223 H   0  0  0  0  0  0  0  0  0  0  0  0
   18.8352    7.7930  -10.9334 H   0  0  0  0  0  0  0  0  0  0  0  0
   12.4456    7.8403  -11.6731 H   0  0  0  0  0  0  0  0  0  0  0  0
   14.9785    9.4836  -13.6543 H   0  0  0  0  0  0  0  0  0  0  0  0
   17.1298    8.0015  -12.5901 H   0  0  0  0  0  0  0  0  0  0  0  0
  1  2  1  0  0  0  0
  1 44  1  0  0  0  0
  1 45  1  0  0  0  0
  1 46  1  0  0  0  0
  2  3  1  0  0  0  0
  2 47  1  0  0  0  0
  2 48  1  0  0  0  0
  3  4  1  0  0  0  0
  3 49  1  0  0  0  0
  3 50  1  0  0  0  0
  4  5  1  0  0  0  0
  4 51  1  0  0  0  0
  4 52  1  0  0  0  0
  5  6  1  0  0  0  0
  5 53  1  0  0  0  0
  5 54  1  0  0  0  0
  6  7  1  0  0  0  0
  6 55  1  0  0  0  0
  6 56  1  0  0  0  0
  7  8  1  0  0  0  0
  7 57  1  0  0  0  0
  7 58  1  0  0  0  0
  8  9  1  0  0  0  0
  8 59  1  0  0  0  0
  8 60  1  0  0  0  0
  9 10  1  0  0  0  0
  9 61  1  0  0  0  0
  9 62  1  0  0  0  0
 10 11  1  0  0  0  0
 10 63  1  0  0  0  0
 10 64  1  0  0  0  0
 12 14  1  0  0  0  0
 12 23  1  0  0  0  0
 12 13  1  6  0  0  0
 12 11  1  0  0  0  0
 14 15  1  0  0  0  0
 15 16  1  6  0  0  0
 15 17  1  0  0  0  0
 15 19  1  0  0  0  0
 17 18  1  0  0  0  0
 17 65  1  0  0  0  0
 17 66  1  0  0  0  0
 18 67  1  0  0  0  0
 19 21  1  0  0  0  0
 19 27  1  0  0  0  0
 19 20  1  1  0  0  0
 21 22  1  6  0  0  0
 21 23  1  0  0  0  0
 21 26  1  0  0  0  0
 23 25  1  0  0  0  0
 23 24  1  1  0  0  0
 25 68  1  0  0  0  0
 26 69  1  0  0  0  0
 28 30  1  0  0  0  0
 28 39  1  0  0  0  0
 28 29  1  1  0  0  0
 28 27  1  0  0  0  0
 30 31  1  0  0  0  0
 31 32  1  6  0  0  0
 31 33  1  0  0  0  0
 31 35  1  0  0  0  0
 33 34  1  0  0  0  0
 33 70  1  0  0  0  0
 33 71  1  0  0  0  0
 34 72  1  0  0  0  0
 35 37  1  0  0  0  0
 35 43  1  0  0  0  0
 35 36  1  1  0  0  0
 37 38  1  6  0  0  0
 37 39  1  0  0  0  0
 37 42  1  0  0  0  0
 39 41  1  0  0  0  0
 39 40  1  1  0  0  0
 41 73  1  0  0  0  0
 42 74  1  0  0  0  0
 43 75  1  0  0  0  0
M  END
$$$$
