117
 OpenBabel04121316033D

 76 79  0  0  1  0  0  0  0  0999 V2000
    4.7383    0.1959   -1.7813 O   0  0  0  0  0  0  0  0  0  0  0  0
    4.0988   -1.0206   -1.3576 C   0  0  1  0  0  0  0  0  0  0  0  0
    3.6976   -0.8391   -0.3525 H   0  0  0  0  0  0  0  0  0  0  0  0
    2.9173   -1.4451   -2.2527 C   0  0  0  0  0  0  0  0  0  0  0  0
    2.1113   -0.1648   -2.4682 C   0  0  2  0  0  0  0  0  0  0  0  0
    2.3305    0.5355   -1.6537 H   0  0  0  0  0  0  0  0  0  0  0  0
    0.6109   -0.2731   -2.4327 C   0  0  0  0  0  0  0  0  0  0  0  0
    0.1992   -0.8119   -1.0795 C   0  0  0  0  0  0  0  0  0  0  0  0
    0.9657   -1.1262   -0.1807 O   0  0  0  0  0  0  0  0  0  0  0  0
   -1.1348   -0.8862   -0.9254 O   0  0  0  0  0  0  0  0  0  0  0  0
    2.5759    0.4183   -3.6836 O   0  0  0  0  0  0  0  0  0  0  0  0
    5.2531   -1.9867   -1.2818 C   0  0  0  0  0  0  0  0  0  0  0  0
    4.8769   -3.3998   -0.8835 C   0  0  0  0  0  0  0  0  0  0  0  0
    6.0554   -4.2748   -0.8176 N   0  0  0  0  0  0  0  0  0  0  0  0
    6.8218   -4.8283   -1.8663 C   0  0  0  0  0  0  0  0  0  0  0  0
    6.4785   -4.7496   -3.3946 C   0  0  0  0  0  0  0  0  0  0  0  0
    6.3263   -6.1375   -4.0384 C   0  0  0  0  0  0  0  0  0  0  0  0
    5.1986   -4.0200   -3.8241 C   0  0  0  0  0  0  0  0  0  0  0  0
    7.9853   -5.4140   -1.2543 C   0  0  0  0  0  0  0  0  0  0  0  0
    7.7794   -5.3311    0.1764 C   0  0  0  0  0  0  0  0  0  0  0  0
    6.6043   -4.6275    0.4099 C   0  0  0  0  0  0  0  0  0  0  0  0
    6.0248   -4.2778    1.7237 C   0  0  0  0  0  0  0  0  0  0  0  0
    5.8043   -5.2888    2.6759 C   0  0  0  0  0  0  0  0  0  0  0  0
    5.3884   -4.9722    3.9656 C   0  0  0  0  0  0  0  0  0  0  0  0
    5.2257   -3.6398    4.3169 C   0  0  0  0  0  0  0  0  0  0  0  0
    5.5370   -2.6192    3.4276 C   0  0  0  0  0  0  0  0  0  0  0  0
    5.9172   -2.9371    2.1261 C   0  0  0  0  0  0  0  0  0  0  0  0
    4.7819   -3.3328    5.5412 F   0  0  0  0  0  0  0  0  0  0  0  0
    8.5907   -5.8486    1.2917 C   0  0  0  0  0  0  0  0  0  0  0  0
    9.1745   -7.1157    1.2319 C   0  0  0  0  0  0  0  0  0  0  0  0
   10.0934   -7.5170    2.1990 C   0  0  0  0  0  0  0  0  0  0  0  0
   10.2260   -6.7923    3.3717 C   0  0  0  0  0  0  0  0  0  0  0  0
    9.5381   -5.6010    3.5204 C   0  0  0  0  0  0  0  0  0  0  0  0
    8.8030   -5.0974    2.4549 C   0  0  0  0  0  0  0  0  0  0  0  0
    9.1640   -6.0576   -1.9395 C   0  0  0  0  0  0  0  0  0  0  0  0
    9.1405   -6.3000   -3.1578 O   0  0  0  0  0  0  0  0  0  0  0  0
   10.2770   -6.4269   -1.1651 N   0  0  0  0  0  0  0  0  0  0  0  0
   11.3126   -7.2836   -1.6058 C   0  0  0  0  0  0  0  0  0  0  0  0
   11.8920   -6.9660   -2.8184 C   0  0  0  0  0  0  0  0  0  0  0  0
   12.8578   -7.7841   -3.3799 C   0  0  0  0  0  0  0  0  0  0  0  0
   13.3500   -8.8762   -2.6729 C   0  0  0  0  0  0  0  0  0  0  0  0
   12.8731   -9.1455   -1.3930 C   0  0  0  0  0  0  0  0  0  0  0  0
   11.8213   -8.3746   -0.8726 C   0  0  0  0  0  0  0  0  0  0  0  0
    4.0974    0.8384   -2.1190 H   0  0  0  0  0  0  0  0  0  0  0  0
    2.3398   -2.2387   -1.7570 H   0  0  0  0  0  0  0  0  0  0  0  0
    3.2398   -1.8834   -3.2054 H   0  0  0  0  0  0  0  0  0  0  0  0
    0.2338   -0.8718   -3.2631 H   0  0  0  0  0  0  0  0  0  0  0  0
    0.2243    0.7502   -2.5302 H   0  0  0  0  0  0  0  0  0  0  0  0
   -1.6362   -0.5648   -1.6958 H   0  0  0  0  0  0  0  0  0  0  0  0
    2.3963    1.3724   -3.6753 H   0  0  0  0  0  0  0  0  0  0  0  0
    5.9805   -1.5624   -0.5821 H   0  0  0  0  0  0  0  0  0  0  0  0
    5.8047   -1.9404   -2.2193 H   0  0  0  0  0  0  0  0  0  0  0  0
    4.1028   -3.8718   -1.4865 H   0  0  0  0  0  0  0  0  0  0  0  0
    4.4044   -3.3447    0.1035 H   0  0  0  0  0  0  0  0  0  0  0  0
    7.3162   -4.2282   -3.8799 H   0  0  0  0  0  0  0  0  0  0  0  0
    5.4898   -6.6851   -3.5949 H   0  0  0  0  0  0  0  0  0  0  0  0
    7.2036   -6.7675   -3.9486 H   0  0  0  0  0  0  0  0  0  0  0  0
    6.1363   -6.0441   -5.1168 H   0  0  0  0  0  0  0  0  0  0  0  0
    4.3077   -4.4658   -3.3737 H   0  0  0  0  0  0  0  0  0  0  0  0
    5.0442   -4.0574   -4.9093 H   0  0  0  0  0  0  0  0  0  0  0  0
    5.2281   -2.9598   -3.6188 H   0  0  0  0  0  0  0  0  0  0  0  0
    6.0758   -6.3200    2.4515 H   0  0  0  0  0  0  0  0  0  0  0  0
    5.2352   -5.7551    4.6997 H   0  0  0  0  0  0  0  0  0  0  0  0
    5.5078   -1.5854    3.7547 H   0  0  0  0  0  0  0  0  0  0  0  0
    6.1822   -2.1313    1.4493 H   0  0  0  0  0  0  0  0  0  0  0  0
    9.0185   -7.7570    0.3654 H   0  0  0  0  0  0  0  0  0  0  0  0
   10.7026   -8.4003    2.0452 H   0  0  0  0  0  0  0  0  0  0  0  0
   10.8476   -7.1734    4.1729 H   0  0  0  0  0  0  0  0  0  0  0  0
    9.5690   -5.0464    4.4518 H   0  0  0  0  0  0  0  0  0  0  0  0
    8.3326   -4.1310    2.5986 H   0  0  0  0  0  0  0  0  0  0  0  0
   10.3735   -6.0782   -0.2236 H   0  0  0  0  0  0  0  0  0  0  0  0
   11.5889   -6.0511   -3.3151 H   0  0  0  0  0  0  0  0  0  0  0  0
   13.2173   -7.5429   -4.3721 H   0  0  0  0  0  0  0  0  0  0  0  0
   14.1090   -9.5065   -3.1257 H   0  0  0  0  0  0  0  0  0  0  0  0
   13.3093   -9.9637   -0.8200 H   0  0  0  0  0  0  0  0  0  0  0  0
   11.3967   -8.7150    0.0646 H   0  0  0  0  0  0  0  0  0  0  0  0
  1  2  1  0  0  0  0
  1 44  1  0  0  0  0
  2  3  1  1  0  0  0
  2  4  1  0  0  0  0
  2 12  1  0  0  0  0
  4 45  1  0  0  0  0
  4 46  1  0  0  0  0
  5  7  1  0  0  0  0
  5 11  1  0  0  0  0
  5  6  1  1  0  0  0
  5  4  1  0  0  0  0
  7  8  1  0  0  0  0
  7 47  1  0  0  0  0
  7 48  1  0  0  0  0
  8  9  2  0  0  0  0
  8 10  1  0  0  0  0
 10 49  1  0  0  0  0
 11 50  1  0  0  0  0
 12 13  1  0  0  0  0
 12 51  1  0  0  0  0
 12 52  1  0  0  0  0
 13 14  1  0  0  0  0
 13 53  1  0  0  0  0
 13 54  1  0  0  0  0
 14 15  1  0  0  0  0
 14 21  1  0  0  0  0
 15 16  1  0  0  0  0
 15 19  2  0  0  0  0
 16 17  1  0  0  0  0
 16 18  1  0  0  0  0
 16 55  1  0  0  0  0
 17 56  1  0  0  0  0
 17 57  1  0  0  0  0
 17 58  1  0  0  0  0
 18 59  1  0  0  0  0
 18 60  1  0  0  0  0
 18 61  1  0  0  0  0
 19 20  1  0  0  0  0
 19 35  1  0  0  0  0
 20 21  2  0  0  0  0
 20 29  1  0  0  0  0
 21 22  1  0  0  0  0
 22 23  2  0  0  0  0
 22 27  1  0  0  0  0
 23 24  1  0  0  0  0
 23 62  1  0  0  0  0
 24 25  2  0  0  0  0
 24 63  1  0  0  0  0
 25 26  1  0  0  0  0
 25 28  1  0  0  0  0
 26 27  2  0  0  0  0
 26 64  1  0  0  0  0
 27 65  1  0  0  0  0
 29 30  2  0  0  0  0
 29 34  1  0  0  0  0
 30 31  1  0  0  0  0
 30 66  1  0  0  0  0
 31 32  2  0  0  0  0
 31 67  1  0  0  0  0
 32 33  1  0  0  0  0
 32 68  1  0  0  0  0
 33 34  2  0  0  0  0
 33 69  1  0  0  0  0
 34 70  1  0  0  0  0
 35 36  2  0  0  0  0
 35 37  1  0  0  0  0
 37 38  1  0  0  0  0
 37 71  1  0  0  0  0
 38 39  2  0  0  0  0
 38 43  1  0  0  0  0
 39 40  1  0  0  0  0
 39 72  1  0  0  0  0
 40 41  2  0  0  0  0
 40 73  1  0  0  0  0
 41 42  1  0  0  0  0
 41 74  1  0  0  0  0
 42 43  2  0  0  0  0
 42 75  1  0  0  0  0
 43 76  1  0  0  0  0
M  END
$$$$
