11B
 OpenBabel04121316033D

 66 67  0  0  1  0  0  0  0  0999 V2000
    1.0112   -0.0783   -0.0306 C   0  0  0  0  0  0  0  0  0  0  0  0
    2.5140   -0.1019   -0.0481 C   0  0  0  0  0  0  0  0  0  0  0  0
    3.0116   -0.1255    1.3738 C   0  0  0  0  0  0  0  0  0  0  0  0
    4.5204   -0.1644    1.3140 C   0  0  0  0  0  0  0  0  0  0  0  0
    5.0604   -0.1681    2.7243 C   0  0  0  0  0  0  0  0  0  0  0  0
    6.6433   -0.0022    2.8743 C   0  0  1  0  0  0  0  0  0  0  0  0
    6.9032   -0.8044    2.1619 H   0  0  0  0  0  0  0  0  0  0  0  0
    7.2533    1.4709    1.9761 P   0  0  1  0  0  0  0  0  0  0  0  0
    6.6373    1.0965    0.6485 O   0  0  0  0  0  0  0  0  0  0  0  0
    6.4509    2.4209    3.1555 O   0  0  0  0  0  0  0  0  0  0  0  0
    5.8394    2.0216    4.4701 C   0  0  1  0  0  0  0  0  0  0  0  0
    5.0554    1.4058    4.1892 H   0  0  0  0  0  0  0  0  0  0  0  0
    6.4097    1.0876    5.5948 C   0  0  0  0  0  0  0  0  0  0  0  0
    7.5493    1.5672    6.1107 C   0  0  0  0  0  0  0  0  0  0  0  0
    8.1578    0.6099    6.8736 C   0  0  0  0  0  0  0  0  0  0  0  0
    7.9846   -0.8616    6.7856 C   0  0  0  0  0  0  0  0  0  0  0  0
    6.8878   -1.4254    6.1799 C   0  0  0  0  0  0  0  0  0  0  0  0
    5.9525   -0.3795    5.8798 C   0  0  0  0  0  0  0  0  0  0  0  0
    7.0005   -2.7264    5.5051 N   0  0  0  0  0  0  0  0  0  0  0  0
    6.0717   -3.4237    4.7818 C   0  0  0  0  0  0  0  0  0  0  0  0
    5.0728   -2.9268    4.1515 N   0  0  0  0  0  0  0  0  0  0  0  0
    6.0862   -4.7511    4.6728 N   0  0  0  0  0  0  0  0  0  0  0  0
    4.9219    2.9964    5.2048 C   0  0  0  0  0  0  0  0  0  0  0  0
    4.8707    4.2000    5.0421 O   0  0  0  0  0  0  0  0  0  0  0  0
    4.0934    2.3244    6.0766 O   0  0  0  0  0  0  0  0  0  0  0  0
    7.8300    2.8635    1.1270 O   0  0  0  0  0  0  0  0  0  0  0  0
    7.6941   -0.3589    3.7504 N   0  0  0  0  0  0  0  0  0  0  0  0
    9.0686   -0.1200    3.7287 C   0  0  0  0  0  0  0  0  0  0  0  0
    9.6816    0.1295    2.7470 O   0  0  0  0  0  0  0  0  0  0  0  0
    9.5429   -0.1638    5.0194 O   0  0  0  0  0  0  0  0  0  0  0  0
   10.8490    0.0449    5.7326 C   0  0  0  0  0  0  0  0  0  0  0  0
   10.9476    0.1121    7.3530 C   0  0  0  0  0  0  0  0  0  0  0  0
   10.9211    1.3486    8.0827 C   0  0  0  0  0  0  0  0  0  0  0  0
   11.1131    1.4094    9.4713 C   0  0  0  0  0  0  0  0  0  0  0  0
   11.2613    0.2351   10.1920 C   0  0  0  0  0  0  0  0  0  0  0  0
   11.0749   -0.9884    9.5504 C   0  0  0  0  0  0  0  0  0  0  0  0
   10.9563   -1.0540    8.1471 C   0  0  0  0  0  0  0  0  0  0  0  0
    0.6335   -0.0957   -1.0522 H   0  0  0  0  0  0  0  0  0  0  0  0
    0.6501    0.8250    0.4721 H   0  0  0  0  0  0  0  0  0  0  0  0
    0.6321   -0.9492    0.5121 H   0  0  0  0  0  0  0  0  0  0  0  0
    2.9034    0.7830   -0.5698 H   0  0  0  0  0  0  0  0  0  0  0  0
    2.8906   -0.9856   -0.5728 H   0  0  0  0  0  0  0  0  0  0  0  0
    2.6308   -0.9746    1.9466 H   0  0  0  0  0  0  0  0  0  0  0  0
    2.6818    0.7926    1.8880 H   0  0  0  0  0  0  0  0  0  0  0  0
    4.7238    0.7803    0.8161 H   0  0  0  0  0  0  0  0  0  0  0  0
    4.9216   -1.0070    0.7493 H   0  0  0  0  0  0  0  0  0  0  0  0
    4.6070   -1.0019    3.2046 H   0  0  0  0  0  0  0  0  0  0  0  0
    4.4178    0.6276    3.0637 H   0  0  0  0  0  0  0  0  0  0  0  0
    8.0756    2.4600    5.7292 H   0  0  0  0  0  0  0  0  0  0  0  0
    9.0736    1.0505    7.1486 H   0  0  0  0  0  0  0  0  0  0  0  0
    8.8852   -1.4885    6.8186 H   0  0  0  0  0  0  0  0  0  0  0  0
    5.0292   -0.6772    5.4189 H   0  0  0  0  0  0  0  0  0  0  0  0
    7.8309   -3.2852    5.7032 H   0  0  0  0  0  0  0  0  0  0  0  0
    5.3032   -1.9602    4.2493 H   0  0  0  0  0  0  0  0  0  0  0  0
    6.7988   -5.4091    4.9222 H   0  0  0  0  0  0  0  0  0  0  0  0
    5.2702   -5.0967    4.1661 H   0  0  0  0  0  0  0  0  0  0  0  0
    4.2376    1.3537    6.1455 H   0  0  0  0  0  0  0  0  0  0  0  0
    8.2401    2.5397    0.3023 H   0  0  0  0  0  0  0  0  0  0  0  0
    7.3275   -0.2911    4.6176 H   0  0  0  0  0  0  0  0  0  0  0  0
   11.2566    0.9846    5.3691 H   0  0  0  0  0  0  0  0  0  0  0  0
   11.4053   -0.8481    5.4654 H   0  0  0  0  0  0  0  0  0  0  0  0
   10.6046    2.2862    7.6149 H   0  0  0  0  0  0  0  0  0  0  0  0
   11.1509    2.3724    9.9801 H   0  0  0  0  0  0  0  0  0  0  0  0
   11.5124    0.2757   11.2494 H   0  0  0  0  0  0  0  0  0  0  0  0
   11.0518   -1.8986   10.1485 H   0  0  0  0  0  0  0  0  0  0  0  0
   10.8418   -2.0363    7.6967 H   0  0  0  0  0  0  0  0  0  0  0  0
  1  2  1  0  0  0  0
  1 38  1  0  0  0  0
  1 39  1  0  0  0  0
  1 40  1  0  0  0  0
  2  3  1  0  0  0  0
  2 41  1  0  0  0  0
  2 42  1  0  0  0  0
  3  4  1  0  0  0  0
  3 43  1  0  0  0  0
  3 44  1  0  0  0  0
  4  5  1  0  0  0  0
  4 45  1  0  0  0  0
  4 46  1  0  0  0  0
  5  6  1  0  0  0  0
  5 47  1  0  0  0  0
  5 48  1  0  0  0  0
  6  7  1  6  0  0  0
  6  8  1  0  0  0  0
  6 27  1  0  0  0  0
  8  9  2  6  0  0  0
  8 10  1  0  0  0  0
  8 26  1  0  0  0  0
 10 11  1  0  0  0  0
 11 12  1  6  0  0  0
 11 13  1  0  0  0  0
 11 23  1  0  0  0  0
 13 14  2  0  0  0  0
 13 18  1  0  0  0  0
 14 15  1  0  0  0  0
 14 49  1  0  0  0  0
 15 16  2  0  0  0  0
 15 50  1  0  0  0  0
 16 17  1  0  0  0  0
 16 51  1  0  0  0  0
 17 18  2  0  0  0  0
 17 19  1  0  0  0  0
 18 52  1  0  0  0  0
 19 20  1  0  0  0  0
 19 53  1  0  0  0  0
 20 21  2  0  0  0  0
 20 22  1  0  0  0  0
 21 54  1  0  0  0  0
 22 55  1  0  0  0  0
 22 56  1  0  0  0  0
 23 24  2  0  0  0  0
 23 25  1  0  0  0  0
 25 57  1  0  0  0  0
 26 58  1  0  0  0  0
 27 28  1  0  0  0  0
 27 59  1  0  0  0  0
 28 29  2  0  0  0  0
 28 30  1  0  0  0  0
 30 31  1  0  0  0  0
 31 32  1  0  0  0  0
 31 60  1  0  0  0  0
 31 61  1  0  0  0  0
 32 33  2  0  0  0  0
 32 37  1  0  0  0  0
 33 34  1  0  0  0  0
 33 62  1  0  0  0  0
 34 35  2  0  0  0  0
 34 63  1  0  0  0  0
 35 36  1  0  0  0  0
 35 64  1  0  0  0  0
 36 37  2  0  0  0  0
 36 65  1  0  0  0  0
 37 66  1  0  0  0  0
M  END
$$$$
