11N
 OpenBabel04121316033D

 50 53  0  0  1  0  0  0  0  0999 V2000
    3.9436  -10.2015    0.0560 N   0  0  0  0  0  0  0  0  0  0  0  0
    4.2247   -9.6300   -1.2670 C   0  0  0  0  0  0  0  0  0  0  0  0
    4.1699   -8.1210   -1.2582 C   0  0  0  0  0  0  0  0  0  0  0  0
    5.0810   -7.3164   -1.9556 C   0  0  0  0  0  0  0  0  0  0  0  0
    4.9904   -5.9161   -1.8836 C   0  0  0  0  0  0  0  0  0  0  0  0
    3.9829   -5.3469   -1.1162 C   0  0  0  0  0  0  0  0  0  0  0  0
    3.0611   -6.1198   -0.4500 C   0  0  0  0  0  0  0  0  0  0  0  0
    3.1437   -7.4932   -0.5514 C   0  0  0  0  0  0  0  0  0  0  0  0
    2.0811   -5.2935    0.3227 C   0  0  2  0  0  0  0  0  0  0  0  0
    2.1640   -5.5435    1.8564 C   0  0  0  0  0  0  0  0  0  0  0  0
    1.5462   -6.8868    2.2667 C   0  0  0  0  0  0  0  0  0  0  0  0
    0.1651   -6.9765    1.7877 N   0  0  0  0  0  0  0  0  0  0  0  0
    0.0229   -6.8442    0.3343 C   0  0  0  0  0  0  0  0  0  0  0  0
    0.6157   -5.5090   -0.1527 C   0  0  0  0  0  0  0  0  0  0  0  0
   -0.9823   -7.0644    2.5642 C   0  0  0  0  0  0  0  0  0  0  0  0
   -2.1135   -7.0915    2.0664 O   0  0  0  0  0  0  0  0  0  0  0  0
   -0.8379   -7.1064    4.0453 C   0  0  0  0  0  0  0  0  0  0  0  0
   -1.9174   -7.1325    4.8457 C   0  0  0  0  0  0  0  0  0  0  0  0
   -1.7461   -7.1513    6.2995 C   0  0  0  0  0  0  0  0  0  0  0  0
   -1.5984   -5.9529    7.0066 C   0  0  0  0  0  0  0  0  0  0  0  0
   -1.2290   -5.9749    8.3530 C   0  0  0  0  0  0  0  0  0  0  0  0
   -1.1144   -7.1911    9.0242 C   0  0  0  0  0  0  0  0  0  0  0  0
   -1.3796   -8.3836    8.3526 C   0  0  0  0  0  0  0  0  0  0  0  0
   -1.6430   -8.3679    6.9814 C   0  0  0  0  0  0  0  0  0  0  0  0
    2.6403   -3.8896   -0.0674 C   0  0  0  0  0  0  0  0  0  0  0  0
    3.7973   -4.0070   -0.9450 O   0  0  0  0  0  0  0  0  0  0  0  0
    3.9606  -11.2163   -0.0023 H   0  0  0  0  0  0  0  0  0  0  0  0
    2.9919   -9.9723    0.3348 H   0  0  0  0  0  0  0  0  0  0  0  0
    3.4943  -10.0070   -1.9919 H   0  0  0  0  0  0  0  0  0  0  0  0
    5.2184   -9.9662   -1.5752 H   0  0  0  0  0  0  0  0  0  0  0  0
    5.8701   -7.7746   -2.5475 H   0  0  0  0  0  0  0  0  0  0  0  0
    5.7062   -5.2948   -2.4120 H   0  0  0  0  0  0  0  0  0  0  0  0
    2.4235   -8.1193   -0.0585 H   0  0  0  0  0  0  0  0  0  0  0  0
    1.6185   -4.7486    2.3855 H   0  0  0  0  0  0  0  0  0  0  0  0
    3.2009   -5.5007    2.2120 H   0  0  0  0  0  0  0  0  0  0  0  0
    1.6396   -7.0369    3.3396 H   0  0  0  0  0  0  0  0  0  0  0  0
    2.0959   -7.7294    1.8457 H   0  0  0  0  0  0  0  0  0  0  0  0
   -1.0184   -6.9491    0.0136 H   0  0  0  0  0  0  0  0  0  0  0  0
    0.5270   -7.6941   -0.1284 H   0  0  0  0  0  0  0  0  0  0  0  0
   -0.0174   -4.7010    0.2396 H   0  0  0  0  0  0  0  0  0  0  0  0
    0.5460   -5.4566   -1.2469 H   0  0  0  0  0  0  0  0  0  0  0  0
    0.1402   -7.1100    4.4981 H   0  0  0  0  0  0  0  0  0  0  0  0
   -2.9318   -7.1361    4.4596 H   0  0  0  0  0  0  0  0  0  0  0  0
   -1.7494   -4.9976    6.5097 H   0  0  0  0  0  0  0  0  0  0  0  0
   -1.0286   -5.0442    8.8774 H   0  0  0  0  0  0  0  0  0  0  0  0
   -0.8240   -7.2092   10.0716 H   0  0  0  0  0  0  0  0  0  0  0  0
   -1.3642   -9.3266    8.8924 H   0  0  0  0  0  0  0  0  0  0  0  0
   -1.7574   -9.3087    6.4485 H   0  0  0  0  0  0  0  0  0  0  0  0
    2.9687   -3.3155    0.8080 H   0  0  0  0  0  0  0  0  0  0  0  0
    1.9005   -3.2784   -0.5978 H   0  0  0  0  0  0  0  0  0  0  0  0
  1  2  1  0  0  0  0
  1 27  1  0  0  0  0
  1 28  1  0  0  0  0
  2  3  1  0  0  0  0
  2 29  1  0  0  0  0
  2 30  1  0  0  0  0
  3  4  2  0  0  0  0
  3  8  1  0  0  0  0
  4  5  1  0  0  0  0
  4 31  1  0  0  0  0
  5  6  2  0  0  0  0
  5 32  1  0  0  0  0
  6  7  1  0  0  0  0
  6 26  1  0  0  0  0
  7  8  2  0  0  0  0
  8 33  1  0  0  0  0
  9  7  1  6  0  0  0
  9 10  1  0  0  0  0
  9 14  1  0  0  0  0
  9 25  1  0  0  0  0
 10 11  1  0  0  0  0
 10 34  1  0  0  0  0
 10 35  1  0  0  0  0
 11 12  1  0  0  0  0
 11 36  1  0  0  0  0
 11 37  1  0  0  0  0
 12 13  1  0  0  0  0
 12 15  1  0  0  0  0
 13 14  1  0  0  0  0
 13 38  1  0  0  0  0
 13 39  1  0  0  0  0
 14 40  1  0  0  0  0
 14 41  1  0  0  0  0
 15 16  2  0  0  0  0
 15 17  1  0  0  0  0
 17 18  2  0  0  0  0
 17 42  1  0  0  0  0
 18 19  1  0  0  0  0
 18 43  1  0  0  0  0
 19 20  2  0  0  0  0
 19 24  1  0  0  0  0
 20 21  1  0  0  0  0
 20 44  1  0  0  0  0
 21 22  2  0  0  0  0
 21 45  1  0  0  0  0
 22 23  1  0  0  0  0
 22 46  1  0  0  0  0
 23 24  2  0  0  0  0
 23 47  1  0  0  0  0
 24 48  1  0  0  0  0
 25 26  1  0  0  0  0
 25 49  1  0  0  0  0
 25 50  1  0  0  0  0
M  END
$$$$
