121
 OpenBabel04121316033D

 31 33  0  0  0  0  0  0  0  0999 V2000
    0.8722    0.0946   -0.2689 O   0  0  0  0  0  0  0  0  0  0  0  0
    2.2279    0.0643   -0.1082 C   0  0  0  0  0  0  0  0  0  0  0  0
    2.9454    1.2514   -0.0873 C   0  0  0  0  0  0  0  0  0  0  0  0
    4.3096    1.2074    0.1752 C   0  0  0  0  0  0  0  0  0  0  0  0
    4.9321   -0.0312    0.2360 C   0  0  0  0  0  0  0  0  0  0  0  0
    4.2735   -1.2131    0.1670 N   0  0  0  0  0  0  0  0  0  0  0  0
    2.9166   -1.1396    0.0560 C   0  0  0  0  0  0  0  0  0  0  0  0
    2.2097   -2.4108    0.2082 C   0  0  0  0  0  0  0  0  0  0  0  0
    0.9298   -2.5830    0.4996 N   0  0  0  0  0  0  0  0  0  0  0  0
    0.7244   -3.9244    0.5396 C   0  0  0  0  0  0  0  0  0  0  0  0
    1.8962   -4.6146    0.2929 C   0  0  0  0  0  0  0  0  0  0  0  0
    2.8337   -3.6326    0.0980 N   0  0  0  0  0  0  0  0  0  0  0  0
    3.8181   -3.7482   -0.1002 H   0  0  0  0  0  0  0  0  0  0  0  0
    1.9598   -6.0005    0.2793 C   0  0  0  0  0  0  0  0  0  0  0  0
    0.7580   -6.6831    0.5320 C   0  0  0  0  0  0  0  0  0  0  0  0
   -0.4693   -6.0297    0.7858 C   0  0  0  0  0  0  0  0  0  0  0  0
   -0.4676   -4.6208    0.7868 C   0  0  0  0  0  0  0  0  0  0  0  0
   -1.7210   -6.7910    1.0427 C   0  0  0  0  0  0  0  0  0  0  0  0
   -2.8592   -6.1767    1.2746 N   0  3  0  0  0  0  0  0  0  0  0  0
   -3.7224   -6.6733    1.4512 H   0  0  0  0  0  0  0  0  0  0  0  0
   -2.9266   -5.1647    1.2864 H   0  0  0  0  0  0  0  0  0  0  0  0
   -1.7184   -8.1141    1.0430 N   0  0  0  0  0  0  0  0  0  0  0  0
    0.5478    1.0001   -0.1523 H   0  0  0  0  0  0  0  0  0  0  0  0
    2.4582    2.2046   -0.2620 H   0  0  0  0  0  0  0  0  0  0  0  0
    4.8727    2.1221    0.3285 H   0  0  0  0  0  0  0  0  0  0  0  0
    6.0118   -0.0968    0.3508 H   0  0  0  0  0  0  0  0  0  0  0  0
    2.8860   -6.5306    0.0846 H   0  0  0  0  0  0  0  0  0  0  0  0
    0.8340   -7.7664    0.5199 H   0  0  0  0  0  0  0  0  0  0  0  0
   -1.3417   -4.0093    0.9677 H   0  0  0  0  0  0  0  0  0  0  0  0
   -0.8787   -8.6458    0.8712 H   0  0  0  0  0  0  0  0  0  0  0  0
   -2.5540   -8.6540    1.2139 H   0  0  0  0  0  0  0  0  0  0  0  0
  1  2  1  0  0  0  0
  1 23  1  0  0  0  0
  2  3  2  0  0  0  0
  2  7  1  0  0  0  0
  3  4  1  0  0  0  0
  3 24  1  0  0  0  0
  4  5  2  0  0  0  0
  4 25  1  0  0  0  0
  5  6  1  0  0  0  0
  5 26  1  0  0  0  0
  6  7  2  0  0  0  0
  7  8  1  0  0  0  0
  8  9  2  0  0  0  0
  8 12  1  0  0  0  0
  9 10  1  0  0  0  0
 10 11  2  0  0  0  0
 10 17  1  0  0  0  0
 11 12  1  0  0  0  0
 11 14  1  0  0  0  0
 12 13  1  0  0  0  0
 14 15  2  0  0  0  0
 14 27  1  0  0  0  0
 15 16  1  0  0  0  0
 15 28  1  0  0  0  0
 16 17  2  0  0  0  0
 16 18  1  0  0  0  0
 17 29  1  0  0  0  0
 18 19  2  0  0  0  0
 18 22  1  0  0  0  0
 19 20  1  0  0  0  0
 19 21  1  0  0  0  0
 22 30  1  0  0  0  0
 22 31  1  0  0  0  0
M  CHG  1  19   1
M  END
$$$$
