122
 OpenBabel04121316033D

 32 34  0  0  0  0  0  0  0  0999 V2000
    0.9307    0.1240    0.2169 O   0  0  0  0  0  0  0  0  0  0  0  0
    2.2944    0.1069    0.1044 C   0  0  0  0  0  0  0  0  0  0  0  0
    2.9804    1.3216    0.0861 C   0  0  0  0  0  0  0  0  0  0  0  0
    4.3591    1.3363   -0.1120 C   0  0  0  0  0  0  0  0  0  0  0  0
    5.0637    0.1396   -0.1832 C   0  0  0  0  0  0  0  0  0  0  0  0
    4.3864   -1.0758   -0.0656 C   0  0  0  0  0  0  0  0  0  0  0  0
    2.9810   -1.1161    0.0136 C   0  0  0  0  0  0  0  0  0  0  0  0
    2.2553   -2.3930   -0.0514 C   0  0  0  0  0  0  0  0  0  0  0  0
    0.9541   -2.5611   -0.2145 N   0  0  0  0  0  0  0  0  0  0  0  0
    0.7257   -3.8999   -0.2444 C   0  0  0  0  0  0  0  0  0  0  0  0
    1.9096   -4.5979   -0.1147 C   0  0  0  0  0  0  0  0  0  0  0  0
    2.8662   -3.6249    0.0003 N   0  0  0  0  0  0  0  0  0  0  0  0
    3.8558   -3.7796    0.1062 H   0  0  0  0  0  0  0  0  0  0  0  0
    1.9877   -5.9896   -0.1129 C   0  0  0  0  0  0  0  0  0  0  0  0
    0.7843   -6.7209   -0.2423 C   0  0  0  0  0  0  0  0  0  0  0  0
   -0.4259   -6.0043   -0.3772 C   0  0  0  0  0  0  0  0  0  0  0  0
   -0.4717   -4.6022   -0.3817 C   0  0  0  0  0  0  0  0  0  0  0  0
    0.8081   -8.2077   -0.2302 C   0  0  0  0  0  0  0  0  0  0  0  0
    1.9419   -8.8616   -0.1005 N   0  3  0  0  0  0  0  0  0  0  0  0
    1.9916   -9.8706   -0.0870 H   0  0  0  0  0  0  0  0  0  0  0  0
    2.8273   -8.3806   -0.0054 H   0  0  0  0  0  0  0  0  0  0  0  0
   -0.3058   -8.9079   -0.3461 N   0  0  0  0  0  0  0  0  0  0  0  0
    0.5944    1.0260    0.1122 H   0  0  0  0  0  0  0  0  0  0  0  0
    2.4521    2.2609    0.2159 H   0  0  0  0  0  0  0  0  0  0  0  0
    4.8854    2.2827   -0.2031 H   0  0  0  0  0  0  0  0  0  0  0  0
    6.1407    0.1511   -0.3341 H   0  0  0  0  0  0  0  0  0  0  0  0
    4.9880   -1.9789   -0.0640 H   0  0  0  0  0  0  0  0  0  0  0  0
    2.9625   -6.4444   -0.0077 H   0  0  0  0  0  0  0  0  0  0  0  0
   -1.3864   -6.4997   -0.4832 H   0  0  0  0  0  0  0  0  0  0  0  0
   -1.4079   -4.0615   -0.4839 H   0  0  0  0  0  0  0  0  0  0  0  0
   -1.2072   -8.4637   -0.4462 H   0  0  0  0  0  0  0  0  0  0  0  0
   -0.3094   -9.9172   -0.3380 H   0  0  0  0  0  0  0  0  0  0  0  0
  1  2  1  0  0  0  0
  1 23  1  0  0  0  0
  2  3  2  0  0  0  0
  2  7  1  0  0  0  0
  3  4  1  0  0  0  0
  3 24  1  0  0  0  0
  4  5  2  0  0  0  0
  4 25  1  0  0  0  0
  5  6  1  0  0  0  0
  5 26  1  0  0  0  0
  6  7  2  0  0  0  0
  6 27  1  0  0  0  0
  7  8  1  0  0  0  0
  8  9  2  0  0  0  0
  8 12  1  0  0  0  0
  9 10  1  0  0  0  0
 10 11  2  0  0  0  0
 10 17  1  0  0  0  0
 11 12  1  0  0  0  0
 11 14  1  0  0  0  0
 12 13  1  0  0  0  0
 14 15  2  0  0  0  0
 14 28  1  0  0  0  0
 15 16  1  0  0  0  0
 15 18  1  0  0  0  0
 16 17  2  0  0  0  0
 16 29  1  0  0  0  0
 17 30  1  0  0  0  0
 18 19  2  0  0  0  0
 18 22  1  0  0  0  0
 19 20  1  0  0  0  0
 19 21  1  0  0  0  0
 22 31  1  0  0  0  0
 22 32  1  0  0  0  0
M  CHG  1  19   1
M  END
$$$$
