123
 OpenBabel04121316033D

 36 38  0  0  0  0  0  0  0  0999 V2000
    1.0031    0.0597   -0.0781 C   0  0  0  0  0  0  0  0  0  0  0  0
    2.4333    0.0193   -0.0125 O   0  0  0  0  0  0  0  0  0  0  0  0
    2.9886    0.4581   -1.1836 C   0  0  0  0  0  0  0  0  0  0  0  0
    3.0144    1.8143   -1.4992 C   0  0  0  0  0  0  0  0  0  0  0  0
    3.5829    2.2373   -2.7017 C   0  0  0  0  0  0  0  0  0  0  0  0
    4.0385    1.2894   -3.6190 C   0  0  0  0  0  0  0  0  0  0  0  0
    4.0298   -0.0812   -3.3041 C   0  0  0  0  0  0  0  0  0  0  0  0
    3.5726   -0.4747   -2.0369 C   0  0  0  0  0  0  0  0  0  0  0  0
    4.3732   -1.1147   -4.2837 C   0  0  0  0  0  0  0  0  0  0  0  0
    4.1584   -2.4140   -4.1644 N   0  0  0  0  0  0  0  0  0  0  0  0
    4.4792   -2.9553   -5.3760 C   0  0  0  0  0  0  0  0  0  0  0  0
    4.9352   -1.9933   -6.2572 C   0  0  0  0  0  0  0  0  0  0  0  0
    4.8824   -0.8359   -5.5331 N   0  0  0  0  0  0  0  0  0  0  0  0
    5.0954    0.1002   -5.8528 H   0  0  0  0  0  0  0  0  0  0  0  0
    5.3180   -2.2736   -7.5624 C   0  0  0  0  0  0  0  0  0  0  0  0
    5.2279   -3.6158   -7.9607 C   0  0  0  0  0  0  0  0  0  0  0  0
    4.7663   -4.6434   -7.1076 C   0  0  0  0  0  0  0  0  0  0  0  0
    4.3862   -4.2879   -5.7962 C   0  0  0  0  0  0  0  0  0  0  0  0
    4.6800   -6.0551   -7.5622 C   0  0  0  0  0  0  0  0  0  0  0  0
    4.2428   -6.9999   -6.7587 N   0  3  0  0  0  0  0  0  0  0  0  0
    4.1750   -7.9684   -7.0393 H   0  0  0  0  0  0  0  0  0  0  0  0
    3.9512   -6.7989   -5.8090 H   0  0  0  0  0  0  0  0  0  0  0  0
    5.0416   -6.3965   -8.7866 N   0  0  0  0  0  0  0  0  0  0  0  0
    4.4700    1.7050   -4.8563 O   0  0  0  0  0  0  0  0  0  0  0  0
    0.6111   -0.3116    0.8743 H   0  0  0  0  0  0  0  0  0  0  0  0
    0.6239   -0.5924   -0.8739 H   0  0  0  0  0  0  0  0  0  0  0  0
    0.6302    1.0807   -0.2158 H   0  0  0  0  0  0  0  0  0  0  0  0
    2.5996    2.5419   -0.8077 H   0  0  0  0  0  0  0  0  0  0  0  0
    3.6420    3.3007   -2.9115 H   0  0  0  0  0  0  0  0  0  0  0  0
    3.6286   -1.5177   -1.7328 H   0  0  0  0  0  0  0  0  0  0  0  0
    5.6693   -1.5006   -8.2389 H   0  0  0  0  0  0  0  0  0  0  0  0
    5.5406   -3.8170   -8.9816 H   0  0  0  0  0  0  0  0  0  0  0  0
    4.0110   -4.9840   -5.0590 H   0  0  0  0  0  0  0  0  0  0  0  0
    5.3856   -5.7185   -9.4505 H   0  0  0  0  0  0  0  0  0  0  0  0
    4.9932   -7.3498   -9.1152 H   0  0  0  0  0  0  0  0  0  0  0  0
    4.2968    2.6601   -4.9392 H   0  0  0  0  0  0  0  0  0  0  0  0
  1  2  1  0  0  0  0
  1 25  1  0  0  0  0
  1 26  1  0  0  0  0
  1 27  1  0  0  0  0
  2  3  1  0  0  0  0
  3  4  2  0  0  0  0
  3  8  1  0  0  0  0
  4  5  1  0  0  0  0
  4 28  1  0  0  0  0
  5  6  2  0  0  0  0
  5 29  1  0  0  0  0
  6  7  1  0  0  0  0
  6 24  1  0  0  0  0
  7  8  2  0  0  0  0
  7  9  1  0  0  0  0
  8 30  1  0  0  0  0
  9 10  2  0  0  0  0
  9 13  1  0  0  0  0
 10 11  1  0  0  0  0
 11 12  2  0  0  0  0
 11 18  1  0  0  0  0
 12 13  1  0  0  0  0
 12 15  1  0  0  0  0
 13 14  1  0  0  0  0
 15 16  2  0  0  0  0
 15 31  1  0  0  0  0
 16 17  1  0  0  0  0
 16 32  1  0  0  0  0
 17 18  2  0  0  0  0
 17 19  1  0  0  0  0
 18 33  1  0  0  0  0
 19 20  2  0  0  0  0
 19 23  1  0  0  0  0
 20 21  1  0  0  0  0
 20 22  1  0  0  0  0
 23 34  1  0  0  0  0
 23 35  1  0  0  0  0
 24 36  1  0  0  0  0
M  CHG  1  20   1
M  END
$$$$
