124
 OpenBabel04121316033D

 33 35  0  0  0  0  0  0  0  0999 V2000
    0.9631   -0.0813    0.0182 O   0  0  0  0  0  0  0  0  0  0  0  0
    2.3340   -0.1033   -0.0175 C   0  0  0  0  0  0  0  0  0  0  0  0
    3.0345    1.1143   -0.0215 C   0  0  0  0  0  0  0  0  0  0  0  0
    4.4156    1.1266   -0.2044 C   0  0  0  0  0  0  0  0  0  0  0  0
    5.1042   -0.0793   -0.2701 C   0  0  0  0  0  0  0  0  0  0  0  0
    4.4104   -1.2953   -0.1470 C   0  0  0  0  0  0  0  0  0  0  0  0
    3.0026   -1.3361   -0.0725 C   0  0  0  0  0  0  0  0  0  0  0  0
    2.2976   -2.6376   -0.1470 C   0  0  0  0  0  0  0  0  0  0  0  0
    2.6032   -3.8748    0.3971 C   0  0  0  0  0  0  0  0  0  0  0  0
    1.8393   -4.8619   -0.2886 C   0  0  0  0  0  0  0  0  0  0  0  0
    0.9345   -4.1942   -1.1013 C   0  0  0  0  0  0  0  0  0  0  0  0
    1.1373   -2.8439   -0.8796 N   0  0  0  0  0  0  0  0  0  0  0  0
    0.5851   -2.0950   -1.2767 H   0  0  0  0  0  0  0  0  0  0  0  0
    0.0454   -4.8796   -1.9388 C   0  0  0  0  0  0  0  0  0  0  0  0
    0.1247   -6.2860   -1.9733 C   0  0  0  0  0  0  0  0  0  0  0  0
    1.0290   -7.0147   -1.1789 C   0  0  0  0  0  0  0  0  0  0  0  0
    1.8690   -6.2737   -0.3162 C   0  0  0  0  0  0  0  0  0  0  0  0
    1.1208   -8.5020   -1.2415 C   0  0  0  0  0  0  0  0  0  0  0  0
    1.9862   -9.1586   -0.4997 N   0  3  0  0  0  0  0  0  0  0  0  0
    2.0720  -10.1659   -0.5170 H   0  0  0  0  0  0  0  0  0  0  0  0
    2.6163   -8.6791    0.1319 H   0  0  0  0  0  0  0  0  0  0  0  0
    0.3402   -9.2057   -2.0455 N   0  0  0  0  0  0  0  0  0  0  0  0
    0.6783    0.8476    0.0555 H   0  0  0  0  0  0  0  0  0  0  0  0
    2.5219    2.0645    0.0998 H   0  0  0  0  0  0  0  0  0  0  0  0
    4.9523    2.0703   -0.2935 H   0  0  0  0  0  0  0  0  0  0  0  0
    6.1827   -0.0715   -0.4202 H   0  0  0  0  0  0  0  0  0  0  0  0
    4.9934   -2.2131   -0.1512 H   0  0  0  0  0  0  0  0  0  0  0  0
    3.3829   -4.0650    1.1219 H   0  0  0  0  0  0  0  0  0  0  0  0
   -0.6646   -4.3528   -2.5717 H   0  0  0  0  0  0  0  0  0  0  0  0
   -0.5551   -6.7815   -2.6628 H   0  0  0  0  0  0  0  0  0  0  0  0
    2.6046   -6.7387    0.3267 H   0  0  0  0  0  0  0  0  0  0  0  0
   -0.3415   -8.7668   -2.6463 H   0  0  0  0  0  0  0  0  0  0  0  0
    0.3896  -10.2135   -2.0959 H   0  0  0  0  0  0  0  0  0  0  0  0
  1  2  1  0  0  0  0
  1 23  1  0  0  0  0
  2  3  2  0  0  0  0
  2  7  1  0  0  0  0
  3  4  1  0  0  0  0
  3 24  1  0  0  0  0
  4  5  2  0  0  0  0
  4 25  1  0  0  0  0
  5  6  1  0  0  0  0
  5 26  1  0  0  0  0
  6  7  2  0  0  0  0
  6 27  1  0  0  0  0
  7  8  1  0  0  0  0
  8  9  2  0  0  0  0
  8 12  1  0  0  0  0
  9 10  1  0  0  0  0
  9 28  1  0  0  0  0
 10 11  2  0  0  0  0
 10 17  1  0  0  0  0
 11 12  1  0  0  0  0
 11 14  1  0  0  0  0
 12 13  1  0  0  0  0
 14 15  2  0  0  0  0
 14 29  1  0  0  0  0
 15 16  1  0  0  0  0
 15 30  1  0  0  0  0
 16 17  2  0  0  0  0
 16 18  1  0  0  0  0
 17 31  1  0  0  0  0
 18 19  2  0  0  0  0
 18 22  1  0  0  0  0
 19 20  1  0  0  0  0
 19 21  1  0  0  0  0
 22 32  1  0  0  0  0
 22 33  1  0  0  0  0
M  CHG  1  19   1
M  END
$$$$
