12P
 OpenBabel04121316033D

 87 86  0  0  0  0  0  0  0  0999 V2000
    0.9781   -0.0900    0.0535 O   0  0  0  0  0  0  0  0  0  0  0  0
    2.3998   -0.0803    0.0616 C   0  0  0  0  0  0  0  0  0  0  0  0
    2.9003    1.0213    0.9834 C   0  0  0  0  0  0  0  0  0  0  0  0
    4.3257    1.0281    0.9890 O   0  0  0  0  0  0  0  0  0  0  0  0
    4.8202    2.0541    1.8475 C   0  0  0  0  0  0  0  0  0  0  0  0
    6.3392    2.0324    1.8294 C   0  0  0  0  0  0  0  0  0  0  0  0
    6.8273    3.0588    2.6881 O   0  0  0  0  0  0  0  0  0  0  0  0
    8.2511    3.0732    2.7002 C   0  0  0  0  0  0  0  0  0  0  0  0
    8.7252    4.1794    3.6258 C   0  0  0  0  0  0  0  0  0  0  0  0
   10.1486    4.1914    3.6358 O   0  0  0  0  0  0  0  0  0  0  0  0
   10.6383    5.2164    4.4934 C   0  0  0  0  0  0  0  0  0  0  0  0
   12.1556    5.1900    4.4713 C   0  0  0  0  0  0  0  0  0  0  0  0
   12.6447    6.2150    5.3290 O   0  0  0  0  0  0  0  0  0  0  0  0
   14.0677    6.2270    5.3390 C   0  0  0  0  0  0  0  0  0  0  0  0
   14.5406    7.3328    6.2643 C   0  0  0  0  0  0  0  0  0  0  0  0
   15.9635    7.3447    6.2742 O   0  0  0  0  0  0  0  0  0  0  0  0
   16.4525    8.3696    7.1318 C   0  0  0  0  0  0  0  0  0  0  0  0
   17.9694    8.3429    7.1095 C   0  0  0  0  0  0  0  0  0  0  0  0
   18.4584    9.3679    7.9670 O   0  0  0  0  0  0  0  0  0  0  0  0
   19.8813    9.3797    7.9770 C   0  0  0  0  0  0  0  0  0  0  0  0
   20.3541   10.4855    8.9022 C   0  0  0  0  0  0  0  0  0  0  0  0
   21.7770   10.4975    8.9121 O   0  0  0  0  0  0  0  0  0  0  0  0
   22.2659   11.5223    9.7698 C   0  0  0  0  0  0  0  0  0  0  0  0
   23.7829   11.4957    9.7475 C   0  0  0  0  0  0  0  0  0  0  0  0
   24.2720   12.5207   10.6049 O   0  0  0  0  0  0  0  0  0  0  0  0
   25.6950   12.5325   10.6150 C   0  0  0  0  0  0  0  0  0  0  0  0
   26.1680   13.6383   11.5403 C   0  0  0  0  0  0  0  0  0  0  0  0
   27.5912   13.6511   11.5504 O   0  0  0  0  0  0  0  0  0  0  0  0
   28.0804   14.6759   12.4085 C   0  0  0  0  0  0  0  0  0  0  0  0
   29.5980   14.6496   12.3864 C   0  0  0  0  0  0  0  0  0  0  0  0
   30.0901   15.6751   13.2429 O   0  0  0  0  0  0  0  0  0  0  0  0
   31.5143   15.6848   13.2524 C   0  0  0  0  0  0  0  0  0  0  0  0
   31.9916   16.7911   14.1772 C   0  0  0  0  0  0  0  0  0  0  0  0
   33.4171   16.8140   14.1849 O   0  0  0  0  0  0  0  0  0  0  0  0
   33.9012   17.8317   15.0540 C   0  0  0  0  0  0  0  0  0  0  0  0
   35.4238   17.8316   15.0465 C   0  0  0  0  0  0  0  0  0  0  0  0
   35.9283   18.8503   15.9030 O   0  0  0  0  0  0  0  0  0  0  0  0
    0.7049   -0.8054   -0.5451 H   0  0  0  0  0  0  0  0  0  0  0  0
    2.7651    0.0786   -0.9587 H   0  0  0  0  0  0  0  0  0  0  0  0
    2.7651   -1.0566    0.3980 H   0  0  0  0  0  0  0  0  0  0  0  0
    2.5231    0.8549    1.9993 H   0  0  0  0  0  0  0  0  0  0  0  0
    2.5231    1.9920    0.6403 H   0  0  0  0  0  0  0  0  0  0  0  0
    4.4591    1.8969    2.8711 H   0  0  0  0  0  0  0  0  0  0  0  0
    4.4591    3.0340    1.5122 H   0  0  0  0  0  0  0  0  0  0  0  0
    6.7028    2.1925    0.8074 H   0  0  0  0  0  0  0  0  0  0  0  0
    6.7028    1.0547    2.1672 H   0  0  0  0  0  0  0  0  0  0  0  0
    8.6360    3.2441    1.6877 H   0  0  0  0  0  0  0  0  0  0  0  0
    8.6360    2.1067    3.0470 H   0  0  0  0  0  0  0  0  0  0  0  0
    8.3419    4.0090    4.6390 H   0  0  0  0  0  0  0  0  0  0  0  0
    8.3419    5.1466    3.2794 H   0  0  0  0  0  0  0  0  0  0  0  0
   10.2770    5.0581    5.5167 H   0  0  0  0  0  0  0  0  0  0  0  0
   10.2770    6.1957    4.1572 H   0  0  0  0  0  0  0  0  0  0  0  0
   12.5173    5.3485    3.4483 H   0  0  0  0  0  0  0  0  0  0  0  0
   12.5173    4.2109    4.8079 H   0  0  0  0  0  0  0  0  0  0  0  0
   14.4517    6.3976    4.3261 H   0  0  0  0  0  0  0  0  0  0  0  0
   14.4517    5.2600    5.6856 H   0  0  0  0  0  0  0  0  0  0  0  0
   14.1567    7.1622    7.2773 H   0  0  0  0  0  0  0  0  0  0  0  0
   14.1567    8.2998    5.9177 H   0  0  0  0  0  0  0  0  0  0  0  0
   16.0910    8.2112    8.1549 H   0  0  0  0  0  0  0  0  0  0  0  0
   16.0910    9.3488    6.7954 H   0  0  0  0  0  0  0  0  0  0  0  0
   18.3309    8.5013    6.0863 H   0  0  0  0  0  0  0  0  0  0  0  0
   18.3310    7.3638    7.4459 H   0  0  0  0  0  0  0  0  0  0  0  0
   20.2652    9.5503    6.9640 H   0  0  0  0  0  0  0  0  0  0  0  0
   20.2652    8.4127    8.3236 H   0  0  0  0  0  0  0  0  0  0  0  0
   19.9701   10.3149    9.9152 H   0  0  0  0  0  0  0  0  0  0  0  0
   19.9701   11.4524    8.5556 H   0  0  0  0  0  0  0  0  0  0  0  0
   21.9043   11.3638   10.7929 H   0  0  0  0  0  0  0  0  0  0  0  0
   21.9043   12.5015    9.4334 H   0  0  0  0  0  0  0  0  0  0  0  0
   24.1443   11.6540    8.7243 H   0  0  0  0  0  0  0  0  0  0  0  0
   24.1444   10.5165   10.0839 H   0  0  0  0  0  0  0  0  0  0  0  0
   26.0789   12.7029    9.6020 H   0  0  0  0  0  0  0  0  0  0  0  0
   26.0787   11.5654   10.9616 H   0  0  0  0  0  0  0  0  0  0  0  0
   25.7840   13.4676   12.5532 H   0  0  0  0  0  0  0  0  0  0  0  0
   25.7836   14.6052   11.1937 H   0  0  0  0  0  0  0  0  0  0  0  0
   27.7185   14.5169   13.4313 H   0  0  0  0  0  0  0  0  0  0  0  0
   27.7184   15.6548   12.0720 H   0  0  0  0  0  0  0  0  0  0  0  0
   29.9587   14.8069   11.3628 H   0  0  0  0  0  0  0  0  0  0  0  0
   29.9589   13.6703   12.7229 H   0  0  0  0  0  0  0  0  0  0  0  0
   31.8964   15.8541   12.2387 H   0  0  0  0  0  0  0  0  0  0  0  0
   31.8956   14.7170   13.5993 H   0  0  0  0  0  0  0  0  0  0  0  0
   31.6096   16.6184   15.1907 H   0  0  0  0  0  0  0  0  0  0  0  0
   31.6018   17.7568   13.8331 H   0  0  0  0  0  0  0  0  0  0  0  0
   33.5352   17.6634   16.0737 H   0  0  0  0  0  0  0  0  0  0  0  0
   33.5304   18.8089   14.7227 H   0  0  0  0  0  0  0  0  0  0  0  0
   35.8104   17.9913   14.0341 H   0  0  0  0  0  0  0  0  0  0  0  0
   35.8073   16.8646   15.3870 H   0  0  0  0  0  0  0  0  0  0  0  0
   35.6059   19.7006   15.5646 H   0  0  0  0  0  0  0  0  0  0  0  0
  1  2  1  0  0  0  0
  1 38  1  0  0  0  0
  2  3  1  0  0  0  0
  2 39  1  0  0  0  0
  2 40  1  0  0  0  0
  3  4  1  0  0  0  0
  3 41  1  0  0  0  0
  3 42  1  0  0  0  0
  4  5  1  0  0  0  0
  5  6  1  0  0  0  0
  5 43  1  0  0  0  0
  5 44  1  0  0  0  0
  6  7  1  0  0  0  0
  6 45  1  0  0  0  0
  6 46  1  0  0  0  0
  7  8  1  0  0  0  0
  8  9  1  0  0  0  0
  8 47  1  0  0  0  0
  8 48  1  0  0  0  0
  9 10  1  0  0  0  0
  9 49  1  0  0  0  0
  9 50  1  0  0  0  0
 10 11  1  0  0  0  0
 11 12  1  0  0  0  0
 11 51  1  0  0  0  0
 11 52  1  0  0  0  0
 12 13  1  0  0  0  0
 12 53  1  0  0  0  0
 12 54  1  0  0  0  0
 13 14  1  0  0  0  0
 14 15  1  0  0  0  0
 14 55  1  0  0  0  0
 14 56  1  0  0  0  0
 15 16  1  0  0  0  0
 15 57  1  0  0  0  0
 15 58  1  0  0  0  0
 16 17  1  0  0  0  0
 17 18  1  0  0  0  0
 17 59  1  0  0  0  0
 17 60  1  0  0  0  0
 18 19  1  0  0  0  0
 18 61  1  0  0  0  0
 18 62  1  0  0  0  0
 19 20  1  0  0  0  0
 20 21  1  0  0  0  0
 20 63  1  0  0  0  0
 20 64  1  0  0  0  0
 21 22  1  0  0  0  0
 21 65  1  0  0  0  0
 21 66  1  0  0  0  0
 22 23  1  0  0  0  0
 23 24  1  0  0  0  0
 23 67  1  0  0  0  0
 23 68  1  0  0  0  0
 24 25  1  0  0  0  0
 24 69  1  0  0  0  0
 24 70  1  0  0  0  0
 25 26  1  0  0  0  0
 26 27  1  0  0  0  0
 26 71  1  0  0  0  0
 26 72  1  0  0  0  0
 27 28  1  0  0  0  0
 27 73  1  0  0  0  0
 27 74  1  0  0  0  0
 28 29  1  0  0  0  0
 29 30  1  0  0  0  0
 29 75  1  0  0  0  0
 29 76  1  0  0  0  0
 30 31  1  0  0  0  0
 30 77  1  0  0  0  0
 30 78  1  0  0  0  0
 31 32  1  0  0  0  0
 32 33  1  0  0  0  0
 32 79  1  0  0  0  0
 32 80  1  0  0  0  0
 33 34  1  0  0  0  0
 33 81  1  0  0  0  0
 33 82  1  0  0  0  0
 34 35  1  0  0  0  0
 35 36  1  0  0  0  0
 35 83  1  0  0  0  0
 35 84  1  0  0  0  0
 36 37  1  0  0  0  0
 36 85  1  0  0  0  0
 36 86  1  0  0  0  0
 37 87  1  0  0  0  0
M  END
$$$$
