132
 OpenBabel04121316033D

 43 46  0  0  0  0  0  0  0  0999 V2000
    0.9227    0.0703   -0.0635 O   0  0  0  0  0  0  0  0  0  0  0  0
    2.2977    0.1131    0.0108 C   0  0  0  0  0  0  0  0  0  0  0  0
    2.9453    1.3582    0.1278 C   0  0  0  0  0  0  0  0  0  0  0  0
    4.3472    1.3312    0.2447 C   0  0  0  0  0  0  0  0  0  0  0  0
    5.0460    0.1304    0.4043 C   0  0  0  0  0  0  0  0  0  0  0  0
    4.3874   -1.0790    0.2260 C   0  0  0  0  0  0  0  0  0  0  0  0
    3.0053   -1.1175   -0.0317 C   0  0  0  0  0  0  0  0  0  0  0  0
    2.3630   -2.4040   -0.3920 C   0  0  0  0  0  0  0  0  0  0  0  0
    2.8528   -3.6363    0.0726 C   0  0  0  0  0  0  0  0  0  0  0  0
    2.3592   -4.8412   -0.4300 C   0  0  0  0  0  0  0  0  0  0  0  0
    1.2761   -4.8408   -1.3036 C   0  0  0  0  0  0  0  0  0  0  0  0
    0.6954   -3.6402   -1.6850 C   0  0  0  0  0  0  0  0  0  0  0  0
    1.2810   -2.4423   -1.2901 C   0  0  0  0  0  0  0  0  0  0  0  0
    2.2295    2.6613    0.0950 C   0  0  0  0  0  0  0  0  0  0  0  0
    0.9688    2.8628   -0.4443 N   0  0  0  0  0  0  0  0  0  0  0  0
    0.3558    2.1396   -0.7963 H   0  0  0  0  0  0  0  0  0  0  0  0
    0.7005    4.2030   -0.5887 C   0  0  0  0  0  0  0  0  0  0  0  0
    1.7350    4.8869    0.0209 C   0  0  0  0  0  0  0  0  0  0  0  0
    2.6198    3.9113    0.5596 C   0  0  0  0  0  0  0  0  0  0  0  0
    1.7345    6.2959   -0.0370 C   0  0  0  0  0  0  0  0  0  0  0  0
    0.7224    7.0084   -0.7368 C   0  0  0  0  0  0  0  0  0  0  0  0
   -0.3170    6.2441   -1.3138 C   0  0  0  0  0  0  0  0  0  0  0  0
   -0.3580    4.8442   -1.2306 C   0  0  0  0  0  0  0  0  0  0  0  0
   -1.6333    6.9436   -2.2046 Cl  0  0  0  0  0  0  0  0  0  0  0  0
    0.8147    8.4938   -0.8391 C   0  0  0  0  0  0  0  0  0  0  0  0
    1.8106    9.1574   -0.2995 N   0  3  0  0  0  0  0  0  0  0  0  0
    1.8878   10.1645   -0.3578 H   0  0  0  0  0  0  0  0  0  0  0  0
    2.5611    8.6977    0.2047 H   0  0  0  0  0  0  0  0  0  0  0  0
   -0.0999    9.2025   -1.4816 N   0  0  0  0  0  0  0  0  0  0  0  0
    0.5806    0.7353    0.5511 H   0  0  0  0  0  0  0  0  0  0  0  0
    4.9339    2.2446    0.1943 H   0  0  0  0  0  0  0  0  0  0  0  0
    6.1096    0.1266    0.6344 H   0  0  0  0  0  0  0  0  0  0  0  0
    4.9829   -1.9918    0.2430 H   0  0  0  0  0  0  0  0  0  0  0  0
    3.6445   -3.6776    0.8172 H   0  0  0  0  0  0  0  0  0  0  0  0
    2.8227   -5.7784   -0.1355 H   0  0  0  0  0  0  0  0  0  0  0  0
    0.8838   -5.7758   -1.6890 H   0  0  0  0  0  0  0  0  0  0  0  0
   -0.1927   -3.6212   -2.3089 H   0  0  0  0  0  0  0  0  0  0  0  0
    0.8787   -1.5256   -1.7133 H   0  0  0  0  0  0  0  0  0  0  0  0
    3.5180    4.1116    1.1304 H   0  0  0  0  0  0  0  0  0  0  0  0
    2.5788    6.7812    0.4354 H   0  0  0  0  0  0  0  0  0  0  0  0
   -1.1625    4.2748   -1.6896 H   0  0  0  0  0  0  0  0  0  0  0  0
   -0.8850    8.7371   -1.9241 H   0  0  0  0  0  0  0  0  0  0  0  0
   -0.0686   10.2058   -1.5670 H   0  0  0  0  0  0  0  0  0  0  0  0
  1  2  1  0  0  0  0
  1 30  1  0  0  0  0
  2  3  2  0  0  0  0
  2  7  1  0  0  0  0
  3  4  1  0  0  0  0
  3 14  1  0  0  0  0
  4  5  2  0  0  0  0
  4 31  1  0  0  0  0
  5  6  1  0  0  0  0
  5 32  1  0  0  0  0
  6  7  2  0  0  0  0
  6 33  1  0  0  0  0
  7  8  1  0  0  0  0
  8  9  2  0  0  0  0
  8 13  1  0  0  0  0
  9 10  1  0  0  0  0
  9 34  1  0  0  0  0
 10 11  2  0  0  0  0
 10 35  1  0  0  0  0
 11 12  1  0  0  0  0
 11 36  1  0  0  0  0
 12 13  2  0  0  0  0
 12 37  1  0  0  0  0
 13 38  1  0  0  0  0
 14 15  1  0  0  0  0
 14 19  2  0  0  0  0
 15 16  1  0  0  0  0
 15 17  1  0  0  0  0
 17 18  2  0  0  0  0
 17 23  1  0  0  0  0
 18 19  1  0  0  0  0
 18 20  1  0  0  0  0
 19 39  1  0  0  0  0
 20 21  2  0  0  0  0
 20 40  1  0  0  0  0
 21 22  1  0  0  0  0
 21 25  1  0  0  0  0
 22 23  2  0  0  0  0
 22 24  1  0  0  0  0
 23 41  1  0  0  0  0
 25 26  2  0  0  0  0
 25 29  1  0  0  0  0
 26 27  1  0  0  0  0
 26 28  1  0  0  0  0
 29 42  1  0  0  0  0
 29 43  1  0  0  0  0
M  CHG  1  26   1
M  END
$$$$
