142
 OpenBabel04121316033D

 30 30  0  0  1  0  0  0  0  0999 V2000
    2.4660   -2.6885    0.8808 N   0  0  0  0  0  0  0  0  0  0  0  0
    2.4221   -2.3623   -0.5261 N   0  0  0  0  0  0  0  0  0  0  0  0
    2.8867   -0.9760   -0.8818 C   0  0  2  0  0  0  0  0  0  0  0  0
    2.4629    0.0957    0.1579 C   0  0  0  0  0  0  0  0  0  0  0  0
    1.9747    1.1930   -0.0985 O   0  0  0  0  0  0  0  0  0  0  0  0
    2.7448   -0.2442    1.4409 O   0  0  0  0  0  0  0  0  0  0  0  0
    2.3438   -0.5766   -2.2917 C   0  0  0  0  0  0  0  0  0  0  0  0
    0.8320   -0.5409   -2.4108 C   0  0  0  0  0  0  0  0  0  0  0  0
    0.0841   -1.7252   -2.5228 C   0  0  0  0  0  0  0  0  0  0  0  0
   -1.3080   -1.6934   -2.5274 C   0  0  0  0  0  0  0  0  0  0  0  0
   -1.9475   -0.4661   -2.6228 C   0  0  0  0  0  0  0  0  0  0  0  0
   -1.2170    0.7152   -2.5572 C   0  0  0  0  0  0  0  0  0  0  0  0
    0.1556    0.6854   -2.3804 C   0  0  0  0  0  0  0  0  0  0  0  0
   -1.8338    1.9242   -2.6942 O   0  0  0  0  0  0  0  0  0  0  0  0
   -3.2968   -0.3807   -2.8166 O   0  0  0  0  0  0  0  0  0  0  0  0
    4.4218   -0.9957   -0.9506 C   0  0  0  0  0  0  0  0  0  0  0  0
    2.2324   -3.6845    1.0030 H   0  0  0  0  0  0  0  0  0  0  0  0
    1.6814   -2.2199    1.3673 H   0  0  0  0  0  0  0  0  0  0  0  0
    1.4612   -2.4641   -0.8535 H   0  0  0  0  0  0  0  0  0  0  0  0
    3.1656   -1.1395    1.4316 H   0  0  0  0  0  0  0  0  0  0  0  0
    2.7265   -1.2601   -3.0642 H   0  0  0  0  0  0  0  0  0  0  0  0
    2.7414    0.4104   -2.5719 H   0  0  0  0  0  0  0  0  0  0  0  0
    0.5806   -2.6916   -2.5863 H   0  0  0  0  0  0  0  0  0  0  0  0
   -1.8591   -2.6262   -2.4797 H   0  0  0  0  0  0  0  0  0  0  0  0
    0.6878    1.6214   -2.2237 H   0  0  0  0  0  0  0  0  0  0  0  0
   -2.7583    1.7079   -2.9188 H   0  0  0  0  0  0  0  0  0  0  0  0
   -3.6361   -1.2844   -2.9342 H   0  0  0  0  0  0  0  0  0  0  0  0
    4.8121    0.0012   -1.1839 H   0  0  0  0  0  0  0  0  0  0  0  0
    4.7842   -1.6886   -1.7194 H   0  0  0  0  0  0  0  0  0  0  0  0
    4.8648   -1.2987    0.0043 H   0  0  0  0  0  0  0  0  0  0  0  0
  1  2  1  0  0  0  0
  1 17  1  0  0  0  0
  1 18  1  0  0  0  0
  2 19  1  0  0  0  0
  3  7  1  6  0  0  0
  3 16  1  0  0  0  0
  3  4  1  0  0  0  0
  3  2  1  0  0  0  0
  4  5  2  0  0  0  0
  4  6  1  0  0  0  0
  6 20  1  0  0  0  0
  7  8  1  0  0  0  0
  7 21  1  0  0  0  0
  7 22  1  0  0  0  0
  8  9  2  0  0  0  0
  8 13  1  0  0  0  0
  9 10  1  0  0  0  0
  9 23  1  0  0  0  0
 10 11  2  0  0  0  0
 10 24  1  0  0  0  0
 11 12  1  0  0  0  0
 11 15  1  0  0  0  0
 12 13  2  0  0  0  0
 12 14  1  0  0  0  0
 13 25  1  0  0  0  0
 14 26  1  0  0  0  0
 15 27  1  0  0  0  0
 16 28  1  0  0  0  0
 16 29  1  0  0  0  0
 16 30  1  0  0  0  0
M  END
$$$$
