147
 OpenBabel04121316033D

 36 37  0  0  1  0  0  0  0  0999 V2000
    0.7787    0.1072    0.2651 O   0  0  0  0  0  0  0  0  0  0  0  0
    2.1727   -0.0290    0.3150 C   0  0  0  0  0  0  0  0  0  0  0  0
    3.0001    1.2124    0.6447 C   0  0  1  0  0  0  0  0  0  0  0  0
    2.8461    1.4087    1.7212 H   0  0  0  0  0  0  0  0  0  0  0  0
    4.3496    0.7660    0.4037 O   0  0  0  0  0  0  0  0  0  0  0  0
    4.7482    0.6965   -1.0124 C   0  0  1  0  0  0  0  0  0  0  0  0
    5.7779    0.3300   -0.9059 H   0  0  0  0  0  0  0  0  0  0  0  0
    3.9700   -0.2006   -1.9158 O   0  0  0  0  0  0  0  0  0  0  0  0
    4.2578   -0.1584   -3.3848 C   0  0  0  0  0  0  0  0  0  0  0  0
    5.5934   -0.3795   -3.5161 C   0  0  0  0  0  0  0  0  0  0  0  0
    5.7938   -1.6310   -4.0466 C   0  0  0  0  0  0  0  0  0  0  0  0
    4.7082   -2.6247   -3.9947 C   0  0  0  0  0  0  0  0  0  0  0  0
    3.3879   -2.1779   -3.8026 C   0  0  0  0  0  0  0  0  0  0  0  0
    3.3842   -0.9158   -4.2719 C   0  0  0  0  0  0  0  0  0  0  0  0
    3.7216   -1.1258   -5.9004 N   0  3  0  0  0  0  0  0  0  0  0  0
    4.6516   -0.5595   -6.4344 O   0  0  0  0  0  0  0  0  0  0  0  0
    3.0804   -2.0849   -6.4601 O   0  5  0  0  0  0  0  0  0  0  0  0
    4.6539    2.1004   -1.5991 C   0  0  1  0  0  0  0  0  0  0  0  0
    4.9621    2.0742   -2.6419 H   0  0  0  0  0  0  0  0  0  0  0  0
    3.1834    2.5545   -1.5228 C   0  0  2  0  0  0  0  0  0  0  0  0
    3.1188    3.5607   -1.9373 H   0  0  0  0  0  0  0  0  0  0  0  0
    2.7258    2.5629   -0.0606 C   0  0  1  0  0  0  0  0  0  0  0  0
    3.3236    3.3364    0.4442 H   0  0  0  0  0  0  0  0  0  0  0  0
    1.3691    2.9815    0.0453 O   0  0  0  0  0  0  0  0  0  0  0  0
    2.2787    1.7781   -2.3298 O   0  0  0  0  0  0  0  0  0  0  0  0
    5.5214    3.0197   -0.9358 O   0  0  0  0  0  0  0  0  0  0  0  0
    0.4806   -0.6868   -0.2219 H   0  0  0  0  0  0  0  0  0  0  0  0
    2.4191   -0.3939   -0.6630 H   0  0  0  0  0  0  0  0  0  0  0  0
    2.4863   -0.8611    0.9590 H   0  0  0  0  0  0  0  0  0  0  0  0
    6.3742    0.1161   -2.9476 H   0  0  0  0  0  0  0  0  0  0  0  0
    6.3967   -1.5193   -4.9644 H   0  0  0  0  0  0  0  0  0  0  0  0
    4.7476   -3.4198   -4.7539 H   0  0  0  0  0  0  0  0  0  0  0  0
    2.8642   -2.3399   -2.8560 H   0  0  0  0  0  0  0  0  0  0  0  0
    0.8266    2.2962   -0.3887 H   0  0  0  0  0  0  0  0  0  0  0  0
    2.3052    0.8479   -2.0514 H   0  0  0  0  0  0  0  0  0  0  0  0
    6.4228    2.6508   -0.9438 H   0  0  0  0  0  0  0  0  0  0  0  0
  1  2  1  0  0  0  0
  1 27  1  0  0  0  0
  2  3  1  0  0  0  0
  2 28  1  0  0  0  0
  2 29  1  0  0  0  0
  3  4  1  1  0  0  0
  3  5  1  0  0  0  0
  3 22  1  0  0  0  0
  5  6  1  0  0  0  0
  6 18  1  0  0  0  0
  6  8  1  0  0  0  0
  6  7  1  6  0  0  0
  8  9  1  0  0  0  0
  9 10  2  0  0  0  0
  9 14  1  0  0  0  0
 10 11  1  0  0  0  0
 10 30  1  0  0  0  0
 11 12  2  0  0  0  0
 11 31  1  0  0  0  0
 12 13  1  0  0  0  0
 12 15  1  0  0  0  0
 13 14  2  0  0  0  0
 13 32  1  0  0  0  0
 14 33  1  0  0  0  0
 15 16  2  0  0  0  0
 15 17  1  0  0  0  0
 18 19  1  6  0  0  0
 18 20  1  0  0  0  0
 18 26  1  0  0  0  0
 20 22  1  0  0  0  0
 20 25  1  0  0  0  0
 20 21  1  6  0  0  0
 22 24  1  0  0  0  0
 22 23  1  1  0  0  0
 24 34  1  0  0  0  0
 25 35  1  0  0  0  0
 26 36  1  0  0  0  0
M  CHG  2  15   1  17  -1
M  END
$$$$
