150
 OpenBabel04121316033D

 22 22  0  0  0  0  0  0  0  0999 V2000
    1.0474    0.1061    0.0945 C   0  0  0  0  0  0  0  0  0  0  0  0
    2.5508    0.0909    0.0462 C   0  0  0  0  0  0  0  0  0  0  0  0
    3.2583    1.3052    0.0438 C   0  0  0  0  0  0  0  0  0  0  0  0
    4.6441    1.3414   -0.1730 C   0  0  0  0  0  0  0  0  0  0  0  0
    5.3061    2.5854   -0.1164 N   0  0  0  0  0  0  0  0  0  0  0  0
    5.3568    0.1305   -0.2525 C   0  0  0  0  0  0  0  0  0  0  0  0
    4.6650   -1.0811   -0.1060 C   0  0  0  0  0  0  0  0  0  0  0  0
    3.2624   -1.1160   -0.0283 C   0  0  0  0  0  0  0  0  0  0  0  0
    2.5495   -2.4402   -0.0618 C   0  0  0  0  0  0  0  0  0  0  0  0
    6.7670    0.1045   -0.2888 N   0  0  0  0  0  0  0  0  0  0  0  0
    0.6523    1.1244    0.1625 H   0  0  0  0  0  0  0  0  0  0  0  0
    0.6790   -0.4546    0.9590 H   0  0  0  0  0  0  0  0  0  0  0  0
    0.6479   -0.3391   -0.8233 H   0  0  0  0  0  0  0  0  0  0  0  0
    2.7192    2.2372    0.1853 H   0  0  0  0  0  0  0  0  0  0  0  0
    4.7223    3.3692   -0.3804 H   0  0  0  0  0  0  0  0  0  0  0  0
    6.1959    2.5880   -0.5974 H   0  0  0  0  0  0  0  0  0  0  0  0
    5.2241   -2.0117   -0.0813 H   0  0  0  0  0  0  0  0  0  0  0  0
    3.2510   -3.2789   -0.1091 H   0  0  0  0  0  0  0  0  0  0  0  0
    1.9171   -2.4922   -0.9548 H   0  0  0  0  0  0  0  0  0  0  0  0
    1.9291   -2.5723    0.8298 H   0  0  0  0  0  0  0  0  0  0  0  0
    7.1670    0.9189   -0.7361 H   0  0  0  0  0  0  0  0  0  0  0  0
    7.1439   -0.7588   -0.6605 H   0  0  0  0  0  0  0  0  0  0  0  0
  1  2  1  0  0  0  0
  1 11  1  0  0  0  0
  1 12  1  0  0  0  0
  1 13  1  0  0  0  0
  2  3  2  0  0  0  0
  2  8  1  0  0  0  0
  3  4  1  0  0  0  0
  3 14  1  0  0  0  0
  4  5  1  0  0  0  0
  4  6  2  0  0  0  0
  5 15  1  0  0  0  0
  5 16  1  0  0  0  0
  6  7  1  0  0  0  0
  6 10  1  0  0  0  0
  7  8  2  0  0  0  0
  7 17  1  0  0  0  0
  8  9  1  0  0  0  0
  9 18  1  0  0  0  0
  9 19  1  0  0  0  0
  9 20  1  0  0  0  0
 10 21  1  0  0  0  0
 10 22  1  0  0  0  0
M  END
$$$$
