156
 OpenBabel04121316033D

 53 55  0  0  0  0  0  0  0  0999 V2000
    0.9920   -0.0777    0.0299 O   0  0  0  0  0  0  0  0  0  0  0  0
    2.2163   -0.0680   -0.0167 C   0  0  0  0  0  0  0  0  0  0  0  0
    2.9104    0.7392   -1.0235 C   0  0  0  0  0  0  0  0  0  0  0  0
    2.6304    2.0909   -1.0623 C   0  0  0  0  0  0  0  0  0  0  0  0
    3.2241    2.8626   -2.0452 C   0  0  0  0  0  0  0  0  0  0  0  0
    4.1212    2.3091   -2.9873 C   0  0  0  0  0  0  0  0  0  0  0  0
    4.4183    0.9294   -2.9306 C   0  0  0  0  0  0  0  0  0  0  0  0
    3.8046    0.1616   -1.9271 C   0  0  0  0  0  0  0  0  0  0  0  0
    5.3747    0.2518   -3.9168 C   0  0  0  0  0  0  0  0  0  0  0  0
    4.8008   -1.1033   -4.3871 C   0  0  0  0  0  0  0  0  0  0  0  0
    6.7336    0.0114   -3.2269 C   0  0  0  0  0  0  0  0  0  0  0  0
    5.5930    1.1265   -5.1696 C   0  0  0  0  0  0  0  0  0  0  0  0
    5.9095    2.5657   -4.7725 C   0  0  0  0  0  0  0  0  0  0  0  0
    4.6984    3.2180   -4.0734 C   0  0  0  0  0  0  0  0  0  0  0  0
    5.1684    4.5528   -3.4594 C   0  0  0  0  0  0  0  0  0  0  0  0
    3.5999    3.4937   -5.1208 C   0  0  0  0  0  0  0  0  0  0  0  0
    3.0086   -0.8327    0.9619 C   0  0  0  0  0  0  0  0  0  0  0  0
    4.3454   -0.8061    1.0313 C   0  0  0  0  0  0  0  0  0  0  0  0
    5.0363   -1.6295    2.0039 C   0  0  0  0  0  0  0  0  0  0  0  0
    5.9736   -1.0599    2.8615 C   0  0  0  0  0  0  0  0  0  0  0  0
    6.7083   -1.8852    3.7090 C   0  0  0  0  0  0  0  0  0  0  0  0
    6.4387   -3.2636    3.7752 C   0  0  0  0  0  0  0  0  0  0  0  0
    5.4071   -3.7974    2.9948 C   0  0  0  0  0  0  0  0  0  0  0  0
    4.7663   -2.9975    2.0585 C   0  0  0  0  0  0  0  0  0  0  0  0
    7.3088   -4.0906    4.6531 C   0  0  0  0  0  0  0  0  0  0  0  0
    8.2423   -3.6032    5.2826 O   0  0  0  0  0  0  0  0  0  0  0  0
    7.0433   -5.4089    4.6916 O   0  0  0  0  0  0  0  0  0  0  0  0
    1.9524    2.5383   -0.3421 H   0  0  0  0  0  0  0  0  0  0  0  0
    2.9502    3.9128   -2.0767 H   0  0  0  0  0  0  0  0  0  0  0  0
    4.0197   -0.8995   -1.8364 H   0  0  0  0  0  0  0  0  0  0  0  0
    4.6866   -1.8168   -3.5643 H   0  0  0  0  0  0  0  0  0  0  0  0
    5.4556   -1.5823   -5.1212 H   0  0  0  0  0  0  0  0  0  0  0  0
    3.8113   -0.9708   -4.8416 H   0  0  0  0  0  0  0  0  0  0  0  0
    6.6346   -0.6275   -2.3440 H   0  0  0  0  0  0  0  0  0  0  0  0
    7.1947    0.9437   -2.8838 H   0  0  0  0  0  0  0  0  0  0  0  0
    7.4385   -0.4687   -3.9157 H   0  0  0  0  0  0  0  0  0  0  0  0
    4.6993    1.0998   -5.8045 H   0  0  0  0  0  0  0  0  0  0  0  0
    6.4014    0.7224   -5.7906 H   0  0  0  0  0  0  0  0  0  0  0  0
    6.2010    3.1425   -5.6582 H   0  0  0  0  0  0  0  0  0  0  0  0
    6.7829    2.5889   -4.1099 H   0  0  0  0  0  0  0  0  0  0  0  0
    5.9120    4.3787   -2.6719 H   0  0  0  0  0  0  0  0  0  0  0  0
    4.3460    5.1167   -3.0074 H   0  0  0  0  0  0  0  0  0  0  0  0
    5.6110    5.2056   -4.2165 H   0  0  0  0  0  0  0  0  0  0  0  0
    3.2324    2.5729   -5.5874 H   0  0  0  0  0  0  0  0  0  0  0  0
    3.9802    4.1392   -5.9196 H   0  0  0  0  0  0  0  0  0  0  0  0
    2.7268    3.9815   -4.6765 H   0  0  0  0  0  0  0  0  0  0  0  0
    2.4085   -1.4155    1.6545 H   0  0  0  0  0  0  0  0  0  0  0  0
    4.9830   -0.2174    0.3792 H   0  0  0  0  0  0  0  0  0  0  0  0
    6.1386    0.0159    2.8730 H   0  0  0  0  0  0  0  0  0  0  0  0
    7.4954   -1.4462    4.3209 H   0  0  0  0  0  0  0  0  0  0  0  0
    5.0685   -4.8220    3.0646 H   0  0  0  0  0  0  0  0  0  0  0  0
    4.0464   -3.4457    1.3755 H   0  0  0  0  0  0  0  0  0  0  0  0
    6.3126   -5.7400    4.1456 H   0  0  0  0  0  0  0  0  0  0  0  0
  1  2  2  0  0  0  0
  2  3  1  0  0  0  0
  2 17  1  0  0  0  0
  3  4  2  0  0  0  0
  3  8  1  0  0  0  0
  4  5  1  0  0  0  0
  4 28  1  0  0  0  0
  5  6  2  0  0  0  0
  5 29  1  0  0  0  0
  6  7  1  0  0  0  0
  6 14  1  0  0  0  0
  7  8  2  0  0  0  0
  7  9  1  0  0  0  0
  8 30  1  0  0  0  0
  9 10  1  0  0  0  0
  9 11  1  0  0  0  0
  9 12  1  0  0  0  0
 10 31  1  0  0  0  0
 10 32  1  0  0  0  0
 10 33  1  0  0  0  0
 11 34  1  0  0  0  0
 11 35  1  0  0  0  0
 11 36  1  0  0  0  0
 12 13  1  0  0  0  0
 12 37  1  0  0  0  0
 12 38  1  0  0  0  0
 13 14  1  0  0  0  0
 13 39  1  0  0  0  0
 13 40  1  0  0  0  0
 14 15  1  0  0  0  0
 14 16  1  0  0  0  0
 15 41  1  0  0  0  0
 15 42  1  0  0  0  0
 15 43  1  0  0  0  0
 16 44  1  0  0  0  0
 16 45  1  0  0  0  0
 16 46  1  0  0  0  0
 17 18  2  0  0  0  0
 17 47  1  0  0  0  0
 18 19  1  0  0  0  0
 18 48  1  0  0  0  0
 19 20  2  0  0  0  0
 19 24  1  0  0  0  0
 20 21  1  0  0  0  0
 20 49  1  0  0  0  0
 21 22  2  0  0  0  0
 21 50  1  0  0  0  0
 22 23  1  0  0  0  0
 22 25  1  0  0  0  0
 23 24  2  0  0  0  0
 23 51  1  0  0  0  0
 24 52  1  0  0  0  0
 25 26  2  0  0  0  0
 25 27  1  0  0  0  0
 27 53  1  0  0  0  0
M  END
$$$$
