159
 OpenBabel04121316033D

 28 28  0  0  0  0  0  0  0  0999 V2000
    0.9666    0.0330    0.0858 S   0  0  0  0  0  0  0  0  0  0  0  0
    2.7942    0.0513    0.0671 C   0  0  0  0  0  0  0  0  0  0  0  0
    3.3102   -1.3393    0.4456 C   0  0  0  0  0  0  0  0  0  0  0  0
    4.8140   -1.3893    0.5063 N   0  0  0  0  0  0  0  0  0  0  0  0
    5.3570   -2.9604    0.9306 S   0  0  0  0  0  0  0  0  0  0  0  0
    4.9720   -3.1692    2.3041 O   0  0  0  0  0  0  0  0  0  0  0  0
    4.9474   -3.8604   -0.1283 O   0  0  0  0  0  0  0  0  0  0  0  0
    7.1377   -2.9193    0.9005 C   0  0  0  0  0  0  0  0  0  0  0  0
    7.8485   -1.7259    0.8286 C   0  0  0  0  0  0  0  0  0  0  0  0
    9.2425   -1.7672    0.7534 C   0  0  0  0  0  0  0  0  0  0  0  0
    9.9066   -2.9923    0.6199 C   0  0  0  0  0  0  0  0  0  0  0  0
    9.2053   -4.2111    0.6796 C   0  0  0  0  0  0  0  0  0  0  0  0
    7.8158   -4.1545    0.9021 C   0  0  0  0  0  0  0  0  0  0  0  0
    9.9462   -5.5047    0.4517 C   0  0  0  0  0  0  0  0  0  0  0  0
   11.1368   -5.5801    0.1823 O   0  0  0  0  0  0  0  0  0  0  0  0
    9.2105   -6.6342    0.5218 O   0  0  0  0  0  0  0  0  0  0  0  0
   11.2592   -2.9797    0.4275 O   0  0  0  0  0  0  0  0  0  0  0  0
    0.7534    1.3088   -0.2684 H   0  0  0  0  0  0  0  0  0  0  0  0
    3.1448    0.8058    0.7796 H   0  0  0  0  0  0  0  0  0  0  0  0
    3.1426    0.3447   -0.9283 H   0  0  0  0  0  0  0  0  0  0  0  0
    2.9561   -2.0724   -0.2873 H   0  0  0  0  0  0  0  0  0  0  0  0
    2.9256   -1.6023    1.4385 H   0  0  0  0  0  0  0  0  0  0  0  0
    5.1499   -0.7258    1.2054 H   0  0  0  0  0  0  0  0  0  0  0  0
    7.3497   -0.7635    0.8281 H   0  0  0  0  0  0  0  0  0  0  0  0
    9.8028   -0.8361    0.7794 H   0  0  0  0  0  0  0  0  0  0  0  0
    7.2186   -5.0451    1.0670 H   0  0  0  0  0  0  0  0  0  0  0  0
    8.2579   -6.5684    0.6797 H   0  0  0  0  0  0  0  0  0  0  0  0
   11.6021   -2.0852    0.2832 H   0  0  0  0  0  0  0  0  0  0  0  0
  1  2  1  0  0  0  0
  1 18  1  0  0  0  0
  2  3  1  0  0  0  0
  2 19  1  0  0  0  0
  2 20  1  0  0  0  0
  3  4  1  0  0  0  0
  3 21  1  0  0  0  0
  3 22  1  0  0  0  0
  4  5  1  0  0  0  0
  4 23  1  0  0  0  0
  5  6  2  0  0  0  0
  5  7  2  0  0  0  0
  5  8  1  0  0  0  0
  8  9  2  0  0  0  0
  8 13  1  0  0  0  0
  9 10  1  0  0  0  0
  9 24  1  0  0  0  0
 10 11  2  0  0  0  0
 10 25  1  0  0  0  0
 11 12  1  0  0  0  0
 11 17  1  0  0  0  0
 12 13  2  0  0  0  0
 12 14  1  0  0  0  0
 13 26  1  0  0  0  0
 14 15  2  0  0  0  0
 14 16  1  0  0  0  0
 16 27  1  0  0  0  0
 17 28  1  0  0  0  0
M  END
$$$$
