15L
 OpenBabel04121316033D

 21 21  0  0  1  0  0  0  0  0999 V2000
    1.0442   -0.0206   -0.0364 O   0  0  0  0  0  0  0  0  0  0  0  0
    2.4762   -0.0446   -0.0634 C   0  0  1  0  0  0  0  0  0  0  0  0
    2.8529    0.1637    0.9438 H   0  0  0  0  0  0  0  0  0  0  0  0
    2.9543   -1.4359   -0.4832 C   0  0  0  0  0  0  0  0  0  0  0  0
    3.3822   -2.2682    0.3046 O   0  0  0  0  0  0  0  0  0  0  0  0
    2.6156   -1.7499   -1.7703 O   0  0  0  0  0  0  0  0  0  0  0  0
    3.1143   -0.8304   -2.7507 C   0  0  1  0  0  0  0  0  0  0  0  0
    2.7458   -1.1698   -3.7273 H   0  0  0  0  0  0  0  0  0  0  0  0
    2.5991    0.5842   -2.4843 C   0  0  1  0  0  0  0  0  0  0  0  0
    1.5025    0.6067   -2.5598 H   0  0  0  0  0  0  0  0  0  0  0  0
    2.9810    1.0058   -1.0563 C   0  0  2  0  0  0  0  0  0  0  0  0
    2.5401    1.9835   -0.8309 H   0  0  0  0  0  0  0  0  0  0  0  0
    4.3934    1.1603   -0.9310 O   0  0  0  0  0  0  0  0  0  0  0  0
    3.1211    1.4891   -3.4711 O   0  0  0  0  0  0  0  0  0  0  0  0
    4.6522   -0.9096   -2.8126 C   0  0  0  0  0  0  0  0  0  0  0  0
    5.3265   -1.6758   -2.1305 O   0  0  0  0  0  0  0  0  0  0  0  0
    5.2359   -0.0882   -3.7144 O   0  0  0  0  0  0  0  0  0  0  0  0
    0.7668   -0.7103    0.5980 H   0  0  0  0  0  0  0  0  0  0  0  0
    4.6956    1.7498   -1.6479 H   0  0  0  0  0  0  0  0  0  0  0  0
    2.5874    1.3679   -4.2825 H   0  0  0  0  0  0  0  0  0  0  0  0
    4.6302    0.5723   -4.1107 H   0  0  0  0  0  0  0  0  0  0  0  0
  1  2  1  0  0  0  0
  1 18  1  0  0  0  0
  2  3  1  1  0  0  0
  2  4  1  0  0  0  0
  2 11  1  0  0  0  0
  4  5  2  0  0  0  0
  4  6  1  0  0  0  0
  6  7  1  0  0  0  0
  7  8  1  6  0  0  0
  7  9  1  0  0  0  0
  7 15  1  0  0  0  0
  9 10  1  6  0  0  0
  9 11  1  0  0  0  0
  9 14  1  0  0  0  0
 11 12  1  1  0  0  0
 11 13  1  0  0  0  0
 13 19  1  0  0  0  0
 14 20  1  0  0  0  0
 15 16  2  0  0  0  0
 15 17  1  0  0  0  0
 17 21  1  0  0  0  0
M  END
$$$$
