164
 OpenBabel04121316033D

 29 29  0  0  1  0  0  0  0  0999 V2000
    0.9817   -0.1110   -0.1687 O   0  0  0  0  0  0  0  0  0  0  0  0
    2.3223   -0.1999   -0.0561 C   0  0  0  0  0  0  0  0  0  0  0  0
    2.9047   -1.2750   -0.0674 O   0  0  0  0  0  0  0  0  0  0  0  0
    3.0146    1.1286    0.0689 C   0  0  0  0  0  0  0  0  0  0  0  0
    4.5263    0.9101    0.0867 C   0  0  0  0  0  0  0  0  0  0  0  0
    5.2444    2.2164    0.2796 C   0  0  0  0  0  0  0  0  0  0  0  0
    4.6617    3.2951    0.3122 O   0  0  0  0  0  0  0  0  0  0  0  0
    6.7248    2.1790    0.2603 C   0  0  0  0  0  0  0  0  0  0  0  0
    7.4178    2.0135    1.3964 C   0  0  0  0  0  0  0  0  0  0  0  0
    8.8629    2.0403    1.3799 C   0  0  0  0  0  0  0  0  0  0  0  0
    9.5485    2.1764    0.2355 C   0  0  0  0  0  0  0  0  0  0  0  0
    8.8896    2.3007   -1.1057 C   0  0  2  0  0  0  0  0  0  0  0  0
    9.3355    3.1452   -1.6443 H   0  0  0  0  0  0  0  0  0  0  0  0
    7.3542    2.4091   -1.0817 C   0  0  2  0  0  0  0  0  0  0  0  0
    6.9379    1.6788   -1.7887 H   0  0  0  0  0  0  0  0  0  0  0  0
    6.9921    3.8190   -1.5095 C   0  0  0  0  0  0  0  0  0  0  0  0
    7.3995    4.8298   -0.9637 O   0  0  0  0  0  0  0  0  0  0  0  0
    6.1612    3.8587   -2.5793 O   0  0  0  0  0  0  0  0  0  0  0  0
    9.2366    1.1168   -1.8325 O   0  0  0  0  0  0  0  0  0  0  0  0
    0.6289    0.7956   -0.2489 H   0  0  0  0  0  0  0  0  0  0  0  0
    2.6988    1.6185    0.9971 H   0  0  0  0  0  0  0  0  0  0  0  0
    2.7372    1.7678   -0.7783 H   0  0  0  0  0  0  0  0  0  0  0  0
    4.8492    0.4605   -0.8610 H   0  0  0  0  0  0  0  0  0  0  0  0
    4.8102    0.2383    0.9041 H   0  0  0  0  0  0  0  0  0  0  0  0
    6.9246    1.9033    2.3589 H   0  0  0  0  0  0  0  0  0  0  0  0
    9.3893    1.9568    2.3272 H   0  0  0  0  0  0  0  0  0  0  0  0
   10.6348    2.2105    0.2443 H   0  0  0  0  0  0  0  0  0  0  0  0
    5.8867    2.9905   -2.9258 H   0  0  0  0  0  0  0  0  0  0  0  0
    8.9438    0.3620   -1.2905 H   0  0  0  0  0  0  0  0  0  0  0  0
  1  2  1  0  0  0  0
  1 20  1  0  0  0  0
  2  3  2  0  0  0  0
  2  4  1  0  0  0  0
  4  5  1  0  0  0  0
  4 21  1  0  0  0  0
  4 22  1  0  0  0  0
  5  6  1  0  0  0  0
  5 23  1  0  0  0  0
  5 24  1  0  0  0  0
  6  7  2  0  0  0  0
  6  8  1  0  0  0  0
  8  9  2  0  0  0  0
  8 14  1  0  0  0  0
  9 10  1  0  0  0  0
  9 25  1  0  0  0  0
 10 11  2  0  0  0  0
 10 26  1  0  0  0  0
 11 12  1  0  0  0  0
 11 27  1  0  0  0  0
 12 14  1  0  0  0  0
 12 19  1  0  0  0  0
 12 13  1  6  0  0  0
 14 16  1  0  0  0  0
 14 15  1  6  0  0  0
 16 17  2  0  0  0  0
 16 18  1  0  0  0  0
 18 28  1  0  0  0  0
 19 29  1  0  0  0  0
M  END
$$$$
