165
 OpenBabel04121316033D

 74 78  0  0  1  0  0  0  0  0999 V2000
    3.2571    1.5623   -0.1775 O   0  0  0  0  0  0  0  0  0  0  0  0
    3.2612    0.5975   -0.9644 C   0  0  0  0  0  0  0  0  0  0  0  0
    2.9728   -1.1791   -0.8046 C   0  0  2  0  0  0  0  0  0  0  0  0
    3.7922   -1.6978   -0.3269 H   0  0  0  0  0  0  0  0  0  0  0  0
    2.7582   -2.0926   -2.0168 C   0  0  0  0  0  0  0  0  0  0  0  0
    1.4729   -1.4832   -2.4934 C   0  0  0  0  0  0  0  0  0  0  0  0
    0.6845   -1.6267   -1.2047 C   0  0  0  0  0  0  0  0  0  0  0  0
    1.7046   -1.5237   -0.1469 N   0  0  0  0  0  0  0  0  0  0  0  0
    1.3620   -1.6992    1.1845 C   0  0  0  0  0  0  0  0  0  0  0  0
    0.1692   -1.9325    1.4443 O   0  0  0  0  0  0  0  0  0  0  0  0
    2.4002   -1.6298    2.3824 C   0  0  2  0  0  0  0  0  0  0  0  0
    2.2018   -0.6907    2.9241 H   0  0  0  0  0  0  0  0  0  0  0  0
    3.9414   -1.7481    2.1080 N   0  0  0  0  0  0  0  0  0  0  0  0
    4.5218   -0.2378    1.5828 S   0  0  0  0  0  0  0  0  0  0  0  0
    3.2133    0.1953    1.2902 O   0  0  0  0  0  0  0  0  0  0  0  0
    5.1664    0.4894    2.6754 O   0  0  0  0  0  0  0  0  0  0  0  0
    5.9455   -0.7387    0.1466 C   0  0  0  0  0  0  0  0  0  0  0  0
    6.3486    0.3062   -0.9329 C   0  0  0  0  0  0  0  0  0  0  0  0
    6.4445    1.6523   -0.6252 C   0  0  0  0  0  0  0  0  0  0  0  0
    6.3809    2.6389   -1.6328 C   0  0  0  0  0  0  0  0  0  0  0  0
    6.3587    2.3062   -2.9838 C   0  0  0  0  0  0  0  0  0  0  0  0
    6.6054    0.9862   -3.3249 C   0  0  0  0  0  0  0  0  0  0  0  0
    6.6576   -0.0085   -2.2962 C   0  0  0  0  0  0  0  0  0  0  0  0
    2.0732   -2.6614    3.4248 C   0  0  0  0  0  0  0  0  0  0  0  0
    2.2268   -4.0618    2.8175 C   0  0  0  0  0  0  0  0  0  0  0  0
    3.6435   -4.6095    3.0431 C   0  0  0  0  0  0  0  0  0  0  0  0
    3.9294   -4.7742    4.5267 C   0  0  0  0  0  0  0  0  0  0  0  0
    2.8813   -5.6821    5.1500 C   0  0  0  0  0  0  0  0  0  0  0  0
    1.4583   -5.1697    4.9213 C   0  0  0  0  0  0  0  0  0  0  0  0
    1.1824   -4.9844    3.4342 C   0  0  0  0  0  0  0  0  0  0  0  0
    3.6413    1.2590   -2.0279 N   0  0  0  0  0  0  0  0  0  0  0  0
    3.6286    0.7927   -3.2628 C   0  0  0  0  0  0  0  0  0  0  0  0
    4.1911   -0.4352   -3.4956 C   0  0  0  0  0  0  0  0  0  0  0  0
    4.0465   -1.1201   -4.6599 C   0  0  0  0  0  0  0  0  0  0  0  0
    3.3372   -0.4068   -5.6026 C   0  0  0  0  0  0  0  0  0  0  0  0
    2.8696    0.8920   -5.3357 C   0  0  0  0  0  0  0  0  0  0  0  0
    2.9957    1.5631   -4.1599 C   0  0  0  0  0  0  0  0  0  0  0  0
    2.1115    1.5418   -6.6795 S   0  0  0  0  0  0  0  0  0  0  0  0
    2.4726    0.1015   -7.4824 C   0  0  0  0  0  0  0  0  0  0  0  0
    3.0443   -0.8734   -6.8404 N   0  0  0  0  0  0  0  0  0  0  0  0
    2.1468    0.0814   -8.7535 N   0  0  0  0  0  0  0  0  0  0  0  0
    2.6505   -3.1525   -1.7354 H   0  0  0  0  0  0  0  0  0  0  0  0
    3.5589   -2.2707   -2.7059 H   0  0  0  0  0  0  0  0  0  0  0  0
    1.0991   -1.9430   -3.4031 H   0  0  0  0  0  0  0  0  0  0  0  0
    1.5474   -0.4092   -2.6936 H   0  0  0  0  0  0  0  0  0  0  0  0
    0.1970   -2.6046   -1.2080 H   0  0  0  0  0  0  0  0  0  0  0  0
   -0.0196   -0.8101   -1.0636 H   0  0  0  0  0  0  0  0  0  0  0  0
    4.0152   -2.4939    1.4181 H   0  0  0  0  0  0  0  0  0  0  0  0
    5.7051   -1.7075   -0.3151 H   0  0  0  0  0  0  0  0  0  0  0  0
    6.8016   -0.8828    0.7993 H   0  0  0  0  0  0  0  0  0  0  0  0
    6.4640    1.9565    0.4128 H   0  0  0  0  0  0  0  0  0  0  0  0
    6.2243    3.6721   -1.3405 H   0  0  0  0  0  0  0  0  0  0  0  0
    6.0505    3.0350   -3.7361 H   0  0  0  0  0  0  0  0  0  0  0  0
    6.4793    0.6983   -4.3791 H   0  0  0  0  0  0  0  0  0  0  0  0
    6.6745   -1.0439   -2.6591 H   0  0  0  0  0  0  0  0  0  0  0  0
    1.0649   -2.4796    3.8187 H   0  0  0  0  0  0  0  0  0  0  0  0
    2.7463   -2.4745    4.2676 H   0  0  0  0  0  0  0  0  0  0  0  0
    2.0388   -4.0401    1.7368 H   0  0  0  0  0  0  0  0  0  0  0  0
    4.4222   -3.9758    2.6185 H   0  0  0  0  0  0  0  0  0  0  0  0
    3.7416   -5.5681    2.5221 H   0  0  0  0  0  0  0  0  0  0  0  0
    3.9271   -3.8092    5.0454 H   0  0  0  0  0  0  0  0  0  0  0  0
    4.9374   -5.1727    4.6608 H   0  0  0  0  0  0  0  0  0  0  0  0
    3.0771   -5.7682    6.2205 H   0  0  0  0  0  0  0  0  0  0  0  0
    2.9787   -6.6767    4.7012 H   0  0  0  0  0  0  0  0  0  0  0  0
    1.3240   -4.2145    5.4458 H   0  0  0  0  0  0  0  0  0  0  0  0
    0.7300   -5.8658    5.3439 H   0  0  0  0  0  0  0  0  0  0  0  0
    0.1769   -4.5717    3.2767 H   0  0  0  0  0  0  0  0  0  0  0  0
    1.2110   -5.9498    2.9171 H   0  0  0  0  0  0  0  0  0  0  0  0
    3.6433    2.2509   -1.7995 H   0  0  0  0  0  0  0  0  0  0  0  0
    4.6889   -0.9003   -2.6589 H   0  0  0  0  0  0  0  0  0  0  0  0
    4.3870   -2.1492   -4.7353 H   0  0  0  0  0  0  0  0  0  0  0  0
    2.5565    2.5207   -3.9135 H   0  0  0  0  0  0  0  0  0  0  0  0
    1.7522    0.9323   -9.1220 H   0  0  0  0  0  0  0  0  0  0  0  0
    2.3273   -0.7242   -9.3230 H   0  0  0  0  0  0  0  0  0  0  0  0
  1  2  2  0  0  0  0
  2 31  1  0  0  0  0
  3  5  1  0  0  0  0
  3  8  1  0  0  0  0
  3  4  1  1  0  0  0
  3  2  1  0  0  0  0
  5  6  1  0  0  0  0
  5 42  1  0  0  0  0
  5 43  1  0  0  0  0
  6  7  1  0  0  0  0
  6 44  1  0  0  0  0
  6 45  1  0  0  0  0
  7  8  1  0  0  0  0
  7 46  1  0  0  0  0
  7 47  1  0  0  0  0
  8  9  1  0  0  0  0
  9 10  2  0  0  0  0
 11 13  1  0  0  0  0
 11 24  1  0  0  0  0
 11 12  1  1  0  0  0
 11  9  1  0  0  0  0
 13 14  1  0  0  0  0
 13 48  1  0  0  0  0
 14 15  2  0  0  0  0
 14 16  2  0  0  0  0
 14 17  1  0  0  0  0
 17 18  1  0  0  0  0
 17 49  1  0  0  0  0
 17 50  1  0  0  0  0
 18 19  2  0  0  0  0
 18 23  1  0  0  0  0
 19 20  1  0  0  0  0
 19 51  1  0  0  0  0
 20 21  2  0  0  0  0
 20 52  1  0  0  0  0
 21 22  1  0  0  0  0
 21 53  1  0  0  0  0
 22 23  2  0  0  0  0
 22 54  1  0  0  0  0
 23 55  1  0  0  0  0
 24 25  1  0  0  0  0
 24 56  1  0  0  0  0
 24 57  1  0  0  0  0
 25 26  1  0  0  0  0
 25 30  1  0  0  0  0
 25 58  1  0  0  0  0
 26 27  1  0  0  0  0
 26 59  1  0  0  0  0
 26 60  1  0  0  0  0
 27 28  1  0  0  0  0
 27 61  1  0  0  0  0
 27 62  1  0  0  0  0
 28 29  1  0  0  0  0
 28 63  1  0  0  0  0
 28 64  1  0  0  0  0
 29 30  1  0  0  0  0
 29 65  1  0  0  0  0
 29 66  1  0  0  0  0
 30 67  1  0  0  0  0
 30 68  1  0  0  0  0
 31 32  1  0  0  0  0
 31 69  1  0  0  0  0
 32 33  2  0  0  0  0
 32 37  1  0  0  0  0
 33 34  1  0  0  0  0
 33 70  1  0  0  0  0
 34 35  2  0  0  0  0
 34 71  1  0  0  0  0
 35 36  1  0  0  0  0
 35 40  1  0  0  0  0
 36 37  2  0  0  0  0
 36 38  1  0  0  0  0
 37 72  1  0  0  0  0
 38 39  1  0  0  0  0
 39 40  2  0  0  0  0
 39 41  1  0  0  0  0
 41 73  1  0  0  0  0
 41 74  1  0  0  0  0
M  END
$$$$
