16G
 OpenBabel04121316033D

 35 35  0  0  1  0  0  0  0  0999 V2000
    0.9698   -0.0324    0.1399 C   0  0  0  0  0  0  0  0  0  0  0  0
    2.4413    0.1886    0.2821 C   0  0  0  0  0  0  0  0  0  0  0  0
    2.9102    1.2894    0.0703 O   0  0  0  0  0  0  0  0  0  0  0  0
    3.1725   -0.9560    0.5670 N   0  0  0  0  0  0  0  0  0  0  0  0
    4.6525   -1.0005    0.5283 C   0  0  1  0  0  0  0  0  0  0  0  0
    5.0031   -0.7842    1.5452 H   0  0  0  0  0  0  0  0  0  0  0  0
    5.1509   -2.4310    0.1600 C   0  0  1  0  0  0  0  0  0  0  0  0
    6.2364   -2.5238    0.2803 H   0  0  0  0  0  0  0  0  0  0  0  0
    4.5691   -3.3873    1.0420 O   0  0  0  0  0  0  0  0  0  0  0  0
    4.8115   -2.7889   -1.1834 O   0  0  0  0  0  0  0  0  0  0  0  0
    5.3331   -1.8869   -2.1768 C   0  0  1  0  0  0  0  0  0  0  0  0
    4.9186   -2.2160   -3.1389 H   0  0  0  0  0  0  0  0  0  0  0  0
    4.8457   -0.4539   -1.9285 C   0  0  2  0  0  0  0  0  0  0  0  0
    5.2623    0.2528   -2.6512 H   0  0  0  0  0  0  0  0  0  0  0  0
    5.2462   -0.0158   -0.4952 C   0  0  2  0  0  0  0  0  0  0  0  0
    4.9335    1.0021   -0.2883 H   0  0  0  0  0  0  0  0  0  0  0  0
    6.6674    0.0581   -0.3232 O   0  0  0  0  0  0  0  0  0  0  0  0
    3.4336   -0.4726   -2.1745 O   0  0  0  0  0  0  0  0  0  0  0  0
    6.8408   -1.9525   -2.2671 C   0  0  0  0  0  0  0  0  0  0  0  0
    7.2854   -0.9406   -3.1555 O   0  0  0  0  0  0  0  0  0  0  0  0
    9.0153   -0.9446   -3.1398 P   0  0  0  0  0  0  0  0  0  0  0  0
    9.0517   -0.7139   -4.6416 O   0  0  0  0  0  0  0  0  0  0  0  0
    8.9346    0.4684   -2.3446 O   0  0  0  0  0  0  0  0  0  0  0  0
   10.7452   -0.9486   -3.1241 O   0  0  0  0  0  0  0  0  0  0  0  0
    0.5538    0.8570   -0.3467 H   0  0  0  0  0  0  0  0  0  0  0  0
    0.5362   -0.1453    1.1312 H   0  0  0  0  0  0  0  0  0  0  0  0
    0.7585   -0.8943   -0.4975 H   0  0  0  0  0  0  0  0  0  0  0  0
    2.7038   -1.8026    0.8749 H   0  0  0  0  0  0  0  0  0  0  0  0
    5.0243   -3.2845    1.8954 H   0  0  0  0  0  0  0  0  0  0  0  0
    6.9754    0.7942   -0.8878 H   0  0  0  0  0  0  0  0  0  0  0  0
    3.0706   -1.1917   -1.6209 H   0  0  0  0  0  0  0  0  0  0  0  0
    7.1692   -2.9410   -2.6012 H   0  0  0  0  0  0  0  0  0  0  0  0
    7.3376   -1.8069   -1.3068 H   0  0  0  0  0  0  0  0  0  0  0  0
    8.3016    1.0432   -2.8121 H   0  0  0  0  0  0  0  0  0  0  0  0
   11.0497   -1.6816   -3.6882 H   0  0  0  0  0  0  0  0  0  0  0  0
  1  2  1  0  0  0  0
  1 25  1  0  0  0  0
  1 26  1  0  0  0  0
  1 27  1  0  0  0  0
  2  3  2  0  0  0  0
  2  4  1  0  0  0  0
  4  5  1  0  0  0  0
  4 28  1  0  0  0  0
  5  6  1  1  0  0  0
  5  7  1  0  0  0  0
  5 15  1  0  0  0  0
  7  8  1  1  0  0  0
  7  9  1  0  0  0  0
  7 10  1  0  0  0  0
  9 29  1  0  0  0  0
 10 11  1  0  0  0  0
 11 12  1  6  0  0  0
 11 13  1  0  0  0  0
 11 19  1  0  0  0  0
 13 15  1  0  0  0  0
 13 18  1  0  0  0  0
 13 14  1  6  0  0  0
 15 16  1  1  0  0  0
 15 17  1  0  0  0  0
 17 30  1  0  0  0  0
 18 31  1  0  0  0  0
 19 20  1  0  0  0  0
 19 32  1  0  0  0  0
 19 33  1  0  0  0  0
 20 21  1  0  0  0  0
 21 22  2  0  0  0  0
 21 23  1  0  0  0  0
 21 24  1  0  0  0  0
 23 34  1  0  0  0  0
 24 35  1  0  0  0  0
M  END
$$$$
