173
 OpenBabel04121316033D

 17 17  0  0  0  0  0  0  0  0999 V2000
    0.9286    0.0344    0.0629 O   0  0  0  0  0  0  0  0  0  0  0  0
    2.1538    0.0904    0.1001 C   0  0  0  0  0  0  0  0  0  0  0  0
    2.8742   -0.8935    0.9283 C   0  0  0  0  0  0  0  0  0  0  0  0
    3.9212   -0.5291    1.7808 C   0  0  0  0  0  0  0  0  0  0  0  0
    4.6538   -1.5250    2.4270 C   0  0  0  0  0  0  0  0  0  0  0  0
    4.2503   -2.8581    2.3352 C   0  0  0  0  0  0  0  0  0  0  0  0
    3.1194   -3.2007    1.5952 C   0  0  0  0  0  0  0  0  0  0  0  0
    2.4646   -2.2285    0.8448 C   0  0  0  0  0  0  0  0  0  0  0  0
    2.9113    1.1085   -0.7808 C   0  0  0  0  0  0  0  0  0  0  0  0
    2.3014    1.9187   -1.4639 O   0  0  0  0  0  0  0  0  0  0  0  0
    4.2496    1.0477   -0.7840 O   0  0  0  0  0  0  0  0  0  0  0  0
    4.1756    0.5150    1.9519 H   0  0  0  0  0  0  0  0  0  0  0  0
    5.5268   -1.2666    3.0228 H   0  0  0  0  0  0  0  0  0  0  0  0
    4.8056   -3.6319    2.8605 H   0  0  0  0  0  0  0  0  0  0  0  0
    2.7484   -4.2228    1.5999 H   0  0  0  0  0  0  0  0  0  0  0  0
    1.6322   -2.5098    0.2011 H   0  0  0  0  0  0  0  0  0  0  0  0
    4.6739    0.3216   -0.2939 H   0  0  0  0  0  0  0  0  0  0  0  0
  1  2  2  0  0  0  0
  2  3  1  0  0  0  0
  2  9  1  0  0  0  0
  3  4  2  0  0  0  0
  3  8  1  0  0  0  0
  4  5  1  0  0  0  0
  4 12  1  0  0  0  0
  5  6  2  0  0  0  0
  5 13  1  0  0  0  0
  6  7  1  0  0  0  0
  6 14  1  0  0  0  0
  7  8  2  0  0  0  0
  7 15  1  0  0  0  0
  8 16  1  0  0  0  0
  9 10  2  0  0  0  0
  9 11  1  0  0  0  0
 11 17  1  0  0  0  0
M  END
$$$$
