174
 OpenBabel04121316033D

 15 15  0  0  0  0  0  0  0  0999 V2000
    0.9498   -0.0203    0.0759 O   0  0  0  0  0  0  0  0  0  0  0  0
    2.2949   -0.0712    0.0543 C   0  0  0  0  0  0  0  0  0  0  0  0
    2.9442   -0.6780   -0.7840 O   0  0  0  0  0  0  0  0  0  0  0  0
    2.9244    0.6736    1.1627 C   0  0  0  0  0  0  0  0  0  0  0  0
    2.6635    2.0382    1.3290 C   0  0  0  0  0  0  0  0  0  0  0  0
    3.4148    2.7740    2.2498 C   0  0  0  0  0  0  0  0  0  0  0  0
    4.3382    2.1260    3.0714 C   0  0  0  0  0  0  0  0  0  0  0  0
    4.5172    0.7457    2.9820 C   0  0  0  0  0  0  0  0  0  0  0  0
    3.8572    0.0268    1.9813 C   0  0  0  0  0  0  0  0  0  0  0  0
    5.2881    3.0425    4.1747 Cl  0  0  0  0  0  0  0  0  0  0  0  0
    0.5654    0.4062    0.8649 H   0  0  0  0  0  0  0  0  0  0  0  0
    1.9258    2.5440    0.7115 H   0  0  0  0  0  0  0  0  0  0  0  0
    3.2923    3.8528    2.3092 H   0  0  0  0  0  0  0  0  0  0  0  0
    5.1886    0.2331    3.6668 H   0  0  0  0  0  0  0  0  0  0  0  0
    4.0826   -1.0278    1.8335 H   0  0  0  0  0  0  0  0  0  0  0  0
  1  2  1  0  0  0  0
  1 11  1  0  0  0  0
  2  3  2  0  0  0  0
  2  4  1  0  0  0  0
  4  5  2  0  0  0  0
  4  9  1  0  0  0  0
  5  6  1  0  0  0  0
  5 12  1  0  0  0  0
  6  7  2  0  0  0  0
  6 13  1  0  0  0  0
  7  8  1  0  0  0  0
  7 10  1  0  0  0  0
  8  9  2  0  0  0  0
  8 14  1  0  0  0  0
  9 15  1  0  0  0  0
M  END
$$$$
