17B
 OpenBabel04121316033D

 38 38  0  0  1  0  0  0  0  0999 V2000
    1.0681   -0.0517   -0.0169 N   0  0  0  0  0  0  0  0  0  0  0  0
    2.5265   -0.0647   -0.0171 C   0  0  0  0  0  0  0  0  0  0  0  0
    3.0518    0.5838   -1.2931 C   0  0  0  0  0  0  0  0  0  0  0  0
    4.5804    0.5876   -1.3216 C   0  0  0  0  0  0  0  0  0  0  0  0
    5.0889    1.2202   -2.6117 C   0  0  0  0  0  0  0  0  0  0  0  0
    6.5519    1.1204   -2.6492 N   0  0  0  0  0  0  0  0  0  0  0  0
    7.1277    1.7605   -3.6052 C   0  0  0  0  0  0  0  0  0  0  0  0
    6.4684    2.5105   -4.5601 N   0  0  0  0  0  0  0  0  0  0  0  0
    6.9320    3.8554   -4.8553 C   0  0  2  0  0  0  0  0  0  0  0  0
    6.6594    4.4583   -3.9789 H   0  0  0  0  0  0  0  0  0  0  0  0
    6.2023    4.4775   -6.0501 C   0  0  0  0  0  0  0  0  0  0  0  0
    6.5082    5.8590   -6.2126 O   0  0  0  0  0  0  0  0  0  0  0  0
    8.4678    3.9215   -4.9871 C   0  0  2  0  0  0  0  0  0  0  0  0
    8.7972    3.4616   -5.9270 H   0  0  0  0  0  0  0  0  0  0  0  0
    9.1236    3.2191   -3.7852 C   0  0  1  0  0  0  0  0  0  0  0  0
    8.8781    3.7668   -2.8668 H   0  0  0  0  0  0  0  0  0  0  0  0
    8.6673    1.7628   -3.6739 C   0  0  2  0  0  0  0  0  0  0  0  0
    9.1013    1.2820   -2.7911 H   0  0  0  0  0  0  0  0  0  0  0  0
    9.0969    1.0369   -4.8282 O   0  0  0  0  0  0  0  0  0  0  0  0
   10.5523    3.2877   -3.9339 O   0  0  0  0  0  0  0  0  0  0  0  0
    8.9664    5.2713   -4.9914 O   0  0  0  0  0  0  0  0  0  0  0  0
    0.7288   -0.5208    0.8218 H   0  0  0  0  0  0  0  0  0  0  0  0
    0.7225   -0.5962   -0.8064 H   0  0  0  0  0  0  0  0  0  0  0  0
    2.8825   -1.0980    0.0577 H   0  0  0  0  0  0  0  0  0  0  0  0
    2.8906    0.4801    0.8602 H   0  0  0  0  0  0  0  0  0  0  0  0
    2.6802    1.6140   -1.3678 H   0  0  0  0  0  0  0  0  0  0  0  0
    2.6734    0.0418   -2.1694 H   0  0  0  0  0  0  0  0  0  0  0  0
    4.9586   -0.4384   -1.2400 H   0  0  0  0  0  0  0  0  0  0  0  0
    4.9699    1.1395   -0.4567 H   0  0  0  0  0  0  0  0  0  0  0  0
    4.7564    2.2665   -2.6471 H   0  0  0  0  0  0  0  0  0  0  0  0
    4.6671    0.6878   -3.4717 H   0  0  0  0  0  0  0  0  0  0  0  0
    5.9585    1.9859   -5.2672 H   0  0  0  0  0  0  0  0  0  0  0  0
    5.1183    4.3989   -5.9175 H   0  0  0  0  0  0  0  0  0  0  0  0
    6.4632    3.9596   -6.9781 H   0  0  0  0  0  0  0  0  0  0  0  0
    6.4300    6.3036   -5.3525 H   0  0  0  0  0  0  0  0  0  0  0  0
   10.0577    1.2052   -4.8887 H   0  0  0  0  0  0  0  0  0  0  0  0
   10.7417    4.2195   -4.1718 H   0  0  0  0  0  0  0  0  0  0  0  0
    8.5157    5.7718   -4.2907 H   0  0  0  0  0  0  0  0  0  0  0  0
  1  2  1  0  0  0  0
  1 22  1  0  0  0  0
  1 23  1  0  0  0  0
  2  3  1  0  0  0  0
  2 24  1  0  0  0  0
  2 25  1  0  0  0  0
  3  4  1  0  0  0  0
  3 26  1  0  0  0  0
  3 27  1  0  0  0  0
  4  5  1  0  0  0  0
  4 28  1  0  0  0  0
  4 29  1  0  0  0  0
  5  6  1  0  0  0  0
  5 30  1  0  0  0  0
  5 31  1  0  0  0  0
  6  7  2  0  0  0  0
  7  8  1  0  0  0  0
  7 17  1  0  0  0  0
  8  9  1  0  0  0  0
  8 32  1  0  0  0  0
  9 10  1  1  0  0  0
  9 11  1  0  0  0  0
  9 13  1  0  0  0  0
 11 12  1  0  0  0  0
 11 33  1  0  0  0  0
 11 34  1  0  0  0  0
 12 35  1  0  0  0  0
 13 15  1  0  0  0  0
 13 21  1  0  0  0  0
 13 14  1  6  0  0  0
 15 16  1  1  0  0  0
 15 17  1  0  0  0  0
 15 20  1  0  0  0  0
 17 18  1  1  0  0  0
 17 19  1  0  0  0  0
 19 36  1  0  0  0  0
 20 37  1  0  0  0  0
 21 38  1  0  0  0  0
M  END
$$$$
