18N
 OpenBabel04121316033D

 22 24  0  0  0  0  0  0  0  0999 V2000
    1.0035   -0.0859    0.0574 O   0  0  0  0  0  0  0  0  0  0  0  0
    2.2286   -0.0795    0.0576 C   0  0  0  0  0  0  0  0  0  0  0  0
    2.9623   -1.2427    0.0575 N   0  0  0  0  0  0  0  0  0  0  0  0
    2.4398   -2.1070    0.0571 H   0  0  0  0  0  0  0  0  0  0  0  0
    4.3315   -1.3579    0.0563 C   0  0  0  0  0  0  0  0  0  0  0  0
    4.8928   -2.4471    0.0548 O   0  0  0  0  0  0  0  0  0  0  0  0
    5.0949   -0.0921    0.0568 C   0  0  0  0  0  0  0  0  0  0  0  0
    4.4032    1.1284    0.0568 C   0  0  0  0  0  0  0  0  0  0  0  0
    3.0009    1.1838    0.0575 C   0  0  0  0  0  0  0  0  0  0  0  0
    2.3295    2.4107    0.0584 C   0  0  0  0  0  0  0  0  0  0  0  0
    3.0589    3.5972    0.0570 C   0  0  0  0  0  0  0  0  0  0  0  0
    4.4547    3.5593    0.0546 C   0  0  0  0  0  0  0  0  0  0  0  0
    5.1407    2.3343    0.0559 C   0  0  0  0  0  0  0  0  0  0  0  0
    6.5443    2.2819    0.0568 C   0  0  0  0  0  0  0  0  0  0  0  0
    7.2149    1.0576    0.0576 C   0  0  0  0  0  0  0  0  0  0  0  0
    6.4920   -0.1309    0.0571 C   0  0  0  0  0  0  0  0  0  0  0  0
    1.2417    2.4429    0.0598 H   0  0  0  0  0  0  0  0  0  0  0  0
    2.5413    4.5536    0.0579 H   0  0  0  0  0  0  0  0  0  0  0  0
    5.0063    4.4980    0.0516 H   0  0  0  0  0  0  0  0  0  0  0  0
    7.1294    3.2000    0.0572 H   0  0  0  0  0  0  0  0  0  0  0  0
    8.3018    1.0298    0.0586 H   0  0  0  0  0  0  0  0  0  0  0  0
    7.0147   -1.0852    0.0571 H   0  0  0  0  0  0  0  0  0  0  0  0
  1  2  2  0  0  0  0
  2  3  1  0  0  0  0
  2  9  1  0  0  0  0
  3  4  1  0  0  0  0
  3  5  1  0  0  0  0
  5  6  2  0  0  0  0
  5  7  1  0  0  0  0
  7  8  2  0  0  0  0
  7 16  1  0  0  0  0
  8  9  1  0  0  0  0
  8 13  1  0  0  0  0
  9 10  2  0  0  0  0
 10 11  1  0  0  0  0
 10 17  1  0  0  0  0
 11 12  2  0  0  0  0
 11 18  1  0  0  0  0
 12 13  1  0  0  0  0
 12 19  1  0  0  0  0
 13 14  2  0  0  0  0
 14 15  1  0  0  0  0
 14 20  1  0  0  0  0
 15 16  2  0  0  0  0
 15 21  1  0  0  0  0
 16 22  1  0  0  0  0
M  END
$$$$
