190
 OpenBabel04121316033D

 77 79  0  0  1  0  0  0  0  0999 V2000
   -0.8515   -3.0725    3.3174 C   0  0  0  0  0  0  0  0  0  0  0  0
   -0.8845   -2.4410    1.9254 C   0  0  0  0  0  0  0  0  0  0  0  0
    0.2304   -1.4073    1.6534 C   0  0  0  0  0  0  0  0  0  0  0  0
    0.1408   -0.1537    2.5180 C   0  0  2  0  0  0  0  0  0  0  0  0
   -0.9177   -0.0124    2.7356 H   0  0  0  0  0  0  0  0  0  0  0  0
    0.9923    1.3722    1.3316 S   0  0  0  0  0  0  0  0  0  0  0  0
    0.9825    2.7376    1.8016 O   0  0  0  0  0  0  0  0  0  0  0  0
    2.2922    0.8910    0.8506 O   0  0  0  0  0  0  0  0  0  0  0  0
   -0.0947    1.5399   -0.0965 C   0  0  0  0  0  0  0  0  0  0  0  0
   -1.0663    2.5171   -0.2512 C   0  0  0  0  0  0  0  0  0  0  0  0
   -1.9577    2.4717   -1.3128 C   0  0  0  0  0  0  0  0  0  0  0  0
   -1.8164    1.5900   -2.3164 C   0  0  0  0  0  0  0  0  0  0  0  0
   -0.6552    0.8711   -2.3343 C   0  0  0  0  0  0  0  0  0  0  0  0
    0.1667    0.7923   -1.2045 C   0  0  0  0  0  0  0  0  0  0  0  0
   -2.7612    1.5203   -3.2578 F   0  0  0  0  0  0  0  0  0  0  0  0
    0.9059   -0.4402    3.8537 C   0  0  0  0  0  0  0  0  0  0  0  0
    0.5930    0.3571    5.1355 C   0  0  2  0  0  0  0  0  0  0  0  0
   -0.4354    0.1748    5.4678 H   0  0  0  0  0  0  0  0  0  0  0  0
    0.8184    1.8443    4.8860 C   0  0  2  0  0  0  0  0  0  0  0  0
    1.9048    1.9384    4.6755 H   0  0  0  0  0  0  0  0  0  0  0  0
    0.4035    3.0275    5.7376 C   0  0  0  0  0  0  0  0  0  0  0  0
    0.8037    2.9263    7.1337 C   0  0  0  0  0  0  0  0  0  0  0  0
    1.4283    4.0049    7.7200 C   0  0  0  0  0  0  0  0  0  0  0  0
    1.9793    3.8098    8.9647 C   0  0  0  0  0  0  0  0  0  0  0  0
    2.1096    2.5111    9.4666 C   0  0  0  0  0  0  0  0  0  0  0  0
    1.4371    1.4627    8.8693 C   0  0  0  0  0  0  0  0  0  0  0  0
    0.5925    1.7412    7.8276 C   0  0  0  0  0  0  0  0  0  0  0  0
    1.7863   -0.3291    9.3482 Br  0  0  0  0  0  0  0  0  0  0  0  0
    0.0032    2.1446    3.7567 N   0  0  0  0  0  0  0  0  0  0  0  0
   -1.3935    2.0328    3.7394 C   0  0  0  0  0  0  0  0  0  0  0  0
   -2.0470    1.6837    4.7285 O   0  0  0  0  0  0  0  0  0  0  0  0
   -2.0453    2.2409    2.3814 C   0  0  0  0  0  0  0  0  0  0  0  0
   -3.4398    2.4228    2.2153 O   0  0  0  0  0  0  0  0  0  0  0  0
   -3.9433    2.5553    0.9275 C   0  0  0  0  0  0  0  0  0  0  0  0
   -4.3779    1.3975    0.1914 C   0  0  0  0  0  0  0  0  0  0  0  0
   -3.9887   -0.0312    0.5204 C   0  0  0  0  0  0  0  0  0  0  0  0
   -5.0702    1.5749   -1.0389 C   0  0  0  0  0  0  0  0  0  0  0  0
   -5.4098    2.8461   -1.5058 C   0  0  0  0  0  0  0  0  0  0  0  0
   -4.8579    3.9684   -0.8780 C   0  0  0  0  0  0  0  0  0  0  0  0
   -4.0778    3.8554    0.3141 C   0  0  0  0  0  0  0  0  0  0  0  0
   -3.1117    5.0308    0.5511 C   0  0  0  0  0  0  0  0  0  0  0  0
    1.4702   -0.2484    6.0837 O   0  0  0  0  0  0  0  0  0  0  0  0
   -0.7601   -3.5355    0.8739 C   0  0  0  0  0  0  0  0  0  0  0  0
   -1.0847   -2.3388    4.0952 H   0  0  0  0  0  0  0  0  0  0  0  0
    0.1302   -3.5169    3.5192 H   0  0  0  0  0  0  0  0  0  0  0  0
   -1.6049   -3.8583    3.4224 H   0  0  0  0  0  0  0  0  0  0  0  0
   -1.8617   -1.9576    1.8039 H   0  0  0  0  0  0  0  0  0  0  0  0
    0.1538   -1.1110    0.6106 H   0  0  0  0  0  0  0  0  0  0  0  0
    1.2191   -1.8584    1.7882 H   0  0  0  0  0  0  0  0  0  0  0  0
   -1.2718    3.2853    0.4574 H   0  0  0  0  0  0  0  0  0  0  0  0
   -2.8331    3.0728   -1.3781 H   0  0  0  0  0  0  0  0  0  0  0  0
   -0.3749    0.4081   -3.2573 H   0  0  0  0  0  0  0  0  0  0  0  0
    1.0392    0.1631   -1.1708 H   0  0  0  0  0  0  0  0  0  0  0  0
    1.9810   -0.4627    3.6697 H   0  0  0  0  0  0  0  0  0  0  0  0
    0.6983   -1.4608    4.1939 H   0  0  0  0  0  0  0  0  0  0  0  0
   -0.6682    3.2274    5.7158 H   0  0  0  0  0  0  0  0  0  0  0  0
    0.8418    3.9145    5.2369 H   0  0  0  0  0  0  0  0  0  0  0  0
    1.4740    4.9618    7.2021 H   0  0  0  0  0  0  0  0  0  0  0  0
    2.3476    4.6617    9.5156 H   0  0  0  0  0  0  0  0  0  0  0  0
    2.7153    2.3213   10.3399 H   0  0  0  0  0  0  0  0  0  0  0  0
   -0.0731    0.9780    7.4345 H   0  0  0  0  0  0  0  0  0  0  0  0
    0.5287    2.7676    3.1407 H   0  0  0  0  0  0  0  0  0  0  0  0
   -1.7607    1.3739    1.7771 H   0  0  0  0  0  0  0  0  0  0  0  0
   -1.5244    3.1563    2.1337 H   0  0  0  0  0  0  0  0  0  0  0  0
   -3.3472   -0.0945    1.3978 H   0  0  0  0  0  0  0  0  0  0  0  0
   -3.4253   -0.4954   -0.3073 H   0  0  0  0  0  0  0  0  0  0  0  0
   -4.8740   -0.6500    0.6973 H   0  0  0  0  0  0  0  0  0  0  0  0
   -5.2218    0.7315   -1.7211 H   0  0  0  0  0  0  0  0  0  0  0  0
   -5.9396    2.9546   -2.4527 H   0  0  0  0  0  0  0  0  0  0  0  0
   -4.8314    4.8912   -1.4648 H   0  0  0  0  0  0  0  0  0  0  0  0
   -3.3771    5.9133   -0.0454 H   0  0  0  0  0  0  0  0  0  0  0  0
   -2.1004    4.8673    0.1582 H   0  0  0  0  0  0  0  0  0  0  0  0
   -3.0084    5.2839    1.6021 H   0  0  0  0  0  0  0  0  0  0  0  0
    1.9799    0.4380    6.5414 H   0  0  0  0  0  0  0  0  0  0  0  0
    0.2108   -4.0356    0.9560 H   0  0  0  0  0  0  0  0  0  0  0  0
   -0.8420   -3.1087   -0.1308 H   0  0  0  0  0  0  0  0  0  0  0  0
   -1.5494   -4.2814    0.9952 H   0  0  0  0  0  0  0  0  0  0  0  0
  1  2  1  0  0  0  0
  1 44  1  0  0  0  0
  1 45  1  0  0  0  0
  1 46  1  0  0  0  0
  2  3  1  0  0  0  0
  2 43  1  0  0  0  0
  2 47  1  0  0  0  0
  3 48  1  0  0  0  0
  3 49  1  0  0  0  0
  4  6  1  0  0  0  0
  4 16  1  0  0  0  0
  4  5  1  1  0  0  0
  4  3  1  0  0  0  0
  6  7  2  0  0  0  0
  6  8  2  0  0  0  0
  6  9  1  0  0  0  0
  9 10  2  0  0  0  0
  9 14  1  0  0  0  0
 10 11  1  0  0  0  0
 10 50  1  0  0  0  0
 11 12  2  0  0  0  0
 11 51  1  0  0  0  0
 12 13  1  0  0  0  0
 12 15  1  0  0  0  0
 13 14  2  0  0  0  0
 13 52  1  0  0  0  0
 14 53  1  0  0  0  0
 16 54  1  0  0  0  0
 16 55  1  0  0  0  0
 17 42  1  0  0  0  0
 17 18  1  1  0  0  0
 17 16  1  0  0  0  0
 19 21  1  0  0  0  0
 19 29  1  0  0  0  0
 19 20  1  6  0  0  0
 19 17  1  0  0  0  0
 21 22  1  0  0  0  0
 21 56  1  0  0  0  0
 21 57  1  0  0  0  0
 22 23  2  0  0  0  0
 22 27  1  0  0  0  0
 23 24  1  0  0  0  0
 23 58  1  0  0  0  0
 24 25  2  0  0  0  0
 24 59  1  0  0  0  0
 25 26  1  0  0  0  0
 25 60  1  0  0  0  0
 26 27  2  0  0  0  0
 26 28  1  0  0  0  0
 27 61  1  0  0  0  0
 29 30  1  0  0  0  0
 29 62  1  0  0  0  0
 30 31  2  0  0  0  0
 30 32  1  0  0  0  0
 32 33  1  0  0  0  0
 32 63  1  0  0  0  0
 32 64  1  0  0  0  0
 33 34  1  0  0  0  0
 34 35  2  0  0  0  0
 34 40  1  0  0  0  0
 35 36  1  0  0  0  0
 35 37  1  0  0  0  0
 36 65  1  0  0  0  0
 36 66  1  0  0  0  0
 36 67  1  0  0  0  0
 37 38  2  0  0  0  0
 37 68  1  0  0  0  0
 38 39  1  0  0  0  0
 38 69  1  0  0  0  0
 39 40  2  0  0  0  0
 39 70  1  0  0  0  0
 40 41  1  0  0  0  0
 41 71  1  0  0  0  0
 41 72  1  0  0  0  0
 41 73  1  0  0  0  0
 42 74  1  0  0  0  0
 43 75  1  0  0  0  0
 43 76  1  0  0  0  0
 43 77  1  0  0  0  0
M  END
$$$$
