192
 OpenBabel04121316033D

 17 17  0  0  0  0  0  0  0  0999 V2000
    0.9991   -0.1310    0.2056 O   0  0  0  0  0  0  0  0  0  0  0  0
    2.3576   -0.0055    0.2025 C   0  0  0  0  0  0  0  0  0  0  0  0
    2.9110    0.7326    1.0163 O   0  0  0  0  0  0  0  0  0  0  0  0
    3.0620   -0.7958   -0.9589 C   0  0  0  0  0  0  0  0  0  0  0  0
    2.5706   -0.3685   -2.2895 N   0  0  0  0  0  0  0  0  0  0  0  0
    4.6182   -0.8204   -0.9779 C   0  0  0  0  0  0  0  0  0  0  0  0
    4.5724   -2.2964   -1.4159 C   0  0  0  0  0  0  0  0  0  0  0  0
    3.1223   -2.3430   -0.8898 C   0  0  0  0  0  0  0  0  0  0  0  0
    0.6879   -0.8602   -0.3632 H   0  0  0  0  0  0  0  0  0  0  0  0
    2.6721    0.6479   -2.3973 H   0  0  0  0  0  0  0  0  0  0  0  0
    1.5696   -0.5072   -2.4280 H   0  0  0  0  0  0  0  0  0  0  0  0
    5.0515   -0.7091    0.0250 H   0  0  0  0  0  0  0  0  0  0  0  0
    5.1499   -0.1357   -1.6450 H   0  0  0  0  0  0  0  0  0  0  0  0
    5.2785   -2.9558   -0.9001 H   0  0  0  0  0  0  0  0  0  0  0  0
    4.6783   -2.4557   -2.4951 H   0  0  0  0  0  0  0  0  0  0  0  0
    3.0738   -2.7112    0.1431 H   0  0  0  0  0  0  0  0  0  0  0  0
    2.4150   -2.9260   -1.4865 H   0  0  0  0  0  0  0  0  0  0  0  0
  1  2  1  0  0  0  0
  1  9  1  0  0  0  0
  2  3  2  0  0  0  0
  2  4  1  0  0  0  0
  4  5  1  0  0  0  0
  4  6  1  0  0  0  0
  4  8  1  0  0  0  0
  5 10  1  0  0  0  0
  5 11  1  0  0  0  0
  6  7  1  0  0  0  0
  6 12  1  0  0  0  0
  6 13  1  0  0  0  0
  7  8  1  0  0  0  0
  7 14  1  0  0  0  0
  7 15  1  0  0  0  0
  8 16  1  0  0  0  0
  8 17  1  0  0  0  0
M  END
$$$$
