198
 OpenBabel04121316033D

 43 44  0  0  1  0  0  0  0  0999 V2000
    9.1056    2.0129   -9.4749 N   0  0  0  0  0  0  0  0  0  0  0  0
    9.2805    1.4371   -8.4919 C   0  0  0  0  0  0  0  0  0  0  0  0
    9.5002    0.7663   -7.2422 C   0  0  0  0  0  0  0  0  0  0  0  0
    9.1041   -0.5725   -7.0955 C   0  0  0  0  0  0  0  0  0  0  0  0
    9.1744   -1.1987   -5.8472 C   0  0  0  0  0  0  0  0  0  0  0  0
    9.8214   -0.5496   -4.7959 C   0  0  0  0  0  0  0  0  0  0  0  0
   10.3202    0.7292   -4.9979 C   0  0  0  0  0  0  0  0  0  0  0  0
   10.0874    1.4374   -6.1728 C   0  0  0  0  0  0  0  0  0  0  0  0
   10.4920    2.8845   -6.1712 C   0  0  0  0  0  0  0  0  0  0  0  0
    9.8265    3.6020   -5.2227 F   0  0  0  0  0  0  0  0  0  0  0  0
   11.8165    3.0387   -5.8989 F   0  0  0  0  0  0  0  0  0  0  0  0
   10.2763    3.5373   -7.3378 F   0  0  0  0  0  0  0  0  0  0  0  0
    9.9026   -1.1706   -3.5341 N   0  0  0  0  0  0  0  0  0  0  0  0
   10.2194   -0.4841   -2.3598 C   0  0  0  0  0  0  0  0  0  0  0  0
   10.7065    0.6445   -2.3039 O   0  0  0  0  0  0  0  0  0  0  0  0
    9.8606   -1.1943   -1.0438 C   0  0  2  0  0  0  0  0  0  0  0  0
    8.3570   -1.1403   -0.7490 C   0  0  0  0  0  0  0  0  0  0  0  0
    7.3598   -1.6149   -2.1323 S   0  0  0  0  0  0  0  0  0  0  0  0
    7.3739   -0.5389   -3.1000 O   0  0  0  0  0  0  0  0  0  0  0  0
    7.7622   -2.9546   -2.5228 O   0  0  0  0  0  0  0  0  0  0  0  0
    5.6824   -1.7276   -1.6892 C   0  0  0  0  0  0  0  0  0  0  0  0
    5.2840   -1.8893   -0.3731 C   0  0  0  0  0  0  0  0  0  0  0  0
    3.9576   -2.2205   -0.1422 C   0  0  0  0  0  0  0  0  0  0  0  0
    3.0429   -2.2069   -1.1955 C   0  0  0  0  0  0  0  0  0  0  0  0
    3.4199   -1.8469   -2.4822 C   0  0  0  0  0  0  0  0  0  0  0  0
    4.7647   -1.6748   -2.7491 C   0  0  0  0  0  0  0  0  0  0  0  0
    1.7754   -2.5613   -0.9623 F   0  0  0  0  0  0  0  0  0  0  0  0
   10.5283   -0.4496    0.0027 O   0  0  0  0  0  0  0  0  0  0  0  0
   10.4476   -2.6006   -1.0383 C   0  0  0  0  0  0  0  0  0  0  0  0
    8.7255   -1.1285   -7.9509 H   0  0  0  0  0  0  0  0  0  0  0  0
    8.7104   -2.1750   -5.7150 H   0  0  0  0  0  0  0  0  0  0  0  0
   10.8895    1.2449   -4.2341 H   0  0  0  0  0  0  0  0  0  0  0  0
    9.3980   -2.0539   -3.4780 H   0  0  0  0  0  0  0  0  0  0  0  0
    8.1514   -1.8141    0.0886 H   0  0  0  0  0  0  0  0  0  0  0  0
    8.0491   -0.1318   -0.4527 H   0  0  0  0  0  0  0  0  0  0  0  0
    5.9734   -1.8030    0.4575 H   0  0  0  0  0  0  0  0  0  0  0  0
    3.6284   -2.4975    0.8525 H   0  0  0  0  0  0  0  0  0  0  0  0
    2.6810   -1.7361   -3.2676 H   0  0  0  0  0  0  0  0  0  0  0  0
    5.1025   -1.5086   -3.7732 H   0  0  0  0  0  0  0  0  0  0  0  0
   10.4530   -0.8954    0.8577 H   0  0  0  0  0  0  0  0  0  0  0  0
   10.3243   -3.0669   -0.0575 H   0  0  0  0  0  0  0  0  0  0  0  0
   11.5209   -2.5698   -1.2584 H   0  0  0  0  0  0  0  0  0  0  0  0
    9.9924   -3.2506   -1.7861 H   0  0  0  0  0  0  0  0  0  0  0  0
  1  2  3  0  0  0  0
  2  3  1  0  0  0  0
  3  4  2  0  0  0  0
  3  8  1  0  0  0  0
  4  5  1  0  0  0  0
  4 30  1  0  0  0  0
  5  6  2  0  0  0  0
  5 31  1  0  0  0  0
  6  7  1  0  0  0  0
  6 13  1  0  0  0  0
  7  8  2  0  0  0  0
  7 32  1  0  0  0  0
  8  9  1  0  0  0  0
  9 10  1  0  0  0  0
  9 11  1  0  0  0  0
  9 12  1  0  0  0  0
 13 14  1  0  0  0  0
 13 33  1  0  0  0  0
 14 15  2  0  0  0  0
 16 28  1  1  0  0  0
 16 29  1  0  0  0  0
 16 17  1  0  0  0  0
 16 14  1  0  0  0  0
 17 18  1  0  0  0  0
 17 34  1  0  0  0  0
 17 35  1  0  0  0  0
 18 19  2  0  0  0  0
 18 20  2  0  0  0  0
 18 21  1  0  0  0  0
 21 22  2  0  0  0  0
 21 26  1  0  0  0  0
 22 23  1  0  0  0  0
 22 36  1  0  0  0  0
 23 24  2  0  0  0  0
 23 37  1  0  0  0  0
 24 25  1  0  0  0  0
 24 27  1  0  0  0  0
 25 26  2  0  0  0  0
 25 38  1  0  0  0  0
 26 39  1  0  0  0  0
 28 40  1  0  0  0  0
 29 41  1  0  0  0  0
 29 42  1  0  0  0  0
 29 43  1  0  0  0  0
M  END
$$$$
