19E
 OpenBabel04121316033D

 31 34  0  0  0  0  0  0  0  0999 V2000
    0.9801   -0.1465   -0.1178 O   0  0  0  0  0  0  0  0  0  0  0  0
    2.3410   -0.0728   -0.0811 C   0  0  0  0  0  0  0  0  0  0  0  0
    3.0063    1.1134   -0.3454 C   0  0  0  0  0  0  0  0  0  0  0  0
    4.3957    1.1557   -0.2264 C   0  0  0  0  0  0  0  0  0  0  0  0
    5.1303    0.0232    0.1849 C   0  0  0  0  0  0  0  0  0  0  0  0
    4.4473   -1.2134    0.2973 C   0  0  0  0  0  0  0  0  0  0  0  0
    3.0468   -1.2364    0.2053 C   0  0  0  0  0  0  0  0  0  0  0  0
    5.1682   -2.3970    0.4789 C   0  0  0  0  0  0  0  0  0  0  0  0
    6.5612   -2.3928    0.5486 C   0  0  0  0  0  0  0  0  0  0  0  0
    7.2082   -1.1541    0.5563 C   0  0  0  0  0  0  0  0  0  0  0  0
    6.5387    0.0704    0.4611 C   0  0  0  0  0  0  0  0  0  0  0  0
    7.5258    1.1024    0.7244 C   0  0  0  0  0  0  0  0  0  0  0  0
    7.5444    2.4798    0.9964 C   0  0  0  0  0  0  0  0  0  0  0  0
    6.1349    3.3242    1.4275 Cl  0  0  0  0  0  0  0  0  0  0  0  0
    8.6862    3.1866    1.1152 N   0  0  0  0  0  0  0  0  0  0  0  0
    9.8551    2.5383    0.9749 C   0  0  0  0  0  0  0  0  0  0  0  0
    9.9909    1.1676    0.7876 C   0  0  0  0  0  0  0  0  0  0  0  0
    8.7769    0.4700    0.7061 C   0  0  0  0  0  0  0  0  0  0  0  0
    8.5498   -0.8815    0.6292 N   0  0  0  0  0  0  0  0  0  0  0  0
    9.2716   -1.5869    0.6680 H   0  0  0  0  0  0  0  0  0  0  0  0
   11.3351    0.5271    0.6691 C   0  0  0  0  0  0  0  0  0  0  0  0
    0.6282    0.7473   -0.2635 H   0  0  0  0  0  0  0  0  0  0  0  0
    2.4746    2.0121   -0.6416 H   0  0  0  0  0  0  0  0  0  0  0  0
    4.9021    2.0732   -0.5034 H   0  0  0  0  0  0  0  0  0  0  0  0
    2.4954   -2.1594    0.3592 H   0  0  0  0  0  0  0  0  0  0  0  0
    4.6475   -3.3515    0.5204 H   0  0  0  0  0  0  0  0  0  0  0  0
    7.1113   -3.3257    0.6289 H   0  0  0  0  0  0  0  0  0  0  0  0
   10.7301    3.1815    1.0394 H   0  0  0  0  0  0  0  0  0  0  0  0
   12.1394    1.2666    0.7335 H   0  0  0  0  0  0  0  0  0  0  0  0
   11.4172    0.0236   -0.2996 H   0  0  0  0  0  0  0  0  0  0  0  0
   11.4780   -0.2062    1.4681 H   0  0  0  0  0  0  0  0  0  0  0  0
  1  2  1  0  0  0  0
  1 22  1  0  0  0  0
  2  3  2  0  0  0  0
  2  7  1  0  0  0  0
  3  4  1  0  0  0  0
  3 23  1  0  0  0  0
  4  5  2  0  0  0  0
  4 24  1  0  0  0  0
  5  6  1  0  0  0  0
  5 11  1  0  0  0  0
  6  7  2  0  0  0  0
  6  8  1  0  0  0  0
  7 25  1  0  0  0  0
  8  9  2  0  0  0  0
  8 26  1  0  0  0  0
  9 10  1  0  0  0  0
  9 27  1  0  0  0  0
 10 11  2  0  0  0  0
 10 19  1  0  0  0  0
 11 12  1  0  0  0  0
 12 13  2  0  0  0  0
 12 18  1  0  0  0  0
 13 14  1  0  0  0  0
 13 15  1  0  0  0  0
 15 16  2  0  0  0  0
 16 17  1  0  0  0  0
 16 28  1  0  0  0  0
 17 18  2  0  0  0  0
 17 21  1  0  0  0  0
 18 19  1  0  0  0  0
 19 20  1  0  0  0  0
 21 29  1  0  0  0  0
 21 30  1  0  0  0  0
 21 31  1  0  0  0  0
M  END
$$$$
