1A2
 OpenBabel04121316033D

 52 55  0  0  1  0  0  0  0  0999 V2000
    4.5522   -5.3323    1.3960 C   0  0  0  0  0  0  0  0  0  0  0  0
    5.1361   -4.0500    0.8245 C   0  0  0  0  0  0  0  0  0  0  0  0
    4.1290   -3.1460    0.2603 N   0  0  0  0  0  0  0  0  0  0  0  0
    3.0572   -3.5601   -0.5348 C   0  0  0  0  0  0  0  0  0  0  0  0
    3.0576   -4.6925   -1.3648 C   0  0  0  0  0  0  0  0  0  0  0  0
    4.1677   -5.4332   -1.5059 F   0  0  0  0  0  0  0  0  0  0  0  0
    1.9396   -5.0709   -2.1159 C   0  0  0  0  0  0  0  0  0  0  0  0
    0.7799   -4.3068   -2.0723 C   0  0  0  0  0  0  0  0  0  0  0  0
    0.7565   -3.1654   -1.2840 C   0  0  0  0  0  0  0  0  0  0  0  0
    1.8798   -2.7895   -0.5362 C   0  0  0  0  0  0  0  0  0  0  0  0
    1.8830   -1.5629    0.2998 C   0  0  0  0  0  0  0  0  0  0  0  0
    2.9781   -1.0349    0.7480 N   0  0  0  0  0  0  0  0  0  0  0  0
    4.2522   -1.6770    0.3543 C   0  0  2  0  0  0  0  0  0  0  0  0
    4.7000   -1.1033   -1.0212 C   0  0  0  0  0  0  0  0  0  0  0  0
    4.8678    0.4151   -0.9424 C   0  0  0  0  0  0  0  0  0  0  0  0
    5.8742    0.7608    0.0641 N   0  0  0  0  0  0  0  0  0  0  0  0
    5.5464    0.2657    1.4006 C   0  0  0  0  0  0  0  0  0  0  0  0
    5.3360   -1.2445    1.3763 C   0  0  0  0  0  0  0  0  0  0  0  0
    7.0319    1.5036   -0.1368 C   0  0  0  0  0  0  0  0  0  0  0  0
    7.8553    1.7493    0.7403 O   0  0  0  0  0  0  0  0  0  0  0  0
    7.3027    1.9561   -1.5293 C   0  0  0  0  0  0  0  0  0  0  0  0
    7.2543    3.2536   -1.8705 C   0  0  0  0  0  0  0  0  0  0  0  0
    7.4322    3.7373   -3.1526 N   0  0  0  0  0  0  0  0  0  0  0  0
    7.6736    2.8583   -4.0744 C   0  0  0  0  0  0  0  0  0  0  0  0
    7.7992    1.3799   -3.9212 C   0  0  0  0  0  0  0  0  0  0  0  0
    7.6683    0.8929   -2.5005 C   0  0  0  0  0  0  0  0  0  0  0  0
    7.8022    3.3543   -5.4305 C   0  0  0  0  0  0  0  0  0  0  0  0
    7.9135    3.5911   -6.5588 N   0  0  0  0  0  0  0  0  0  0  0  0
    0.6987   -0.9585    0.6102 N   0  0  0  0  0  0  0  0  0  0  0  0
   -0.3707   -2.4363   -1.2645 F   0  0  0  0  0  0  0  0  0  0  0  0
    5.3363   -5.9124    1.8920 H   0  0  0  0  0  0  0  0  0  0  0  0
    4.1237   -5.9757    0.6301 H   0  0  0  0  0  0  0  0  0  0  0  0
    3.7680   -5.1101    2.1266 H   0  0  0  0  0  0  0  0  0  0  0  0
    5.9337   -4.2458    0.1013 H   0  0  0  0  0  0  0  0  0  0  0  0
    5.6192   -3.5897    1.6925 H   0  0  0  0  0  0  0  0  0  0  0  0
    1.9910   -5.9602   -2.7365 H   0  0  0  0  0  0  0  0  0  0  0  0
   -0.0957   -4.5840   -2.6513 H   0  0  0  0  0  0  0  0  0  0  0  0
    3.9833   -1.3394   -1.8153 H   0  0  0  0  0  0  0  0  0  0  0  0
    5.6499   -1.5736   -1.3177 H   0  0  0  0  0  0  0  0  0  0  0  0
    3.9289    0.8952   -0.6507 H   0  0  0  0  0  0  0  0  0  0  0  0
    5.1005    0.8188   -1.9276 H   0  0  0  0  0  0  0  0  0  0  0  0
    4.6282    0.7657    1.7257 H   0  0  0  0  0  0  0  0  0  0  0  0
    6.3282    0.5163    2.1244 H   0  0  0  0  0  0  0  0  0  0  0  0
    5.0796   -1.5935    2.3832 H   0  0  0  0  0  0  0  0  0  0  0  0
    6.3027   -1.6953    1.1032 H   0  0  0  0  0  0  0  0  0  0  0  0
    7.0438    4.0118   -1.1148 H   0  0  0  0  0  0  0  0  0  0  0  0
    8.7647    1.0667   -4.3309 H   0  0  0  0  0  0  0  0  0  0  0  0
    7.0108    0.9213   -4.5300 H   0  0  0  0  0  0  0  0  0  0  0  0
    8.5982    0.4085   -2.1861 H   0  0  0  0  0  0  0  0  0  0  0  0
    6.9136    0.1070   -2.5122 H   0  0  0  0  0  0  0  0  0  0  0  0
   -0.1919   -1.3127    0.2781 H   0  0  0  0  0  0  0  0  0  0  0  0
    0.6961   -0.1265    1.1839 H   0  0  0  0  0  0  0  0  0  0  0  0
  1  2  1  0  0  0  0
  1 31  1  0  0  0  0
  1 32  1  0  0  0  0
  1 33  1  0  0  0  0
  2  3  1  0  0  0  0
  2 34  1  0  0  0  0
  2 35  1  0  0  0  0
  3  4  1  0  0  0  0
  3 13  1  0  0  0  0
  4  5  2  0  0  0  0
  4 10  1  0  0  0  0
  5  6  1  0  0  0  0
  5  7  1  0  0  0  0
  7  8  2  0  0  0  0
  7 36  1  0  0  0  0
  8  9  1  0  0  0  0
  8 37  1  0  0  0  0
  9 10  2  0  0  0  0
  9 30  1  0  0  0  0
 10 11  1  0  0  0  0
 11 12  2  0  0  0  0
 11 29  1  0  0  0  0
 13 12  1  1  0  0  0
 13 14  1  0  0  0  0
 13 18  1  0  0  0  0
 14 15  1  0  0  0  0
 14 38  1  0  0  0  0
 14 39  1  0  0  0  0
 15 16  1  0  0  0  0
 15 40  1  0  0  0  0
 15 41  1  0  0  0  0
 16 17  1  0  0  0  0
 16 19  1  0  0  0  0
 17 18  1  0  0  0  0
 17 42  1  0  0  0  0
 17 43  1  0  0  0  0
 18 44  1  0  0  0  0
 18 45  1  0  0  0  0
 19 20  2  0  0  0  0
 19 21  1  0  0  0  0
 21 22  2  0  0  0  0
 21 26  1  0  0  0  0
 22 23  1  0  0  0  0
 22 46  1  0  0  0  0
 23 24  2  0  0  0  0
 24 25  1  0  0  0  0
 24 27  1  0  0  0  0
 25 26  1  0  0  0  0
 25 47  1  0  0  0  0
 25 48  1  0  0  0  0
 26 49  1  0  0  0  0
 26 50  1  0  0  0  0
 27 28  3  0  0  0  0
 29 51  1  0  0  0  0
 29 52  1  0  0  0  0
M  END
$$$$
