1AC
 OpenBabel04121316033D

 14 14  0  0  0  0  0  0  0  0999 V2000
    0.9182   -0.0251   -0.2039 O   0  0  0  0  0  0  0  0  0  0  0  0
    2.2760   -0.0094   -0.2300 C   0  0  0  0  0  0  0  0  0  0  0  0
    2.9260   -0.2674   -1.2325 O   0  0  0  0  0  0  0  0  0  0  0  0
    2.9161    0.3224    1.1046 C   0  0  0  0  0  0  0  0  0  0  0  0
    2.0961   -0.1086    2.2630 N   0  0  0  0  0  0  0  0  0  0  0  0
    4.4271    0.2119    1.2300 C   0  0  0  0  0  0  0  0  0  0  0  0
    3.7776    1.5633    1.2236 C   0  0  0  0  0  0  0  0  0  0  0  0
    0.5620    0.1860    0.6770 H   0  0  0  0  0  0  0  0  0  0  0  0
    1.7148   -1.0390    2.0724 H   0  0  0  0  0  0  0  0  0  0  0  0
    1.3198    0.5223    2.4462 H   0  0  0  0  0  0  0  0  0  0  0  0
    4.9978   -0.0752    0.3514 H   0  0  0  0  0  0  0  0  0  0  0  0
    4.8814   -0.1250    2.1552 H   0  0  0  0  0  0  0  0  0  0  0  0
    3.9262    2.1760    0.3397 H   0  0  0  0  0  0  0  0  0  0  0  0
    3.8159    2.1299    2.1476 H   0  0  0  0  0  0  0  0  0  0  0  0
  1  2  1  0  0  0  0
  1  8  1  0  0  0  0
  2  3  2  0  0  0  0
  2  4  1  0  0  0  0
  4  5  1  0  0  0  0
  4  6  1  0  0  0  0
  4  7  1  0  0  0  0
  5  9  1  0  0  0  0
  5 10  1  0  0  0  0
  6  7  1  0  0  0  0
  6 11  1  0  0  0  0
  6 12  1  0  0  0  0
  7 13  1  0  0  0  0
  7 14  1  0  0  0  0
M  END
$$$$
