1AE
 OpenBabel04121316033D

 24 23  0  0  0  0  0  0  0  0999 V2000
    0.9811   -0.0068   -0.1169 C   0  0  0  0  0  0  0  0  0  0  0  0
    2.4966    0.0003   -0.1353 C   0  0  0  0  0  0  0  0  0  0  0  0
    3.0580   -0.5698    1.1525 C   0  0  0  0  0  0  0  0  0  0  0  0
    4.5752   -0.5605    1.1402 C   0  0  0  0  0  0  0  0  0  0  0  0
    5.2586   -0.1424    0.1999 O   0  0  0  0  0  0  0  0  0  0  0  0
    5.2986   -1.0701    2.3311 C   0  0  0  0  0  0  0  0  0  0  0  0
    4.6175   -1.5314    3.3786 C   0  0  0  0  0  0  0  0  0  0  0  0
    5.2581   -2.0307    4.4659 O   0  0  0  0  0  0  0  0  0  0  0  0
    4.4096   -2.6243    5.8104 P   0  0  0  0  0  0  0  0  0  0  0  0
    3.7449   -3.7121    4.9704 O   0  0  0  0  0  0  0  0  0  0  0  0
    5.8029   -3.1612    6.4496 O   0  0  0  0  0  0  0  0  0  0  0  0
    3.5446   -3.2294    7.1810 O   0  0  0  0  0  0  0  0  0  0  0  0
    6.6819   -1.0609    2.3330 O   0  0  0  0  0  0  0  0  0  0  0  0
    0.5958    0.4067   -1.0525 H   0  0  0  0  0  0  0  0  0  0  0  0
    0.5980    0.5973    0.7118 H   0  0  0  0  0  0  0  0  0  0  0  0
    0.5971   -1.0258   -0.0048 H   0  0  0  0  0  0  0  0  0  0  0  0
    2.8599    1.0253   -0.2705 H   0  0  0  0  0  0  0  0  0  0  0  0
    2.8595   -0.5888   -0.9849 H   0  0  0  0  0  0  0  0  0  0  0  0
    2.7078   -1.6020    1.2822 H   0  0  0  0  0  0  0  0  0  0  0  0
    2.7066    0.0299    2.0022 H   0  0  0  0  0  0  0  0  0  0  0  0
    3.5440   -1.5954    3.4687 H   0  0  0  0  0  0  0  0  0  0  0  0
    6.5221   -3.0850    5.7955 H   0  0  0  0  0  0  0  0  0  0  0  0
    2.5948   -3.0800    7.0384 H   0  0  0  0  0  0  0  0  0  0  0  0
    6.9398   -0.7125    1.4550 H   0  0  0  0  0  0  0  0  0  0  0  0
  1  2  1  0  0  0  0
  1 14  1  0  0  0  0
  1 15  1  0  0  0  0
  1 16  1  0  0  0  0
  2  3  1  0  0  0  0
  2 17  1  0  0  0  0
  2 18  1  0  0  0  0
  3  4  1  0  0  0  0
  3 19  1  0  0  0  0
  3 20  1  0  0  0  0
  4  5  2  0  0  0  0
  4  6  1  0  0  0  0
  6  7  2  0  0  0  0
  6 13  1  0  0  0  0
  7  8  1  0  0  0  0
  7 21  1  0  0  0  0
  8  9  1  0  0  0  0
  9 10  2  0  0  0  0
  9 11  1  0  0  0  0
  9 12  1  0  0  0  0
 11 22  1  0  0  0  0
 12 23  1  0  0  0  0
 13 24  1  0  0  0  0
M  END
$$$$
