1BH
 OpenBabel04121316033D

 67 69  0  0  1  0  0  0  0  0999 V2000
   -4.3094    4.5895   -2.9675 O   0  0  0  0  0  0  0  0  0  0  0  0
   -3.7534    3.7483   -2.3102 C   0  0  0  0  0  0  0  0  0  0  0  0
   -4.0316    3.3993   -0.9987 N   0  0  0  0  0  0  0  0  0  0  0  0
   -5.0510    4.0780   -0.1746 C   0  0  2  0  0  0  0  0  0  0  0  0
   -4.5045    4.7031    0.5332 H   0  0  0  0  0  0  0  0  0  0  0  0
   -5.9175    3.0017    0.5921 C   0  0  0  0  0  0  0  0  0  0  0  0
   -7.1369    2.9185    0.4525 O   0  0  0  0  0  0  0  0  0  0  0  0
   -5.2227    2.0991    1.4022 N   0  0  0  0  0  0  0  0  0  0  0  0
   -5.3378    0.6725    1.2753 C   0  0  0  0  0  0  0  0  0  0  0  0
   -5.5975    0.1401    2.6828 C   0  0  0  0  0  0  0  0  0  0  0  0
   -4.9268    1.1322    3.6176 C   0  0  0  0  0  0  0  0  0  0  0  0
   -4.9380    2.4040    2.7998 C   0  0  1  0  0  0  0  0  0  0  0  0
   -5.6250    3.1455    3.2288 H   0  0  0  0  0  0  0  0  0  0  0  0
   -3.6238    3.0606    2.6176 C   0  0  0  0  0  0  0  0  0  0  0  0
   -3.7017    4.2861    2.5408 O   0  0  0  0  0  0  0  0  0  0  0  0
   -2.4895    2.3234    2.3261 N   0  0  0  0  0  0  0  0  0  0  0  0
   -1.2376    3.0322    2.0317 C   0  0  2  0  0  0  0  0  0  0  0  0
   -1.3055    3.2354    0.9504 H   0  0  0  0  0  0  0  0  0  0  0  0
    0.0311    2.1140    2.1653 C   0  0  2  0  0  0  0  0  0  0  0  0
   -0.1258    1.1896    1.6013 H   0  0  0  0  0  0  0  0  0  0  0  0
    0.2941    1.6142    3.4697 O   0  0  0  0  0  0  0  0  0  0  0  0
    1.2469    2.8210    1.5693 C   0  0  0  0  0  0  0  0  0  0  0  0
   -1.1562    4.4343    2.7805 C   0  0  0  0  0  0  0  0  0  0  0  0
   -1.3499    4.3322    4.2963 C   0  0  0  0  0  0  0  0  0  0  0  0
   -0.3767    3.6617    5.0183 C   0  0  0  0  0  0  0  0  0  0  0  0
   -0.6919    2.9764    6.1870 C   0  0  0  0  0  0  0  0  0  0  0  0
   -1.8699    3.2679    6.8502 C   0  0  0  0  0  0  0  0  0  0  0  0
   -2.7249    4.2191    6.3059 C   0  0  0  0  0  0  0  0  0  0  0  0
   -2.5010    4.7003    5.0067 C   0  0  0  0  0  0  0  0  0  0  0  0
   -5.9490    5.0054   -0.9906 C   0  0  0  0  0  0  0  0  0  0  0  0
   -2.7474    3.0761   -2.9015 O   0  0  0  0  0  0  0  0  0  0  0  0
   -2.0297    2.0024   -2.3260 C   0  0  0  0  0  0  0  0  0  0  0  0
   -1.1270    1.5064   -3.4163 C   0  0  0  0  0  0  0  0  0  0  0  0
   -1.5756    1.4668   -4.7497 C   0  0  0  0  0  0  0  0  0  0  0  0
   -0.8035    0.8702   -5.7377 C   0  0  0  0  0  0  0  0  0  0  0  0
    0.4688    0.4065   -5.4224 C   0  0  0  0  0  0  0  0  0  0  0  0
    0.9690    0.5511   -4.1274 C   0  0  0  0  0  0  0  0  0  0  0  0
    0.1549    1.0478   -3.1129 C   0  0  0  0  0  0  0  0  0  0  0  0
   -3.5036    2.6890   -0.5263 H   0  0  0  0  0  0  0  0  0  0  0  0
   -4.3402    0.3560    0.9476 H   0  0  0  0  0  0  0  0  0  0  0  0
   -6.0694    0.3757    0.5252 H   0  0  0  0  0  0  0  0  0  0  0  0
   -5.2024   -0.8687    2.8251 H   0  0  0  0  0  0  0  0  0  0  0  0
   -6.6725    0.1314    2.8880 H   0  0  0  0  0  0  0  0  0  0  0  0
   -3.9261    0.8109    3.9279 H   0  0  0  0  0  0  0  0  0  0  0  0
   -5.5011    1.2637    4.5455 H   0  0  0  0  0  0  0  0  0  0  0  0
   -2.5411    1.3245    2.1432 H   0  0  0  0  0  0  0  0  0  0  0  0
    1.1663    1.9214    3.7735 H   0  0  0  0  0  0  0  0  0  0  0  0
    2.1896    2.3859    1.9073 H   0  0  0  0  0  0  0  0  0  0  0  0
    1.2905    3.8814    1.8306 H   0  0  0  0  0  0  0  0  0  0  0  0
    1.1860    2.7669    0.4787 H   0  0  0  0  0  0  0  0  0  0  0  0
   -1.8810    5.1128    2.3156 H   0  0  0  0  0  0  0  0  0  0  0  0
   -0.2335    4.9613    2.5468 H   0  0  0  0  0  0  0  0  0  0  0  0
    0.6122    3.5771    4.5956 H   0  0  0  0  0  0  0  0  0  0  0  0
   -0.0139    2.2153    6.5607 H   0  0  0  0  0  0  0  0  0  0  0  0
   -2.0892    2.7889    7.7993 H   0  0  0  0  0  0  0  0  0  0  0  0
   -3.5909    4.5517    6.8702 H   0  0  0  0  0  0  0  0  0  0  0  0
   -3.2750    5.3183    4.5565 H   0  0  0  0  0  0  0  0  0  0  0  0
   -6.7147    5.4938   -0.3897 H   0  0  0  0  0  0  0  0  0  0  0  0
   -6.4462    4.4334   -1.7834 H   0  0  0  0  0  0  0  0  0  0  0  0
   -5.3639    5.8117   -1.4520 H   0  0  0  0  0  0  0  0  0  0  0  0
   -2.7073    1.1991   -2.0153 H   0  0  0  0  0  0  0  0  0  0  0  0
   -1.4568    2.3832   -1.4751 H   0  0  0  0  0  0  0  0  0  0  0  0
   -2.5328    1.9092   -5.0273 H   0  0  0  0  0  0  0  0  0  0  0  0
   -1.1956    0.7784   -6.7467 H   0  0  0  0  0  0  0  0  0  0  0  0
    1.0758   -0.0594   -6.1921 H   0  0  0  0  0  0  0  0  0  0  0  0
    1.9932    0.2669   -3.9071 H   0  0  0  0  0  0  0  0  0  0  0  0
    0.5271    1.0863   -2.0929 H   0  0  0  0  0  0  0  0  0  0  0  0
  1  2  2  0  0  0  0
  2  3  1  0  0  0  0
  2 31  1  0  0  0  0
  3 39  1  0  0  0  0
  4  6  1  0  0  0  0
  4 30  1  0  0  0  0
  4  5  1  1  0  0  0
  4  3  1  0  0  0  0
  6  7  2  0  0  0  0
  6  8  1  0  0  0  0
  8  9  1  0  0  0  0
  8 12  1  0  0  0  0
  9 10  1  0  0  0  0
  9 40  1  0  0  0  0
  9 41  1  0  0  0  0
 10 11  1  0  0  0  0
 10 42  1  0  0  0  0
 10 43  1  0  0  0  0
 11 12  1  0  0  0  0
 11 44  1  0  0  0  0
 11 45  1  0  0  0  0
 12 14  1  0  0  0  0
 12 13  1  1  0  0  0
 14 15  2  0  0  0  0
 14 16  1  0  0  0  0
 16 46  1  0  0  0  0
 17 23  1  0  0  0  0
 17 18  1  6  0  0  0
 17 16  1  0  0  0  0
 19 21  1  0  0  0  0
 19 22  1  0  0  0  0
 19 20  1  6  0  0  0
 19 17  1  0  0  0  0
 21 47  1  0  0  0  0
 22 48  1  0  0  0  0
 22 49  1  0  0  0  0
 22 50  1  0  0  0  0
 23 24  1  0  0  0  0
 23 51  1  0  0  0  0
 23 52  1  0  0  0  0
 24 25  2  0  0  0  0
 24 29  1  0  0  0  0
 25 26  1  0  0  0  0
 25 53  1  0  0  0  0
 26 27  2  0  0  0  0
 26 54  1  0  0  0  0
 27 28  1  0  0  0  0
 27 55  1  0  0  0  0
 28 29  2  0  0  0  0
 28 56  1  0  0  0  0
 29 57  1  0  0  0  0
 30 58  1  0  0  0  0
 30 59  1  0  0  0  0
 30 60  1  0  0  0  0
 31 32  1  0  0  0  0
 32 33  1  0  0  0  0
 32 61  1  0  0  0  0
 32 62  1  0  0  0  0
 33 34  2  0  0  0  0
 33 38  1  0  0  0  0
 34 35  1  0  0  0  0
 34 63  1  0  0  0  0
 35 36  2  0  0  0  0
 35 64  1  0  0  0  0
 36 37  1  0  0  0  0
 36 65  1  0  0  0  0
 37 38  2  0  0  0  0
 37 66  1  0  0  0  0
 38 67  1  0  0  0  0
M  END
$$$$
