1BU
 OpenBabel04121316043D

 68 72  0  0  0  0  0  0  0  0999 V2000
    1.6251   -0.0046   -1.5009 O   0  0  0  0  0  0  0  0  0  0  0  0
    2.4939   -0.0701   -0.6416 C   0  0  0  0  0  0  0  0  0  0  0  0
    2.9766   -1.3215   -0.2146 N   0  0  0  0  0  0  0  0  0  0  0  0
    2.1886   -2.4344   -0.0107 C   0  0  0  0  0  0  0  0  0  0  0  0
    2.7660   -3.6749    0.0225 C   0  0  0  0  0  0  0  0  0  0  0  0
    1.6910   -4.5800    0.0367 C   0  0  0  0  0  0  0  0  0  0  0  0
    0.5100   -3.9403    0.0607 N   0  0  0  0  0  0  0  0  0  0  0  0
    0.8182   -2.6120    0.1576 N   0  0  0  0  0  0  0  0  0  0  0  0
   -0.1912   -1.6152    0.3172 C   0  0  0  0  0  0  0  0  0  0  0  0
   -1.4963   -1.8874   -0.0669 C   0  0  0  0  0  0  0  0  0  0  0  0
   -2.3932   -0.8252   -0.1809 C   0  0  0  0  0  0  0  0  0  0  0  0
   -1.9315    0.4929   -0.1575 C   0  0  0  0  0  0  0  0  0  0  0  0
   -0.6362    0.7683    0.2543 C   0  0  0  0  0  0  0  0  0  0  0  0
    0.1270   -0.3093    0.7239 C   0  0  0  0  0  0  0  0  0  0  0  0
   -0.0558    2.1439    0.0328 C   0  0  0  0  0  0  0  0  0  0  0  0
    1.7821   -6.0953    0.0210 C   0  0  0  0  0  0  0  0  0  0  0  0
    1.1295   -6.6628    1.2913 C   0  0  0  0  0  0  0  0  0  0  0  0
    1.0754   -6.6631   -1.2200 C   0  0  0  0  0  0  0  0  0  0  0  0
    3.2561   -6.5656   -0.0109 C   0  0  0  0  0  0  0  0  0  0  0  0
    3.0277    0.9925    0.0304 N   0  0  0  0  0  0  0  0  0  0  0  0
    4.4090    1.0778    0.1520 C   0  0  0  0  0  0  0  0  0  0  0  0
    5.1249    0.0972    0.8408 C   0  0  0  0  0  0  0  0  0  0  0  0
    6.4979    0.1368    0.8785 C   0  0  0  0  0  0  0  0  0  0  0  0
    7.1537    1.1579    0.2138 C   0  0  0  0  0  0  0  0  0  0  0  0
    6.4170    2.0731   -0.5724 C   0  0  0  0  0  0  0  0  0  0  0  0
    5.0403    2.1065   -0.5233 C   0  0  0  0  0  0  0  0  0  0  0  0
    8.5425    1.2640    0.3462 N   0  0  0  0  0  0  0  0  0  0  0  0
    9.2674    2.4192    0.0290 C   0  0  0  0  0  0  0  0  0  0  0  0
   10.2425    2.2210   -0.8624 N   0  0  0  0  0  0  0  0  0  0  0  0
   10.7584    3.3211   -1.4043 C   0  0  0  0  0  0  0  0  0  0  0  0
   10.4160    4.5862   -1.1180 N   0  0  0  0  0  0  0  0  0  0  0  0
    9.4434    4.7637   -0.2131 C   0  0  0  0  0  0  0  0  0  0  0  0
    8.8472    3.6967    0.4501 C   0  0  0  0  0  0  0  0  0  0  0  0
    7.8074    3.9408    1.3870 C   0  0  0  0  0  0  0  0  0  0  0  0
    7.2178    5.1895    1.5112 C   0  0  0  0  0  0  0  0  0  0  0  0
    6.0149    5.3210    2.2082 N   0  0  0  0  0  0  0  0  0  0  0  0
    7.7238    6.2129    0.7254 C   0  0  0  0  0  0  0  0  0  0  0  0
    8.9207    6.0307    0.0162 C   0  0  0  0  0  0  0  0  0  0  0  0
    3.9676   -1.4822   -0.2802 H   0  0  0  0  0  0  0  0  0  0  0  0
    3.8208   -3.9067   -0.0359 H   0  0  0  0  0  0  0  0  0  0  0  0
   -1.8128   -2.8975   -0.3155 H   0  0  0  0  0  0  0  0  0  0  0  0
   -3.4450   -1.0201   -0.3533 H   0  0  0  0  0  0  0  0  0  0  0  0
   -2.5877    1.3075   -0.4509 H   0  0  0  0  0  0  0  0  0  0  0  0
    1.0372   -0.1202    1.2825 H   0  0  0  0  0  0  0  0  0  0  0  0
   -0.8278    2.8743   -0.2263 H   0  0  0  0  0  0  0  0  0  0  0  0
    0.6264    2.1558   -0.8300 H   0  0  0  0  0  0  0  0  0  0  0  0
    0.4873    2.4977    0.9109 H   0  0  0  0  0  0  0  0  0  0  0  0
    0.0720   -6.3829    1.3530 H   0  0  0  0  0  0  0  0  0  0  0  0
    1.6246   -6.2779    2.1909 H   0  0  0  0  0  0  0  0  0  0  0  0
    1.1891   -7.7559    1.3135 H   0  0  0  0  0  0  0  0  0  0  0  0
    0.0158   -6.3855   -1.2371 H   0  0  0  0  0  0  0  0  0  0  0  0
    1.1341   -7.7571   -1.2420 H   0  0  0  0  0  0  0  0  0  0  0  0
    1.5314   -6.2825   -2.1417 H   0  0  0  0  0  0  0  0  0  0  0  0
    3.8098   -6.1964    0.8617 H   0  0  0  0  0  0  0  0  0  0  0  0
    3.7720   -6.1981   -0.9071 H   0  0  0  0  0  0  0  0  0  0  0  0
    3.3339   -7.6578   -0.0111 H   0  0  0  0  0  0  0  0  0  0  0  0
    2.5788    1.8590   -0.2408 H   0  0  0  0  0  0  0  0  0  0  0  0
    4.6366   -0.7045    1.3823 H   0  0  0  0  0  0  0  0  0  0  0  0
    7.0329   -0.6066    1.4586 H   0  0  0  0  0  0  0  0  0  0  0  0
    6.9168    2.8335   -1.1698 H   0  0  0  0  0  0  0  0  0  0  0  0
    4.5032    2.8962   -1.0462 H   0  0  0  0  0  0  0  0  0  0  0  0
    8.9733    0.7225    1.0845 H   0  0  0  0  0  0  0  0  0  0  0  0
   11.5054    3.1636   -2.1726 H   0  0  0  0  0  0  0  0  0  0  0  0
    7.3843    3.1116    1.9475 H   0  0  0  0  0  0  0  0  0  0  0  0
    5.9056    4.6475    2.9626 H   0  0  0  0  0  0  0  0  0  0  0  0
    5.8192    6.2688    2.5178 H   0  0  0  0  0  0  0  0  0  0  0  0
    7.2064    7.1660    0.6579 H   0  0  0  0  0  0  0  0  0  0  0  0
    9.4211    6.8953   -0.4117 H   0  0  0  0  0  0  0  0  0  0  0  0
  1  2  2  0  0  0  0
  2  3  1  0  0  0  0
  2 20  1  0  0  0  0
  3  4  1  0  0  0  0
  3 39  1  0  0  0  0
  4  5  2  0  0  0  0
  4  8  1  0  0  0  0
  5  6  1  0  0  0  0
  5 40  1  0  0  0  0
  6  7  2  0  0  0  0
  6 16  1  0  0  0  0
  7  8  1  0  0  0  0
  8  9  1  0  0  0  0
  9 10  2  0  0  0  0
  9 14  1  0  0  0  0
 10 11  1  0  0  0  0
 10 41  1  0  0  0  0
 11 12  2  0  0  0  0
 11 42  1  0  0  0  0
 12 13  1  0  0  0  0
 12 43  1  0  0  0  0
 13 14  2  0  0  0  0
 13 15  1  0  0  0  0
 14 44  1  0  0  0  0
 15 45  1  0  0  0  0
 15 46  1  0  0  0  0
 15 47  1  0  0  0  0
 16 17  1  0  0  0  0
 16 18  1  0  0  0  0
 16 19  1  0  0  0  0
 17 48  1  0  0  0  0
 17 49  1  0  0  0  0
 17 50  1  0  0  0  0
 18 51  1  0  0  0  0
 18 52  1  0  0  0  0
 18 53  1  0  0  0  0
 19 54  1  0  0  0  0
 19 55  1  0  0  0  0
 19 56  1  0  0  0  0
 20 21  1  0  0  0  0
 20 57  1  0  0  0  0
 21 22  2  0  0  0  0
 21 26  1  0  0  0  0
 22 23  1  0  0  0  0
 22 58  1  0  0  0  0
 23 24  2  0  0  0  0
 23 59  1  0  0  0  0
 24 25  1  0  0  0  0
 24 27  1  0  0  0  0
 25 26  2  0  0  0  0
 25 60  1  0  0  0  0
 26 61  1  0  0  0  0
 27 28  1  0  0  0  0
 27 62  1  0  0  0  0
 28 29  2  0  0  0  0
 28 33  1  0  0  0  0
 29 30  1  0  0  0  0
 30 31  2  0  0  0  0
 30 63  1  0  0  0  0
 31 32  1  0  0  0  0
 32 33  2  0  0  0  0
 32 38  1  0  0  0  0
 33 34  1  0  0  0  0
 34 35  2  0  0  0  0
 34 64  1  0  0  0  0
 35 36  1  0  0  0  0
 35 37  1  0  0  0  0
 36 65  1  0  0  0  0
 36 66  1  0  0  0  0
 37 38  2  0  0  0  0
 37 67  1  0  0  0  0
 38 68  1  0  0  0  0
M  END
$$$$
