1CY
 OpenBabel04121316043D

 31 32  0  0  0  0  0  0  0  0999 V2000
    0.7484    0.0265    0.0269 Cl  0  0  0  0  0  0  0  0  0  0  0  0
    2.4600    0.0333   -0.0051 C   0  0  0  0  0  0  0  0  0  0  0  0
    3.1489    1.2259   -0.0058 C   0  0  0  0  0  0  0  0  0  0  0  0
    4.5318    1.2071   -0.1953 C   0  0  0  0  0  0  0  0  0  0  0  0
    5.3053    0.0243   -0.2304 C   0  0  0  0  0  0  0  0  0  0  0  0
    4.5638   -1.1242    0.0645 C   0  0  0  0  0  0  0  0  0  0  0  0
    3.1670   -1.1531    0.0197 C   0  0  0  0  0  0  0  0  0  0  0  0
    6.7038   -0.0075   -0.5431 N   0  0  0  0  0  0  0  0  0  0  0  0
    7.5127   -1.1119   -0.7554 C   0  0  0  0  0  0  0  0  0  0  0  0
    8.7716   -1.0917   -1.0712 N   0  0  0  0  0  0  0  0  0  0  0  0
    9.3918    0.1037   -1.2109 C   0  0  0  0  0  0  0  0  0  0  0  0
    8.8278    1.2366   -1.0733 N   0  0  0  0  0  0  0  0  0  0  0  0
    7.3937    1.2806   -0.7763 C   0  0  0  0  0  0  0  0  0  0  0  0
    6.8353    1.9544   -2.0629 C   0  0  0  0  0  0  0  0  0  0  0  0
    7.3650    2.1107    0.5343 C   0  0  0  0  0  0  0  0  0  0  0  0
   10.7051    0.0966   -1.5272 N   0  0  0  0  0  0  0  0  0  0  0  0
    6.9798   -2.3610   -0.6338 N   0  0  0  0  0  0  0  0  0  0  0  0
    2.6429    2.1798    0.1055 H   0  0  0  0  0  0  0  0  0  0  0  0
    4.9538    2.1988   -0.3145 H   0  0  0  0  0  0  0  0  0  0  0  0
    5.0371   -2.0447    0.3813 H   0  0  0  0  0  0  0  0  0  0  0  0
    2.6579   -2.1103    0.0479 H   0  0  0  0  0  0  0  0  0  0  0  0
    7.0734    1.3318   -2.9375 H   0  0  0  0  0  0  0  0  0  0  0  0
    7.2813    2.9402   -2.2292 H   0  0  0  0  0  0  0  0  0  0  0  0
    5.7554    2.0850   -2.1159 H   0  0  0  0  0  0  0  0  0  0  0  0
    7.9282    1.5774    1.3125 H   0  0  0  0  0  0  0  0  0  0  0  0
    6.3868    2.2725    0.9847 H   0  0  0  0  0  0  0  0  0  0  0  0
    7.8177    3.0971    0.4030 H   0  0  0  0  0  0  0  0  0  0  0  0
   11.1988   -0.7733   -1.6214 H   0  0  0  0  0  0  0  0  0  0  0  0
   11.1834    0.9797   -1.6157 H   0  0  0  0  0  0  0  0  0  0  0  0
    6.1126   -2.4777   -1.1398 H   0  0  0  0  0  0  0  0  0  0  0  0
    7.6326   -3.0940   -0.8825 H   0  0  0  0  0  0  0  0  0  0  0  0
  1  2  1  0  0  0  0
  2  3  2  0  0  0  0
  2  7  1  0  0  0  0
  3  4  1  0  0  0  0
  3 18  1  0  0  0  0
  4  5  2  0  0  0  0
  4 19  1  0  0  0  0
  5  6  1  0  0  0  0
  5  8  1  0  0  0  0
  6  7  2  0  0  0  0
  6 20  1  0  0  0  0
  7 21  1  0  0  0  0
  8  9  1  0  0  0  0
  8 13  1  0  0  0  0
  9 10  2  0  0  0  0
  9 17  1  0  0  0  0
 10 11  1  0  0  0  0
 11 12  2  0  0  0  0
 11 16  1  0  0  0  0
 12 13  1  0  0  0  0
 13 14  1  0  0  0  0
 13 15  1  0  0  0  0
 14 22  1  0  0  0  0
 14 23  1  0  0  0  0
 14 24  1  0  0  0  0
 15 25  1  0  0  0  0
 15 26  1  0  0  0  0
 15 27  1  0  0  0  0
 16 28  1  0  0  0  0
 16 29  1  0  0  0  0
 17 30  1  0  0  0  0
 17 31  1  0  0  0  0
M  END
$$$$
