1D4
 OpenBabel04121316043D

 66 67  0  0  1  0  0  0  0  0999 V2000
    1.0786    0.0522    0.4467 C   0  0  0  0  0  0  0  0  0  0  0  0
    2.5841    0.0281    0.2977 C   0  0  1  0  0  0  0  0  0  0  0  0
    3.0138    0.2598    1.2745 H   0  0  0  0  0  0  0  0  0  0  0  0
    2.9480   -1.3326    0.0052 O   0  0  0  0  0  0  0  0  0  0  0  0
    2.6728   -1.7653   -1.3364 C   0  0  1  0  0  0  0  0  0  0  0  0
    3.2729   -2.6754   -1.4593 H   0  0  0  0  0  0  0  0  0  0  0  0
    1.2943   -2.2737   -1.5834 O   0  0  0  0  0  0  0  0  0  0  0  0
    0.6445   -1.7808   -2.7870 C   0  0  0  0  0  0  0  0  0  0  0  0
    1.2570   -2.3126   -4.2014 C   0  0  0  0  0  0  0  0  0  0  0  0
    2.2723   -1.4545   -5.2218 C   0  0  0  0  0  0  0  0  0  0  0  0
    1.6361   -0.6157   -6.3650 C   0  0  0  0  0  0  0  0  0  0  0  0
    1.9629    0.9539   -6.3948 C   0  0  0  0  0  0  0  0  0  0  0  0
    0.6814    1.7855   -6.7611 C   0  0  0  0  0  0  0  0  0  0  0  0
    0.2337    3.0707   -5.9616 C   0  0  0  0  0  0  0  0  0  0  0  0
   -1.3308    3.2021   -5.8012 C   0  0  0  0  0  0  0  0  0  0  0  0
   -2.0112    3.0424   -4.3841 C   0  0  0  0  0  0  0  0  0  0  0  0
   -1.9492    1.5859   -3.9195 C   0  0  0  0  0  0  0  0  0  0  0  0
   -2.4186    0.9865   -2.5791 C   0  0  0  0  0  0  0  0  0  0  0  0
   -1.5653   -0.2197   -1.9341 C   0  0  0  0  0  0  0  0  0  0  0  0
   -0.9622   -1.4752   -2.7545 C   0  0  0  0  0  0  0  0  0  0  0  0
    3.2843   -0.7052   -2.2895 C   0  0  1  0  0  0  0  0  0  0  0  0
    3.0680   -1.1309   -3.2203 H   0  0  0  0  0  0  0  0  0  0  0  0
    2.7960    0.7952   -2.1197 C   0  0  2  0  0  0  0  0  0  0  0  0
    3.3873    1.4166   -2.8078 H   0  0  0  0  0  0  0  0  0  0  0  0
    3.1633    1.0837   -0.6764 C   0  0  0  0  0  0  0  0  0  0  0  0
    1.3795    1.1641   -2.3407 N   0  0  0  0  0  0  0  0  0  0  0  0
    0.9606    0.8825   -3.6752 C   0  0  0  0  0  0  0  0  0  0  0  0
    0.8762    2.4683   -1.9535 C   0  0  0  0  0  0  0  0  0  0  0  0
    4.7294   -0.7137   -2.3068 O   0  0  0  0  0  0  0  0  0  0  0  0
    0.7295   -0.6850    1.1727 H   0  0  0  0  0  0  0  0  0  0  0  0
    0.6489   -0.2911   -0.4776 H   0  0  0  0  0  0  0  0  0  0  0  0
    0.6769    1.0384    0.6798 H   0  0  0  0  0  0  0  0  0  0  0  0
    0.9950   -0.8227   -2.6649 H   0  0  0  0  0  0  0  0  0  0  0  0
    0.4144   -2.6344   -4.8206 H   0  0  0  0  0  0  0  0  0  0  0  0
    1.8263   -3.2141   -3.9354 H   0  0  0  0  0  0  0  0  0  0  0  0
    3.0065   -2.1702   -5.6111 H   0  0  0  0  0  0  0  0  0  0  0  0
    2.9540   -0.7245   -4.7849 H   0  0  0  0  0  0  0  0  0  0  0  0
    0.5590   -0.7742   -6.3161 H   0  0  0  0  0  0  0  0  0  0  0  0
    1.9993   -1.0305   -7.3111 H   0  0  0  0  0  0  0  0  0  0  0  0
    2.7513    1.1336   -7.1384 H   0  0  0  0  0  0  0  0  0  0  0  0
    2.4566    1.3226   -5.4891 H   0  0  0  0  0  0  0  0  0  0  0  0
   -0.1660    1.0970   -6.7666 H   0  0  0  0  0  0  0  0  0  0  0  0
    0.8204    2.0988   -7.8032 H   0  0  0  0  0  0  0  0  0  0  0  0
    0.5880    3.9298   -6.5469 H   0  0  0  0  0  0  0  0  0  0  0  0
    0.7272    3.2656   -5.0097 H   0  0  0  0  0  0  0  0  0  0  0  0
   -1.8174    2.4963   -6.4823 H   0  0  0  0  0  0  0  0  0  0  0  0
   -1.5886    4.2070   -6.1501 H   0  0  0  0  0  0  0  0  0  0  0  0
   -3.0431    3.3960   -4.4020 H   0  0  0  0  0  0  0  0  0  0  0  0
   -1.4603    3.6848   -3.6778 H   0  0  0  0  0  0  0  0  0  0  0  0
   -0.9279    1.7042   -3.7334 H   0  0  0  0  0  0  0  0  0  0  0  0
   -2.1032    0.8733   -4.7333 H   0  0  0  0  0  0  0  0  0  0  0  0
   -3.4611    0.6738   -2.6578 H   0  0  0  0  0  0  0  0  0  0  0  0
   -2.4060    1.7990   -1.8343 H   0  0  0  0  0  0  0  0  0  0  0  0
   -2.1949   -0.6383   -1.1358 H   0  0  0  0  0  0  0  0  0  0  0  0
   -0.7872    0.2921   -1.3866 H   0  0  0  0  0  0  0  0  0  0  0  0
   -1.2957   -1.3438   -3.7875 H   0  0  0  0  0  0  0  0  0  0  0  0
   -1.4458   -2.3701   -2.3520 H   0  0  0  0  0  0  0  0  0  0  0  0
    2.8743    2.0962   -0.3875 H   0  0  0  0  0  0  0  0  0  0  0  0
    4.2570    1.0857   -0.6245 H   0  0  0  0  0  0  0  0  0  0  0  0
    0.0131    0.3860   -3.7940 H   0  0  0  0  0  0  0  0  0  0  0  0
    1.5320    0.1660   -4.1374 H   0  0  0  0  0  0  0  0  0  0  0  0
    1.0179    1.7552   -4.2902 H   0  0  0  0  0  0  0  0  0  0  0  0
   -0.2182    2.4665   -1.9765 H   0  0  0  0  0  0  0  0  0  0  0  0
    1.2101    3.2605   -2.6298 H   0  0  0  0  0  0  0  0  0  0  0  0
    1.0876    2.7303   -0.9251 H   0  0  0  0  0  0  0  0  0  0  0  0
    5.0051   -1.5696   -2.6820 H   0  0  0  0  0  0  0  0  0  0  0  0
  1  2  1  0  0  0  0
  1 30  1  0  0  0  0
  1 31  1  0  0  0  0
  1 32  1  0  0  0  0
  2  3  1  1  0  0  0
  2  4  1  0  0  0  0
  2 25  1  0  0  0  0
  4  5  1  0  0  0  0
  5 21  1  0  0  0  0
  5  7  1  0  0  0  0
  5  6  1  6  0  0  0
  7  8  1  0  0  0  0
  8  9  1  0  0  0  0
  8 20  1  0  0  0  0
  8 33  1  0  0  0  0
  9 10  1  0  0  0  0
  9 34  1  0  0  0  0
  9 35  1  0  0  0  0
 10 11  1  0  0  0  0
 10 36  1  0  0  0  0
 10 37  1  0  0  0  0
 11 12  1  0  0  0  0
 11 38  1  0  0  0  0
 11 39  1  0  0  0  0
 12 13  1  0  0  0  0
 12 40  1  0  0  0  0
 12 41  1  0  0  0  0
 13 14  1  0  0  0  0
 13 42  1  0  0  0  0
 13 43  1  0  0  0  0
 14 15  1  0  0  0  0
 14 44  1  0  0  0  0
 14 45  1  0  0  0  0
 15 16  1  0  0  0  0
 15 46  1  0  0  0  0
 15 47  1  0  0  0  0
 16 17  1  0  0  0  0
 16 48  1  0  0  0  0
 16 49  1  0  0  0  0
 17 18  1  0  0  0  0
 17 50  1  0  0  0  0
 17 51  1  0  0  0  0
 18 19  1  0  0  0  0
 18 52  1  0  0  0  0
 18 53  1  0  0  0  0
 19 20  1  0  0  0  0
 19 54  1  0  0  0  0
 19 55  1  0  0  0  0
 20 56  1  0  0  0  0
 20 57  1  0  0  0  0
 21 22  1  6  0  0  0
 21 23  1  0  0  0  0
 21 29  1  0  0  0  0
 23 25  1  0  0  0  0
 23 26  1  0  0  0  0
 23 24  1  6  0  0  0
 25 58  1  0  0  0  0
 25 59  1  0  0  0  0
 26 27  1  0  0  0  0
 26 28  1  0  0  0  0
 27 60  1  0  0  0  0
 27 61  1  0  0  0  0
 27 62  1  0  0  0  0
 28 63  1  0  0  0  0
 28 64  1  0  0  0  0
 28 65  1  0  0  0  0
 29 66  1  0  0  0  0
M  END
$$$$
