1DI
 OpenBabel04121316043D

 38 40  0  0  1  0  0  0  0  0999 V2000
    7.5456    8.0118   -0.5578 Cl  0  0  0  0  0  0  0  0  0  0  0  0
    7.2424    6.3435   -0.8168 C   0  0  0  0  0  0  0  0  0  0  0  0
    7.7911    5.4324    0.0565 C   0  0  0  0  0  0  0  0  0  0  0  0
    7.6085    4.0820   -0.1886 C   0  0  0  0  0  0  0  0  0  0  0  0
    6.8901    3.5793   -1.2932 C   0  0  0  0  0  0  0  0  0  0  0  0
    6.3402    4.5315   -2.1619 C   0  0  0  0  0  0  0  0  0  0  0  0
    6.4846    5.9037   -1.9015 C   0  0  0  0  0  0  0  0  0  0  0  0
    5.4962    4.0688   -3.5967 Cl  0  0  0  0  0  0  0  0  0  0  0  0
    6.6792    2.0778   -1.5040 C   0  0  0  0  0  0  0  0  0  0  0  0
    7.3211    1.1153   -0.4732 C   0  0  2  0  0  0  0  0  0  0  0  0
    6.9770    0.0896   -0.6414 H   0  0  0  0  0  0  0  0  0  0  0  0
    6.9736    1.4738    1.0251 C   0  0  0  0  0  0  0  0  0  0  0  0
    7.8421    1.6126    1.8704 O   0  0  0  0  0  0  0  0  0  0  0  0
    5.6380    1.8257    1.2378 N   0  0  0  0  0  0  0  0  0  0  0  0
    5.2826    3.1923    1.6272 C   0  0  0  0  0  0  0  0  0  0  0  0
    3.8962    3.0890    2.1468 C   0  0  0  0  0  0  0  0  0  0  0  0
    3.5114    1.7500    2.2273 C   0  0  0  0  0  0  0  0  0  0  0  0
    4.6328    0.8708    1.7254 C   0  0  0  0  0  0  0  0  0  0  0  0
    2.2480    1.4470    2.7107 C   0  0  0  0  0  0  0  0  0  0  0  0
    1.3883    2.5028    3.0749 C   0  0  0  0  0  0  0  0  0  0  0  0
    1.7842    3.8426    2.9475 C   0  0  0  0  0  0  0  0  0  0  0  0
    3.0547    4.1427    2.4770 C   0  0  0  0  0  0  0  0  0  0  0  0
    8.7913    1.1104   -0.7394 N   0  0  0  0  0  0  0  0  0  0  0  0
    8.3561    5.7276    0.9370 H   0  0  0  0  0  0  0  0  0  0  0  0
    8.0295    3.4550    0.5823 H   0  0  0  0  0  0  0  0  0  0  0  0
    6.0109    6.6330   -2.5504 H   0  0  0  0  0  0  0  0  0  0  0  0
    7.0787    1.8245   -2.4981 H   0  0  0  0  0  0  0  0  0  0  0  0
    5.6032    1.8596   -1.5457 H   0  0  0  0  0  0  0  0  0  0  0  0
    5.2297    3.8015    0.7260 H   0  0  0  0  0  0  0  0  0  0  0  0
    5.9669    3.6217    2.3641 H   0  0  0  0  0  0  0  0  0  0  0  0
    4.3345    0.2625    0.8670 H   0  0  0  0  0  0  0  0  0  0  0  0
    5.0552    0.2391    2.5136 H   0  0  0  0  0  0  0  0  0  0  0  0
    1.9062    0.4226    2.8148 H   0  0  0  0  0  0  0  0  0  0  0  0
    0.3934    2.2895    3.4608 H   0  0  0  0  0  0  0  0  0  0  0  0
    1.1051    4.6487    3.2186 H   0  0  0  0  0  0  0  0  0  0  0  0
    3.3772    5.1733    2.3627 H   0  0  0  0  0  0  0  0  0  0  0  0
    9.2856    0.6731    0.0367 H   0  0  0  0  0  0  0  0  0  0  0  0
    9.1426    2.0685   -0.7810 H   0  0  0  0  0  0  0  0  0  0  0  0
  1  2  1  0  0  0  0
  2  3  2  0  0  0  0
  2  7  1  0  0  0  0
  3  4  1  0  0  0  0
  3 24  1  0  0  0  0
  4  5  2  0  0  0  0
  4 25  1  0  0  0  0
  5  6  1  0  0  0  0
  5  9  1  0  0  0  0
  6  7  2  0  0  0  0
  6  8  1  0  0  0  0
  7 26  1  0  0  0  0
  9 27  1  0  0  0  0
  9 28  1  0  0  0  0
 10 12  1  0  0  0  0
 10 23  1  0  0  0  0
 10 11  1  6  0  0  0
 10  9  1  0  0  0  0
 12 13  2  0  0  0  0
 12 14  1  0  0  0  0
 14 15  1  0  0  0  0
 14 18  1  0  0  0  0
 15 16  1  0  0  0  0
 15 29  1  0  0  0  0
 15 30  1  0  0  0  0
 16 17  2  0  0  0  0
 16 22  1  0  0  0  0
 17 18  1  0  0  0  0
 17 19  1  0  0  0  0
 18 31  1  0  0  0  0
 18 32  1  0  0  0  0
 19 20  2  0  0  0  0
 19 33  1  0  0  0  0
 20 21  1  0  0  0  0
 20 34  1  0  0  0  0
 21 22  2  0  0  0  0
 21 35  1  0  0  0  0
 22 36  1  0  0  0  0
 23 37  1  0  0  0  0
 23 38  1  0  0  0  0
M  END
$$$$
