1F1
 OpenBabel04121316043D

 19 20  0  0  0  0  0  0  0  0999 V2000
    1.0620   -0.1295   -0.0089 O   0  0  0  0  0  0  0  0  0  0  0  0
    2.4031    0.0101   -0.0358 C   0  0  0  0  0  0  0  0  0  0  0  0
    3.0396    0.6313    0.8035 O   0  0  0  0  0  0  0  0  0  0  0  0
    3.0366   -0.6297   -1.2053 C   0  0  0  0  0  0  0  0  0  0  0  0
    2.9429   -2.0146   -1.3583 C   0  0  0  0  0  0  0  0  0  0  0  0
    3.5623   -2.6448   -2.4425 C   0  0  0  0  0  0  0  0  0  0  0  0
    4.2456   -1.8690   -3.3975 C   0  0  0  0  0  0  0  0  0  0  0  0
    4.3316   -0.4870   -3.2169 C   0  0  0  0  0  0  0  0  0  0  0  0
    3.7652    0.1635   -2.1091 C   0  0  0  0  0  0  0  0  0  0  0  0
    5.0384    0.0059   -4.2947 N   0  0  0  0  0  0  0  0  0  0  0  0
    5.3188    0.9702   -4.4159 H   0  0  0  0  0  0  0  0  0  0  0  0
    5.2109   -0.9858   -5.2272 C   0  0  0  0  0  0  0  0  0  0  0  0
    4.9027   -2.1795   -4.6176 C   0  0  0  0  0  0  0  0  0  0  0  0
    0.6833   -0.6915   -0.7117 H   0  0  0  0  0  0  0  0  0  0  0  0
    2.4142   -2.6189   -0.6259 H   0  0  0  0  0  0  0  0  0  0  0  0
    3.4926   -3.7209   -2.5695 H   0  0  0  0  0  0  0  0  0  0  0  0
    3.8618    1.2360   -1.9657 H   0  0  0  0  0  0  0  0  0  0  0  0
    5.5743   -0.7650   -6.2226 H   0  0  0  0  0  0  0  0  0  0  0  0
    5.0342   -3.1660   -5.0424 H   0  0  0  0  0  0  0  0  0  0  0  0
  1  2  1  0  0  0  0
  1 14  1  0  0  0  0
  2  3  2  0  0  0  0
  2  4  1  0  0  0  0
  4  5  2  0  0  0  0
  4  9  1  0  0  0  0
  5  6  1  0  0  0  0
  5 15  1  0  0  0  0
  6  7  2  0  0  0  0
  6 16  1  0  0  0  0
  7  8  1  0  0  0  0
  7 13  1  0  0  0  0
  8  9  2  0  0  0  0
  8 10  1  0  0  0  0
  9 17  1  0  0  0  0
 10 11  1  0  0  0  0
 10 12  1  0  0  0  0
 12 13  2  0  0  0  0
 12 18  1  0  0  0  0
 13 19  1  0  0  0  0
M  END
$$$$
