1FN
 OpenBabel04121316043D

 50 54  0  0  0  0  0  0  0  0999 V2000
    0.8076    0.0721    0.0310 F   0  0  0  0  0  0  0  0  0  0  0  0
    2.1402    0.0830   -0.0524 C   0  0  0  0  0  0  0  0  0  0  0  0
    2.8249    1.2883   -0.0568 C   0  0  0  0  0  0  0  0  0  0  0  0
    4.2001    1.3091   -0.2852 C   0  0  0  0  0  0  0  0  0  0  0  0
    4.9240    0.1197   -0.4084 C   0  0  0  0  0  0  0  0  0  0  0  0
    4.2023   -1.0791   -0.2184 C   0  0  0  0  0  0  0  0  0  0  0  0
    2.8199   -1.1096   -0.1211 C   0  0  0  0  0  0  0  0  0  0  0  0
    6.3427    0.1425   -0.6888 N   0  0  0  0  0  0  0  0  0  0  0  0
    7.0584    1.3308   -0.8656 C   0  0  0  0  0  0  0  0  0  0  0  0
    8.3963    1.3609   -0.8503 C   0  0  0  0  0  0  0  0  0  0  0  0
    9.1260    0.1371   -1.0001 C   0  0  0  0  0  0  0  0  0  0  0  0
    8.4774   -1.0374   -0.9896 C   0  0  0  0  0  0  0  0  0  0  0  0
    7.0413   -1.0672   -0.6637 C   0  0  0  0  0  0  0  0  0  0  0  0
    6.5768   -2.1742   -0.3944 O   0  0  0  0  0  0  0  0  0  0  0  0
    9.1922   -2.2915   -1.2918 C   0  0  0  0  0  0  0  0  0  0  0  0
   10.4045   -2.2177   -1.5637 O   0  0  0  0  0  0  0  0  0  0  0  0
    8.4114   -3.4460   -1.2203 N   0  0  0  0  0  0  0  0  0  0  0  0
    8.8231   -4.7475   -1.4803 C   0  0  0  0  0  0  0  0  0  0  0  0
    9.9966   -4.8947   -2.1224 C   0  0  0  0  0  0  0  0  0  0  0  0
   10.6050   -6.1178   -2.0431 C   0  0  0  0  0  0  0  0  0  0  0  0
    9.8617   -7.2391   -2.1799 C   0  0  0  0  0  0  0  0  0  0  0  0
    8.6604   -7.1610   -1.4980 C   0  0  0  0  0  0  0  0  0  0  0  0
    8.1890   -5.9057   -1.0392 C   0  0  0  0  0  0  0  0  0  0  0  0
    8.0161   -8.2768   -1.1304 F   0  0  0  0  0  0  0  0  0  0  0  0
   10.3905   -8.3421   -2.7911 O   0  0  0  0  0  0  0  0  0  0  0  0
   11.4973   -8.2185   -3.7155 C   0  0  0  0  0  0  0  0  0  0  0  0
   11.9739   -9.4684   -4.1376 C   0  0  0  0  0  0  0  0  0  0  0  0
   13.0993   -9.5262   -4.9531 C   0  0  0  0  0  0  0  0  0  0  0  0
   13.8325   -8.4775   -5.3941 N   0  0  0  0  0  0  0  0  0  0  0  0
   13.3144   -7.2897   -5.0466 C   0  0  0  0  0  0  0  0  0  0  0  0
   12.1768   -7.0672   -4.2677 C   0  0  0  0  0  0  0  0  0  0  0  0
   12.1519   -5.6439   -4.2315 C   0  0  0  0  0  0  0  0  0  0  0  0
   13.0691   -5.0592   -5.0467 C   0  0  0  0  0  0  0  0  0  0  0  0
   13.8888   -6.0775   -5.3789 N   0  0  0  0  0  0  0  0  0  0  0  0
   14.8118   -5.9557   -5.7565 H   0  0  0  0  0  0  0  0  0  0  0  0
    2.2897    2.2155    0.1030 H   0  0  0  0  0  0  0  0  0  0  0  0
    4.6693    2.2830   -0.3418 H   0  0  0  0  0  0  0  0  0  0  0  0
    4.6461   -2.0609   -0.1263 H   0  0  0  0  0  0  0  0  0  0  0  0
    2.3049   -2.0635   -0.0886 H   0  0  0  0  0  0  0  0  0  0  0  0
    6.5235    2.2650   -0.9629 H   0  0  0  0  0  0  0  0  0  0  0  0
    8.9444    2.2964   -0.8057 H   0  0  0  0  0  0  0  0  0  0  0  0
   10.1852    0.2026   -1.2332 H   0  0  0  0  0  0  0  0  0  0  0  0
    7.4548   -3.3508   -0.8767 H   0  0  0  0  0  0  0  0  0  0  0  0
   10.4959   -4.0364   -2.5475 H   0  0  0  0  0  0  0  0  0  0  0  0
   11.6777   -6.1950   -2.0451 H   0  0  0  0  0  0  0  0  0  0  0  0
    7.3994   -5.8585   -0.3008 H   0  0  0  0  0  0  0  0  0  0  0  0
   11.4822  -10.3888   -3.8332 H   0  0  0  0  0  0  0  0  0  0  0  0
   13.4681  -10.4901   -5.2954 H   0  0  0  0  0  0  0  0  0  0  0  0
   11.6203   -4.9436   -3.6491 H   0  0  0  0  0  0  0  0  0  0  0  0
   13.2239   -4.0001   -5.2153 H   0  0  0  0  0  0  0  0  0  0  0  0
  1  2  1  0  0  0  0
  2  3  2  0  0  0  0
  2  7  1  0  0  0  0
  3  4  1  0  0  0  0
  3 36  1  0  0  0  0
  4  5  2  0  0  0  0
  4 37  1  0  0  0  0
  5  6  1  0  0  0  0
  5  8  1  0  0  0  0
  6  7  2  0  0  0  0
  6 38  1  0  0  0  0
  7 39  1  0  0  0  0
  8  9  1  0  0  0  0
  8 13  1  0  0  0  0
  9 10  2  0  0  0  0
  9 40  1  0  0  0  0
 10 11  1  0  0  0  0
 10 41  1  0  0  0  0
 11 12  2  0  0  0  0
 11 42  1  0  0  0  0
 12 13  1  0  0  0  0
 12 15  1  0  0  0  0
 13 14  2  0  0  0  0
 15 16  2  0  0  0  0
 15 17  1  0  0  0  0
 17 18  1  0  0  0  0
 17 43  1  0  0  0  0
 18 19  2  0  0  0  0
 18 23  1  0  0  0  0
 19 20  1  0  0  0  0
 19 44  1  0  0  0  0
 20 21  2  0  0  0  0
 20 45  1  0  0  0  0
 21 22  1  0  0  0  0
 21 25  1  0  0  0  0
 22 23  2  0  0  0  0
 22 24  1  0  0  0  0
 23 46  1  0  0  0  0
 25 26  1  0  0  0  0
 26 27  2  0  0  0  0
 26 31  1  0  0  0  0
 27 28  1  0  0  0  0
 27 47  1  0  0  0  0
 28 29  2  0  0  0  0
 28 48  1  0  0  0  0
 29 30  1  0  0  0  0
 30 31  2  0  0  0  0
 30 34  1  0  0  0  0
 31 32  1  0  0  0  0
 32 33  2  0  0  0  0
 32 49  1  0  0  0  0
 33 34  1  0  0  0  0
 33 50  1  0  0  0  0
 34 35  1  0  0  0  0
M  END
$$$$
