1GC
 OpenBabel04121316043D

 49 51  0  0  1  0  0  0  0  0999 V2000
    0.9408   -0.0366    0.0426 O   0  0  0  0  0  0  0  0  0  0  0  0
    2.3462   -0.0330    0.0467 C   0  0  1  0  0  0  0  0  0  0  0  0
    2.7070    0.1091   -0.9718 H   0  0  0  0  0  0  0  0  0  0  0  0
    2.8889    1.0863    0.8906 C   0  0  0  0  0  0  0  0  0  0  0  0
    4.2865    0.5891    1.1969 C   0  0  1  0  0  0  0  0  0  0  0  0
    4.6933    1.0108    2.1213 H   0  0  0  0  0  0  0  0  0  0  0  0
    4.1528   -0.8524    1.3534 O   0  0  0  0  0  0  0  0  0  0  0  0
    2.9302   -1.2854    0.7023 C   0  0  2  0  0  0  0  0  0  0  0  0
    2.2419   -1.6784    1.4601 H   0  0  0  0  0  0  0  0  0  0  0  0
    3.2403   -2.4291   -0.2761 C   0  0  0  0  0  0  0  0  0  0  0  0
    2.1087   -2.7642   -1.1268 O   0  0  0  0  0  0  0  0  0  0  0  0
    2.5212   -3.9353   -2.3315 P   0  0  1  0  0  0  0  0  0  0  0  0
    2.8387   -5.0013   -1.2854 O   0  0  0  0  0  0  0  0  0  0  0  0
    0.7758   -3.9870   -2.8790 C   0  0  0  0  0  0  0  0  0  0  0  0
   -0.2174   -2.8362   -1.8601 P   0  0  1  0  0  0  0  0  0  0  0  0
    0.0912   -3.5678   -0.5645 O   0  0  0  0  0  0  0  0  0  0  0  0
    0.6083   -1.6003   -2.6097 O   0  0  0  0  0  0  0  0  0  0  0  0
    1.6632   -1.3385   -3.8261 P   0  0  0  0  0  0  0  0  0  0  0  0
    1.4600   -0.1917   -4.7428 O   0  0  0  0  0  0  0  0  0  0  0  0
    2.9882   -1.1837   -2.9570 O   0  0  0  0  0  0  0  0  0  0  0  0
    2.1016   -2.6696   -4.5984 O   0  0  0  0  0  0  0  0  0  0  0  0
   -1.1564   -1.7484   -0.8968 O   0  0  0  0  0  0  0  0  0  0  0  0
    2.9338   -5.1064   -3.5362 O   0  0  0  0  0  0  0  0  0  0  0  0
    5.2544    0.8754    0.1406 N   0  0  0  0  0  0  0  0  0  0  0  0
    5.9964   -0.0577   -0.5451 C   0  0  0  0  0  0  0  0  0  0  0  0
    6.7212    0.4761   -1.5023 N   0  0  0  0  0  0  0  0  0  0  0  0
    6.4823    1.8176   -1.3940 C   0  0  0  0  0  0  0  0  0  0  0  0
    5.5931    2.1037   -0.3768 C   0  0  0  0  0  0  0  0  0  0  0  0
    5.1408    3.3274    0.0054 N   0  0  0  0  0  0  0  0  0  0  0  0
    5.6321    4.3133   -0.7041 C   0  0  0  0  0  0  0  0  0  0  0  0
    5.2809    5.5964   -0.4571 N   0  0  0  0  0  0  0  0  0  0  0  0
    6.5266    4.1375   -1.7437 N   0  0  0  0  0  0  0  0  0  0  0  0
    6.8739    4.9282   -2.2582 H   0  0  0  0  0  0  0  0  0  0  0  0
    7.0113    2.9150   -2.1605 C   0  0  0  0  0  0  0  0  0  0  0  0
    7.8148    2.8172   -3.0979 O   0  0  0  0  0  0  0  0  0  0  0  0
    0.6161    0.7344   -0.4529 H   0  0  0  0  0  0  0  0  0  0  0  0
    2.2938    1.1827    1.8049 H   0  0  0  0  0  0  0  0  0  0  0  0
    2.8436    2.0447    0.3670 H   0  0  0  0  0  0  0  0  0  0  0  0
    3.6122   -3.3095    0.2576 H   0  0  0  0  0  0  0  0  0  0  0  0
    4.0726   -2.1298   -0.9254 H   0  0  0  0  0  0  0  0  0  0  0  0
    0.4040   -5.0007   -2.6794 H   0  0  0  0  0  0  0  0  0  0  0  0
    0.5520   -3.8467   -3.9359 H   0  0  0  0  0  0  0  0  0  0  0  0
    2.6443   -1.3974   -2.0700 H   0  0  0  0  0  0  0  0  0  0  0  0
    2.4889   -2.5375   -5.4925 H   0  0  0  0  0  0  0  0  0  0  0  0
   -1.5730   -2.2840   -0.1928 H   0  0  0  0  0  0  0  0  0  0  0  0
    3.8980   -5.2547   -3.5087 H   0  0  0  0  0  0  0  0  0  0  0  0
    5.9644   -1.1139   -0.3148 H   0  0  0  0  0  0  0  0  0  0  0  0
    4.6466    5.7878    0.3076 H   0  0  0  0  0  0  0  0  0  0  0  0
    5.6579    6.3849   -0.9623 H   0  0  0  0  0  0  0  0  0  0  0  0
  1  2  1  0  0  0  0
  1 36  1  0  0  0  0
  2  3  1  6  0  0  0
  2  4  1  0  0  0  0
  2  8  1  0  0  0  0
  4  5  1  0  0  0  0
  4 37  1  0  0  0  0
  4 38  1  0  0  0  0
  5  6  1  1  0  0  0
  5  7  1  0  0  0  0
  5 24  1  0  0  0  0
  7  8  1  0  0  0  0
  8  9  1  1  0  0  0
  8 10  1  0  0  0  0
 10 11  1  0  0  0  0
 10 39  1  0  0  0  0
 10 40  1  0  0  0  0
 12 11  1  1  0  0  0
 12 13  2  0  0  0  0
 12 14  1  0  0  0  0
 12 23  1  0  0  0  0
 14 41  1  0  0  0  0
 14 42  1  0  0  0  0
 15 14  1  6  0  0  0
 15 16  2  0  0  0  0
 15 17  1  0  0  0  0
 15 22  1  0  0  0  0
 17 18  1  0  0  0  0
 18 19  2  0  0  0  0
 18 20  1  0  0  0  0
 18 21  1  0  0  0  0
 20 43  1  0  0  0  0
 21 44  1  0  0  0  0
 22 45  1  0  0  0  0
 23 46  1  0  0  0  0
 24 25  1  0  0  0  0
 24 28  1  0  0  0  0
 25 26  2  0  0  0  0
 25 47  1  0  0  0  0
 26 27  1  0  0  0  0
 27 28  2  0  0  0  0
 27 34  1  0  0  0  0
 28 29  1  0  0  0  0
 29 30  2  0  0  0  0
 30 31  1  0  0  0  0
 30 32  1  0  0  0  0
 31 48  1  0  0  0  0
 31 49  1  0  0  0  0
 32 33  1  0  0  0  0
 32 34  1  0  0  0  0
 34 35  2  0  0  0  0
M  END
$$$$
