1GW
 OpenBabel04121316043D

 69 72  0  0  1  0  0  0  0  0999 V2000
    0.8272   -0.1402    0.1255 O   0  0  0  0  0  0  0  0  0  0  0  0
    2.2334   -0.2715    0.1462 C   0  0  0  0  0  0  0  0  0  0  0  0
    2.9279    0.6243    1.1971 C   0  0  1  0  0  0  0  0  0  0  0  0
    2.5032    0.3621    2.1768 H   0  0  0  0  0  0  0  0  0  0  0  0
    4.3626    0.2999    1.2156 O   0  0  0  0  0  0  0  0  0  0  0  0
    5.0245    0.7459    0.0082 C   0  0  2  0  0  0  0  0  0  0  0  0
    4.5340    0.2429   -0.8174 H   0  0  0  0  0  0  0  0  0  0  0  0
    6.3525    0.2752   -0.1091 O   0  0  0  0  0  0  0  0  0  0  0  0
    7.4683    1.0620   -0.9518 P   0  0  1  0  0  0  0  0  0  0  0  0
    7.2427    2.4777   -1.3507 O   0  0  0  0  0  0  0  0  0  0  0  0
    8.7541    0.9056   -0.0434 O   0  0  0  0  0  0  0  0  0  0  0  0
    8.3780    0.5083    1.5978 P   0  0  1  0  0  0  0  0  0  0  0  0
    9.4977   -0.5268    1.6284 O   0  0  0  0  0  0  0  0  0  0  0  0
    8.9710    1.9959    2.0639 O   0  0  0  0  0  0  0  0  0  0  0  0
    9.3832    2.9338    1.0539 C   0  0  0  0  0  0  0  0  0  0  0  0
    9.8322    4.3065    1.5055 C   0  0  1  0  0  0  0  0  0  0  0  0
   10.9114    4.2542    1.6928 H   0  0  0  0  0  0  0  0  0  0  0  0
    9.6106    5.3019    0.4664 O   0  0  0  0  0  0  0  0  0  0  0  0
    9.7354    6.5548    1.1688 C   0  0  2  0  0  0  0  0  0  0  0  0
   10.8092    6.7532    1.2887 H   0  0  0  0  0  0  0  0  0  0  0  0
    9.0540    6.3237    2.5310 C   0  0  1  0  0  0  0  0  0  0  0  0
    8.0114    6.6589    2.4811 H   0  0  0  0  0  0  0  0  0  0  0  0
    9.0805    4.8096    2.7160 C   0  0  2  0  0  0  0  0  0  0  0  0
    8.0516    4.4312    2.7240 H   0  0  0  0  0  0  0  0  0  0  0  0
    9.7327    4.3781    3.8984 O   0  0  0  0  0  0  0  0  0  0  0  0
    9.6738    6.9968    3.6220 O   0  0  0  0  0  0  0  0  0  0  0  0
    9.1761    7.7025    0.4490 N   0  0  0  0  0  0  0  0  0  0  0  0
    8.5545    7.5825   -0.7815 C   0  0  0  0  0  0  0  0  0  0  0  0
    8.2963    8.6478   -1.5575 C   0  0  0  0  0  0  0  0  0  0  0  0
    7.8793    8.4840   -2.9138 C   0  0  0  0  0  0  0  0  0  0  0  0
    7.3204    7.4036   -3.5870 C   0  0  0  0  0  0  0  0  0  0  0  0
    7.0550    7.6833   -4.9700 C   0  0  0  0  0  0  0  0  0  0  0  0
    7.4369    8.9612   -5.3144 C   0  0  0  0  0  0  0  0  0  0  0  0
    8.1751    9.7538   -4.0288 S   0  0  0  0  0  0  0  0  0  0  0  0
    7.3344    9.6908   -6.5533 C   0  0  0  0  0  0  0  0  0  0  0  0
    7.6951   10.8532   -6.7354 O   0  0  0  0  0  0  0  0  0  0  0  0
    8.5714   10.0128   -0.9745 C   0  0  0  0  0  0  0  0  0  0  0  0
    8.4741   11.0726   -1.5520 O   0  0  0  0  0  0  0  0  0  0  0  0
    8.9588   10.0230    0.3309 N   0  0  0  0  0  0  0  0  0  0  0  0
    9.1646   10.9416    0.6917 H   0  0  0  0  0  0  0  0  0  0  0  0
    9.4275    8.9493    1.0083 C   0  0  0  0  0  0  0  0  0  0  0  0
   10.0339    9.1111    2.0688 O   0  0  0  0  0  0  0  0  0  0  0  0
    8.0019    0.1110    3.2391 O   0  0  0  0  0  0  0  0  0  0  0  0
    7.7538    0.2581   -2.2963 O   0  0  0  0  0  0  0  0  0  0  0  0
    4.9011    2.2746   -0.0458 C   0  0  1  0  0  0  0  0  0  0  0  0
    5.3285    2.6782   -0.9457 H   0  0  0  0  0  0  0  0  0  0  0  0
    3.4541    2.6840   -0.1794 C   0  0  2  0  0  0  0  0  0  0  0  0
    3.3975    3.7762   -0.2080 H   0  0  0  0  0  0  0  0  0  0  0  0
    2.6789    2.1509    1.0146 C   0  0  1  0  0  0  0  0  0  0  0  0
    3.0443    2.6740    1.9085 H   0  0  0  0  0  0  0  0  0  0  0  0
    1.3089    2.5073    0.8654 O   0  0  0  0  0  0  0  0  0  0  0  0
    2.8861    2.2389   -1.4252 O   0  0  0  0  0  0  0  0  0  0  0  0
    5.4949    2.8987    1.0987 O   0  0  0  0  0  0  0  0  0  0  0  0
    0.5111   -0.6077   -0.6691 H   0  0  0  0  0  0  0  0  0  0  0  0
    2.5647   -0.0420   -0.8631 H   0  0  0  0  0  0  0  0  0  0  0  0
    2.5162   -1.3163    0.3059 H   0  0  0  0  0  0  0  0  0  0  0  0
    8.5394    3.1143    0.3917 H   0  0  0  0  0  0  0  0  0  0  0  0
   10.2056    2.4965    0.4739 H   0  0  0  0  0  0  0  0  0  0  0  0
    9.4207    4.9624    4.6118 H   0  0  0  0  0  0  0  0  0  0  0  0
    9.8184    7.9278    3.3401 H   0  0  0  0  0  0  0  0  0  0  0  0
    8.3540    6.5677   -1.1156 H   0  0  0  0  0  0  0  0  0  0  0  0
    7.0958    6.4523   -3.1154 H   0  0  0  0  0  0  0  0  0  0  0  0
    6.6016    6.9758   -5.6532 H   0  0  0  0  0  0  0  0  0  0  0  0
    6.8898    9.1336   -7.3880 H   0  0  0  0  0  0  0  0  0  0  0  0
    7.7429   -0.8272    3.2779 H   0  0  0  0  0  0  0  0  0  0  0  0
    7.8952    0.9385   -2.9938 H   0  0  0  0  0  0  0  0  0  0  0  0
    0.9953    2.0782    0.0449 H   0  0  0  0  0  0  0  0  0  0  0  0
    3.3651    1.4801   -1.7934 H   0  0  0  0  0  0  0  0  0  0  0  0
    6.4217    2.6359    1.2018 H   0  0  0  0  0  0  0  0  0  0  0  0
  1  2  1  0  0  0  0
  1 54  1  0  0  0  0
  2  3  1  0  0  0  0
  2 55  1  0  0  0  0
  2 56  1  0  0  0  0
  3  4  1  1  0  0  0
  3  5  1  0  0  0  0
  3 49  1  0  0  0  0
  5  6  1  0  0  0  0
  6  7  1  6  0  0  0
  6  8  1  0  0  0  0
  6 45  1  0  0  0  0
  9  8  1  1  0  0  0
  9 10  2  0  0  0  0
  9 11  1  0  0  0  0
  9 44  1  0  0  0  0
 12 11  1  6  0  0  0
 12 13  2  0  0  0  0
 12 14  1  0  0  0  0
 12 43  1  0  0  0  0
 14 15  1  0  0  0  0
 15 16  1  0  0  0  0
 15 57  1  0  0  0  0
 15 58  1  0  0  0  0
 16 17  1  1  0  0  0
 16 18  1  0  0  0  0
 16 23  1  0  0  0  0
 18 19  1  0  0  0  0
 19 21  1  0  0  0  0
 19 27  1  0  0  0  0
 19 20  1  1  0  0  0
 21 22  1  6  0  0  0
 21 23  1  0  0  0  0
 21 26  1  0  0  0  0
 23 24  1  6  0  0  0
 23 25  1  0  0  0  0
 25 59  1  0  0  0  0
 26 60  1  0  0  0  0
 27 28  1  0  0  0  0
 27 41  1  0  0  0  0
 28 29  2  0  0  0  0
 28 61  1  0  0  0  0
 29 30  1  0  0  0  0
 29 37  1  0  0  0  0
 30 31  2  0  0  0  0
 30 34  1  0  0  0  0
 31 32  1  0  0  0  0
 31 62  1  0  0  0  0
 32 33  2  0  0  0  0
 32 63  1  0  0  0  0
 33 34  1  0  0  0  0
 33 35  1  0  0  0  0
 35 36  2  0  0  0  0
 35 64  1  0  0  0  0
 37 38  2  0  0  0  0
 37 39  1  0  0  0  0
 39 40  1  0  0  0  0
 39 41  1  0  0  0  0
 41 42  2  0  0  0  0
 43 65  1  0  0  0  0
 44 66  1  0  0  0  0
 45 46  1  6  0  0  0
 45 47  1  0  0  0  0
 45 53  1  0  0  0  0
 47 49  1  0  0  0  0
 47 52  1  0  0  0  0
 47 48  1  1  0  0  0
 49 51  1  0  0  0  0
 49 50  1  1  0  0  0
 51 67  1  0  0  0  0
 52 68  1  0  0  0  0
 53 69  1  0  0  0  0
M  END
$$$$
