1HN
 OpenBabel04121316043D

 22 23  0  0  0  0  0  0  0  0999 V2000
    1.0169   -0.1166   -0.0600 O   0  0  0  0  0  0  0  0  0  0  0  0
    2.3271    0.1297    0.1179 C   0  0  0  0  0  0  0  0  0  0  0  0
    2.8152    0.6045    1.1334 O   0  0  0  0  0  0  0  0  0  0  0  0
    3.0412   -0.5599   -0.9480 C   0  0  0  0  0  0  0  0  0  0  0  0
    2.9191   -1.9538   -0.9954 C   0  0  0  0  0  0  0  0  0  0  0  0
    3.5094   -2.6600   -2.0312 C   0  0  0  0  0  0  0  0  0  0  0  0
    4.1957   -1.9722   -3.0371 C   0  0  0  0  0  0  0  0  0  0  0  0
    4.3633   -0.5589   -2.9683 C   0  0  0  0  0  0  0  0  0  0  0  0
    3.7796    0.1420   -1.8951 C   0  0  0  0  0  0  0  0  0  0  0  0
    3.8352    1.5052   -1.7726 O   0  0  0  0  0  0  0  0  0  0  0  0
    5.0699    0.0699   -4.0083 C   0  0  0  0  0  0  0  0  0  0  0  0
    5.3886   -0.6267   -5.1698 C   0  0  0  0  0  0  0  0  0  0  0  0
    5.1135   -1.9840   -5.2660 C   0  0  0  0  0  0  0  0  0  0  0  0
    4.6548   -2.6766   -4.1519 C   0  0  0  0  0  0  0  0  0  0  0  0
    0.6233   -0.1778    0.8306 H   0  0  0  0  0  0  0  0  0  0  0  0
    2.3376   -2.4778   -0.2412 H   0  0  0  0  0  0  0  0  0  0  0  0
    3.3715   -3.7384   -2.0787 H   0  0  0  0  0  0  0  0  0  0  0  0
    4.3457    1.8966   -2.4947 H   0  0  0  0  0  0  0  0  0  0  0  0
    5.3399    1.1188   -3.9639 H   0  0  0  0  0  0  0  0  0  0  0  0
    5.8469   -0.1007   -6.0012 H   0  0  0  0  0  0  0  0  0  0  0  0
    5.2556   -2.5048   -6.2077 H   0  0  0  0  0  0  0  0  0  0  0  0
    4.6081   -3.7628   -4.1856 H   0  0  0  0  0  0  0  0  0  0  0  0
  1  2  1  0  0  0  0
  1 15  1  0  0  0  0
  2  3  2  0  0  0  0
  2  4  1  0  0  0  0
  4  5  2  0  0  0  0
  4  9  1  0  0  0  0
  5  6  1  0  0  0  0
  5 16  1  0  0  0  0
  6  7  2  0  0  0  0
  6 17  1  0  0  0  0
  7  8  1  0  0  0  0
  7 14  1  0  0  0  0
  8  9  2  0  0  0  0
  8 11  1  0  0  0  0
  9 10  1  0  0  0  0
 10 18  1  0  0  0  0
 11 12  2  0  0  0  0
 11 19  1  0  0  0  0
 12 13  1  0  0  0  0
 12 20  1  0  0  0  0
 13 14  2  0  0  0  0
 13 21  1  0  0  0  0
 14 22  1  0  0  0  0
M  END
$$$$
