1LG
 OpenBabel04121316043D

 50 53  0  0  0  0  0  0  0  0999 V2000
    1.2769    0.0486    0.0621 N   0  0  0  0  0  0  0  0  0  0  0  0
    2.4489    0.0833    0.0573 C   0  0  0  0  0  0  0  0  0  0  0  0
    3.8887    0.1018    0.0610 C   0  0  0  0  0  0  0  0  0  0  0  0
    4.6836    1.2808    0.0934 C   0  0  0  0  0  0  0  0  0  0  0  0
    4.5013    2.6945    0.1343 N   0  0  0  0  0  0  0  0  0  0  0  0
    5.6066    3.6339    0.1438 C   0  0  0  0  0  0  0  0  0  0  0  0
    6.8000    3.3630    0.0372 O   0  0  0  0  0  0  0  0  0  0  0  0
    5.4106    5.1117    0.1929 C   0  0  0  0  0  0  0  0  0  0  0  0
    4.3274    5.6528   -0.4717 C   0  0  0  0  0  0  0  0  0  0  0  0
    4.0293    6.9979   -0.6244 C   0  0  0  0  0  0  0  0  0  0  0  0
    4.9160    7.8970   -0.0668 C   0  0  0  0  0  0  0  0  0  0  0  0
    6.0458    7.4066    0.6149 C   0  0  0  0  0  0  0  0  0  0  0  0
    6.3307    6.0298    0.6944 C   0  0  0  0  0  0  0  0  0  0  0  0
    7.8686    5.6063    1.3622 Cl  0  0  0  0  0  0  0  0  0  0  0  0
    4.7767    9.5992   -0.2571 Cl  0  0  0  0  0  0  0  0  0  0  0  0
    2.5564    7.5079   -1.4997 S   0  0  0  0  0  0  0  0  0  0  0  0
    1.8544    8.3910   -0.5902 O   0  0  0  0  0  0  0  0  0  0  0  0
    2.9853    7.9392   -2.8096 O   0  0  0  0  0  0  0  0  0  0  0  0
    1.5291    6.1593   -1.6831 N   0  0  0  0  0  0  0  0  0  0  0  0
    1.6072    5.1228   -2.7532 C   0  0  0  0  0  0  0  0  0  0  0  0
    2.3588    3.8876   -2.2664 C   0  0  0  0  0  0  0  0  0  0  0  0
    1.9729    3.4433   -0.9359 O   0  0  0  0  0  0  0  0  0  0  0  0
    1.6163    4.4311    0.0609 C   0  0  0  0  0  0  0  0  0  0  0  0
    0.8647    5.6381   -0.4686 C   0  0  0  0  0  0  0  0  0  0  0  0
    6.3084    0.8610    0.1015 S   0  0  0  0  0  0  0  0  0  0  0  0
    6.0523   -0.7477    0.0406 C   0  0  0  0  0  0  0  0  0  0  0  0
    4.7376   -1.1380    0.0441 C   0  0  0  0  0  0  0  0  0  0  0  0
    4.4761   -2.6523    0.0110 C   0  0  0  0  0  0  0  0  0  0  0  0
    5.7888   -3.4710    0.3252 C   0  0  0  0  0  0  0  0  0  0  0  0
    7.0024   -2.9286   -0.4393 C   0  0  0  0  0  0  0  0  0  0  0  0
    7.2891   -1.5384    0.0466 C   0  0  0  0  0  0  0  0  0  0  0  0
    3.5369    3.0041    0.1145 H   0  0  0  0  0  0  0  0  0  0  0  0
    3.6861    4.9529   -0.9031 H   0  0  0  0  0  0  0  0  0  0  0  0
    6.7405    8.1085    1.0698 H   0  0  0  0  0  0  0  0  0  0  0  0
    2.0210    5.4963   -3.6954 H   0  0  0  0  0  0  0  0  0  0  0  0
    0.5839    4.7908   -2.9807 H   0  0  0  0  0  0  0  0  0  0  0  0
    3.4368    4.0664   -2.3497 H   0  0  0  0  0  0  0  0  0  0  0  0
    2.2433    3.0382   -2.9462 H   0  0  0  0  0  0  0  0  0  0  0  0
    2.4989    4.7703    0.6069 H   0  0  0  0  0  0  0  0  0  0  0  0
    1.0702    3.9326    0.8645 H   0  0  0  0  0  0  0  0  0  0  0  0
    0.8209    6.4060    0.3081 H   0  0  0  0  0  0  0  0  0  0  0  0
   -0.1633    5.3574   -0.7084 H   0  0  0  0  0  0  0  0  0  0  0  0
    4.1493   -2.9522   -0.9931 H   0  0  0  0  0  0  0  0  0  0  0  0
    3.7044   -2.9603    0.7251 H   0  0  0  0  0  0  0  0  0  0  0  0
    5.6735   -4.5316    0.0803 H   0  0  0  0  0  0  0  0  0  0  0  0
    6.0045   -3.4145    1.4025 H   0  0  0  0  0  0  0  0  0  0  0  0
    6.7946   -2.9097   -1.5163 H   0  0  0  0  0  0  0  0  0  0  0  0
    7.9063   -3.5227   -0.2781 H   0  0  0  0  0  0  0  0  0  0  0  0
    8.0409   -1.0625   -0.5946 H   0  0  0  0  0  0  0  0  0  0  0  0
    7.6718   -1.5434    1.0745 H   0  0  0  0  0  0  0  0  0  0  0  0
  1  2  3  0  0  0  0
  2  3  1  0  0  0  0
  3  4  2  0  0  0  0
  3 27  1  0  0  0  0
  4  5  1  0  0  0  0
  4 25  1  0  0  0  0
  5  6  1  0  0  0  0
  5 32  1  0  0  0  0
  6  7  2  0  0  0  0
  6  8  1  0  0  0  0
  8  9  2  0  0  0  0
  8 13  1  0  0  0  0
  9 10  1  0  0  0  0
  9 33  1  0  0  0  0
 10 11  2  0  0  0  0
 10 16  1  0  0  0  0
 11 12  1  0  0  0  0
 11 15  1  0  0  0  0
 12 13  2  0  0  0  0
 12 34  1  0  0  0  0
 13 14  1  0  0  0  0
 16 17  2  0  0  0  0
 16 18  2  0  0  0  0
 16 19  1  0  0  0  0
 19 20  1  0  0  0  0
 19 24  1  0  0  0  0
 20 21  1  0  0  0  0
 20 35  1  0  0  0  0
 20 36  1  0  0  0  0
 21 22  1  0  0  0  0
 21 37  1  0  0  0  0
 21 38  1  0  0  0  0
 22 23  1  0  0  0  0
 23 24  1  0  0  0  0
 23 39  1  0  0  0  0
 23 40  1  0  0  0  0
 24 41  1  0  0  0  0
 24 42  1  0  0  0  0
 25 26  1  0  0  0  0
 26 27  2  0  0  0  0
 26 31  1  0  0  0  0
 27 28  1  0  0  0  0
 28 29  1  0  0  0  0
 28 43  1  0  0  0  0
 28 44  1  0  0  0  0
 29 30  1  0  0  0  0
 29 45  1  0  0  0  0
 29 46  1  0  0  0  0
 30 31  1  0  0  0  0
 30 47  1  0  0  0  0
 30 48  1  0  0  0  0
 31 49  1  0  0  0  0
 31 50  1  0  0  0  0
M  END
$$$$
