1LI
 OpenBabel04121316043D

 72 74  0  0  1  0  0  0  0  0999 V2000
    4.2655    1.3392   -1.1425 C   0  0  0  0  0  0  0  0  0  0  0  0
    4.9460    0.1378   -1.6718 C   0  0  0  0  0  0  0  0  0  0  0  0
    5.4633    0.1370   -2.7823 O   0  0  0  0  0  0  0  0  0  0  0  0
    4.9834   -0.9622   -0.8707 N   0  0  0  0  0  0  0  0  0  0  0  0
    4.5731   -1.1231    0.5840 C   0  0  2  0  0  0  0  0  0  0  0  0
    3.4945   -1.1333    0.5393 H   0  0  0  0  0  0  0  0  0  0  0  0
    5.0282    0.0842    1.6718 C   0  0  1  0  0  0  0  0  0  0  0  0
    4.6555   -0.1971    2.6364 H   0  0  0  0  0  0  0  0  0  0  0  0
    6.5492    0.3834    1.8317 C   0  0  0  0  0  0  0  0  0  0  0  0
    7.3932   -0.6770    2.6320 N   0  0  0  0  0  0  0  0  0  0  0  0
    9.2360   -0.9840    2.2085 C   0  0  0  0  0  0  0  0  0  0  0  0
    9.8977   -2.0225    0.3155 C   0  0  0  0  0  0  0  0  0  0  0  0
    9.0428   -1.5289   -1.1865 C   0  0  0  0  0  0  0  0  0  0  0  0
    9.3546   -0.0376   -1.1982 C   0  0  0  0  0  0  0  0  0  0  0  0
    8.9162    1.1010    0.1772 C   0  0  0  0  0  0  0  0  0  0  0  0
    9.3302    0.6578    1.9388 C   0  0  0  0  0  0  0  0  0  0  0  0
    9.2804   -1.6060    3.6410 C   0  0  0  0  0  0  0  0  0  0  0  0
    9.9385   -0.7884    4.4642 C   0  0  0  0  0  0  0  0  0  0  0  0
   10.2663   -1.3222    5.6485 C   0  0  0  0  0  0  0  0  0  0  0  0
   10.1934   -2.7030    5.8349 C   0  0  0  0  0  0  0  0  0  0  0  0
    9.4939   -3.5400    4.9910 C   0  0  0  0  0  0  0  0  0  0  0  0
    8.7498   -2.8605    4.0972 C   0  0  0  0  0  0  0  0  0  0  0  0
    9.4567   -5.0376    5.1148 C   0  0  0  0  0  0  0  0  0  0  0  0
   10.8934   -5.5602    5.1260 C   0  0  0  0  0  0  0  0  0  0  0  0
    8.7423   -5.3058    6.4185 C   0  0  0  0  0  0  0  0  0  0  0  0
    8.6960   -5.7619    4.0005 C   0  0  0  0  0  0  0  0  0  0  0  0
    4.4520    1.3621    1.4298 O   0  0  0  0  0  0  0  0  0  0  0  0
    5.0662   -2.5869    1.0958 C   0  0  0  0  0  0  0  0  0  0  0  0
    6.5028   -2.9203    0.8595 C   0  0  0  0  0  0  0  0  0  0  0  0
    7.0383   -1.8320    0.3975 C   0  0  0  0  0  0  0  0  0  0  0  0
    8.1549   -1.7991    0.9364 C   0  0  0  0  0  0  0  0  0  0  0  0
    9.3000   -0.5507    0.5941 F   0  0  0  0  0  0  0  0  0  0  0  0
    9.0973   -3.0517    1.7593 C   0  0  0  0  0  0  0  0  0  0  0  0
    8.6501   -4.2124    1.5006 C   0  0  0  0  0  0  0  0  0  0  0  0
    7.2960   -4.0930    1.2113 C   0  0  0  0  0  0  0  0  0  0  0  0
    9.5481   -5.1128    1.1242 F   0  0  0  0  0  0  0  0  0  0  0  0
    4.1174    2.1245   -1.8674 H   0  0  0  0  0  0  0  0  0  0  0  0
    4.9697    1.8229   -0.4691 H   0  0  0  0  0  0  0  0  0  0  0  0
    3.2895    1.0396   -0.7388 H   0  0  0  0  0  0  0  0  0  0  0  0
    5.5499   -1.7129   -1.2878 H   0  0  0  0  0  0  0  0  0  0  0  0
    6.9002    1.3529    2.1583 H   0  0  0  0  0  0  0  0  0  0  0  0
    6.6232    0.5744    0.7392 H   0  0  0  0  0  0  0  0  0  0  0  0
    6.8625   -1.5953    2.6138 H   0  0  0  0  0  0  0  0  0  0  0  0
    9.1328   -3.0118   -0.1025 H   0  0  0  0  0  0  0  0  0  0  0  0
   10.8835   -2.1446    0.0762 H   0  0  0  0  0  0  0  0  0  0  0  0
    7.9409   -1.7094   -1.3936 H   0  0  0  0  0  0  0  0  0  0  0  0
    9.4022   -2.3513   -1.8256 H   0  0  0  0  0  0  0  0  0  0  0  0
    8.9014    0.2956   -2.1007 H   0  0  0  0  0  0  0  0  0  0  0  0
   10.4408   -0.1131   -1.1334 H   0  0  0  0  0  0  0  0  0  0  0  0
    7.8727    1.2578    0.0414 H   0  0  0  0  0  0  0  0  0  0  0  0
    9.4065    2.0177   -0.0006 H   0  0  0  0  0  0  0  0  0  0  0  0
    8.7874    1.2470    2.6953 H   0  0  0  0  0  0  0  0  0  0  0  0
   10.4002    0.6924    2.0634 H   0  0  0  0  0  0  0  0  0  0  0  0
   10.1300    0.2088    4.1265 H   0  0  0  0  0  0  0  0  0  0  0  0
   10.6157   -0.6316    6.3794 H   0  0  0  0  0  0  0  0  0  0  0  0
   10.6431   -3.1227    6.7100 H   0  0  0  0  0  0  0  0  0  0  0  0
    8.0279   -3.4425    3.5328 H   0  0  0  0  0  0  0  0  0  0  0  0
   11.4731   -5.0857    5.9225 H   0  0  0  0  0  0  0  0  0  0  0  0
   11.4035   -5.3469    4.1762 H   0  0  0  0  0  0  0  0  0  0  0  0
   10.8999   -6.6388    5.2949 H   0  0  0  0  0  0  0  0  0  0  0  0
    9.2632   -4.8169    7.2454 H   0  0  0  0  0  0  0  0  0  0  0  0
    8.7006   -6.3755    6.6097 H   0  0  0  0  0  0  0  0  0  0  0  0
    7.7239   -4.8990    6.3759 H   0  0  0  0  0  0  0  0  0  0  0  0
    9.2290   -5.6290    3.0710 H   0  0  0  0  0  0  0  0  0  0  0  0
    7.6679   -5.3930    3.8942 H   0  0  0  0  0  0  0  0  0  0  0  0
    8.6530   -6.8394    4.1351 H   0  0  0  0  0  0  0  0  0  0  0  0
    3.5859    1.2384    1.0254 H   0  0  0  0  0  0  0  0  0  0  0  0
    4.5865   -3.3700    0.5412 H   0  0  0  0  0  0  0  0  0  0  0  0
    4.8710   -2.6008    2.1665 H   0  0  0  0  0  0  0  0  0  0  0  0
    6.5591   -0.9354    0.3987 H   0  0  0  0  0  0  0  0  0  0  0  0
   10.3789   -2.7943    1.9098 H   0  0  0  0  0  0  0  0  0  0  0  0
    6.7442   -4.9811    1.1867 H   0  0  0  0  0  0  0  0  0  0  0  0
  1  2  1  0  0  0  0
  1 37  1  0  0  0  0
  1 38  1  0  0  0  0
  1 39  1  0  0  0  0
  2  3  2  0  0  0  0
  2  4  1  0  0  0  0
  4 40  1  0  0  0  0
  5  7  1  0  0  0  0
  5 28  1  0  0  0  0
  5  6  1  1  0  0  0
  5  4  1  0  0  0  0
  7  8  1  1  0  0  0
  7  9  1  0  0  0  0
  7 27  1  0  0  0  0
  9 10  1  0  0  0  0
  9 41  1  0  0  0  0
  9 42  1  0  0  0  0
 10 11  1  0  0  0  0
 10 43  1  0  0  0  0
 11 12  1  0  0  0  0
 11 16  1  0  0  0  0
 11 17  1  0  0  0  0
 12 13  1  0  0  0  0
 12 44  1  0  0  0  0
 12 45  1  0  0  0  0
 13 14  1  0  0  0  0
 13 46  1  0  0  0  0
 13 47  1  0  0  0  0
 14 15  1  0  0  0  0
 14 48  1  0  0  0  0
 14 49  1  0  0  0  0
 15 16  1  0  0  0  0
 15 50  1  0  0  0  0
 15 51  1  0  0  0  0
 16 52  1  0  0  0  0
 16 53  1  0  0  0  0
 17 18  2  0  0  0  0
 17 22  1  0  0  0  0
 18 19  1  0  0  0  0
 18 54  1  0  0  0  0
 19 20  2  0  0  0  0
 19 55  1  0  0  0  0
 20 21  1  0  0  0  0
 20 56  1  0  0  0  0
 21 22  2  0  0  0  0
 21 23  1  0  0  0  0
 22 57  1  0  0  0  0
 23 24  1  0  0  0  0
 23 25  1  0  0  0  0
 23 26  1  0  0  0  0
 24 58  1  0  0  0  0
 24 59  1  0  0  0  0
 24 60  1  0  0  0  0
 25 61  1  0  0  0  0
 25 62  1  0  0  0  0
 25 63  1  0  0  0  0
 26 64  1  0  0  0  0
 26 65  1  0  0  0  0
 26 66  1  0  0  0  0
 27 67  1  0  0  0  0
 28 29  1  0  0  0  0
 28 68  1  0  0  0  0
 28 69  1  0  0  0  0
 29 30  2  0  0  0  0
 29 35  1  0  0  0  0
 30 31  1  0  0  0  0
 30 70  1  0  0  0  0
 31 32  1  0  0  0  0
 31 33  2  0  0  0  0
 33 34  1  0  0  0  0
 33 71  1  0  0  0  0
 34 35  2  0  0  0  0
 34 36  1  0  0  0  0
 35 72  1  0  0  0  0
M  END
$$$$
