1MC
 OpenBabel04121316043D

 16 16  0  0  0  0  0  0  0  0999 V2000
    0.9594   -0.0279   -0.1137 C   0  0  0  0  0  0  0  0  0  0  0  0
    2.4122   -0.0200   -0.1400 N   0  0  0  0  0  0  0  0  0  0  0  0
    3.0773    1.1810   -0.0812 C   0  0  0  0  0  0  0  0  0  0  0  0
    4.3676    1.2246    0.2375 C   0  0  0  0  0  0  0  0  0  0  0  0
    5.0724   -0.0716    0.2349 C   0  0  0  0  0  0  0  0  0  0  0  0
    4.4593   -1.2107    0.1306 N   0  0  0  0  0  0  0  0  0  0  0  0
    3.0849   -1.2305    0.0671 C   0  0  0  0  0  0  0  0  0  0  0  0
    2.4566   -2.2874    0.1937 O   0  0  0  0  0  0  0  0  0  0  0  0
    6.4344   -0.0724    0.3212 N   0  0  0  0  0  0  0  0  0  0  0  0
    0.5513    0.9828   -0.2163 H   0  0  0  0  0  0  0  0  0  0  0  0
    0.6287   -0.4419    0.8458 H   0  0  0  0  0  0  0  0  0  0  0  0
    0.5768   -0.6598   -0.9197 H   0  0  0  0  0  0  0  0  0  0  0  0
    2.5003    2.0866   -0.2341 H   0  0  0  0  0  0  0  0  0  0  0  0
    4.9073    2.1375    0.4362 H   0  0  0  0  0  0  0  0  0  0  0  0
    6.9670    0.7816    0.2276 H   0  0  0  0  0  0  0  0  0  0  0  0
    6.9068   -0.9373    0.0843 H   0  0  0  0  0  0  0  0  0  0  0  0
  1  2  1  0  0  0  0
  1 10  1  0  0  0  0
  1 11  1  0  0  0  0
  1 12  1  0  0  0  0
  2  3  1  0  0  0  0
  2  7  1  0  0  0  0
  3  4  2  0  0  0  0
  3 13  1  0  0  0  0
  4  5  1  0  0  0  0
  4 14  1  0  0  0  0
  5  6  2  0  0  0  0
  5  9  1  0  0  0  0
  6  7  1  0  0  0  0
  7  8  2  0  0  0  0
  9 15  1  0  0  0  0
  9 16  1  0  0  0  0
M  END
$$$$
