1MR
 OpenBabel04121316043D

 17 17  0  0  0  0  0  0  0  0999 V2000
    0.9648   -0.0464   -0.0200 C   0  0  0  0  0  0  0  0  0  0  0  0
    2.4160    0.0001    0.1261 N   0  0  0  0  0  0  0  0  0  0  0  0
    3.0332    1.1252   -0.4419 C   0  0  0  0  0  0  0  0  0  0  0  0
    2.6208    2.4068   -0.0579 C   0  0  0  0  0  0  0  0  0  0  0  0
    3.1280    3.5487   -0.6834 C   0  0  0  0  0  0  0  0  0  0  0  0
    4.1033    3.4253   -1.6599 C   0  0  0  0  0  0  0  0  0  0  0  0
    4.5821    2.1617   -2.0080 C   0  0  0  0  0  0  0  0  0  0  0  0
    4.0239    1.0136   -1.4199 C   0  0  0  0  0  0  0  0  0  0  0  0
    0.5913   -1.0089    0.3424 H   0  0  0  0  0  0  0  0  0  0  0  0
    0.6451    0.0651   -1.0641 H   0  0  0  0  0  0  0  0  0  0  0  0
    0.4810    0.7319    0.5795 H   0  0  0  0  0  0  0  0  0  0  0  0
    2.8882   -0.8805   -0.0489 H   0  0  0  0  0  0  0  0  0  0  0  0
    1.9085    2.5199    0.7501 H   0  0  0  0  0  0  0  0  0  0  0  0
    2.7528    4.5256   -0.3914 H   0  0  0  0  0  0  0  0  0  0  0  0
    4.4968    4.3147   -2.1494 H   0  0  0  0  0  0  0  0  0  0  0  0
    5.3765    2.0708   -2.7413 H   0  0  0  0  0  0  0  0  0  0  0  0
    4.3689    0.0396   -1.7591 H   0  0  0  0  0  0  0  0  0  0  0  0
  1  2  1  0  0  0  0
  1  9  1  0  0  0  0
  1 10  1  0  0  0  0
  1 11  1  0  0  0  0
  2  3  1  0  0  0  0
  2 12  1  0  0  0  0
  3  4  2  0  0  0  0
  3  8  1  0  0  0  0
  4  5  1  0  0  0  0
  4 13  1  0  0  0  0
  5  6  2  0  0  0  0
  5 14  1  0  0  0  0
  6  7  1  0  0  0  0
  6 15  1  0  0  0  0
  7  8  2  0  0  0  0
  7 16  1  0  0  0  0
  8 17  1  0  0  0  0
M  END
$$$$
