1N1
 OpenBabel04121316043D

 59 62  0  0  0  0  0  0  0  0999 V2000
    0.5925    0.0057    0.2458 O   0  0  0  0  0  0  0  0  0  0  0  0
    1.9860    0.2145    0.1620 C   0  0  0  0  0  0  0  0  0  0  0  0
    2.7775    0.1854    1.4859 C   0  0  0  0  0  0  0  0  0  0  0  0
    4.2617    0.1904    1.4322 N   0  0  0  0  0  0  0  0  0  0  0  0
    4.8312   -1.1444    1.1111 C   0  0  0  0  0  0  0  0  0  0  0  0
    4.5755   -1.6270   -0.3227 C   0  0  0  0  0  0  0  0  0  0  0  0
    4.9548   -0.5612   -1.2535 N   0  0  0  0  0  0  0  0  0  0  0  0
    4.5663    0.8220   -1.0025 C   0  0  0  0  0  0  0  0  0  0  0  0
    4.7897    1.1792    0.4714 C   0  0  0  0  0  0  0  0  0  0  0  0
    5.7033   -0.8882   -2.3481 C   0  0  0  0  0  0  0  0  0  0  0  0
    6.3586    0.1213   -3.0241 C   0  0  0  0  0  0  0  0  0  0  0  0
    7.0954   -0.2215   -4.0865 C   0  0  0  0  0  0  0  0  0  0  0  0
    7.1693   -1.5203   -4.4087 N   0  0  0  0  0  0  0  0  0  0  0  0
    6.5352   -2.4710   -3.7403 C   0  0  0  0  0  0  0  0  0  0  0  0
    5.7813   -2.1901   -2.6946 N   0  0  0  0  0  0  0  0  0  0  0  0
    6.7104   -3.8795   -4.2231 C   0  0  0  0  0  0  0  0  0  0  0  0
    7.7606    0.7946   -4.8130 N   0  0  0  0  0  0  0  0  0  0  0  0
    8.4852    0.5446   -5.9188 C   0  0  0  0  0  0  0  0  0  0  0  0
    9.1252    1.4112   -6.6831 N   0  0  0  0  0  0  0  0  0  0  0  0
    9.7962    0.7153   -7.7026 C   0  0  0  0  0  0  0  0  0  0  0  0
    9.6963   -0.6466   -7.6186 C   0  0  0  0  0  0  0  0  0  0  0  0
    8.5984   -1.0485   -6.4675 S   0  0  0  0  0  0  0  0  0  0  0  0
   10.1654   -1.8285   -8.2468 C   0  0  0  0  0  0  0  0  0  0  0  0
   10.1823   -2.9163   -7.6897 O   0  0  0  0  0  0  0  0  0  0  0  0
   10.5738   -1.6308   -9.5355 N   0  0  0  0  0  0  0  0  0  0  0  0
   10.8774   -2.7554  -10.3064 C   0  0  0  0  0  0  0  0  0  0  0  0
   12.0195   -2.7192  -11.1077 C   0  0  0  0  0  0  0  0  0  0  0  0
   12.9297   -1.5281  -11.2324 C   0  0  0  0  0  0  0  0  0  0  0  0
   12.3733   -3.9000  -11.7653 C   0  0  0  0  0  0  0  0  0  0  0  0
   11.7606   -5.1143  -11.4410 C   0  0  0  0  0  0  0  0  0  0  0  0
   10.5912   -5.1301  -10.6984 C   0  0  0  0  0  0  0  0  0  0  0  0
   10.0896   -3.9326  -10.2280 C   0  0  0  0  0  0  0  0  0  0  0  0
    8.4238   -3.9476   -9.7137 Cl  0  0  0  0  0  0  0  0  0  0  0  0
    0.3171   -0.0448   -0.6924 H   0  0  0  0  0  0  0  0  0  0  0  0
    2.0999    1.2024   -0.2844 H   0  0  0  0  0  0  0  0  0  0  0  0
    2.3199   -0.5446   -0.5360 H   0  0  0  0  0  0  0  0  0  0  0  0
    2.4418   -0.6418    2.1201 H   0  0  0  0  0  0  0  0  0  0  0  0
    2.4882    1.0914    2.0324 H   0  0  0  0  0  0  0  0  0  0  0  0
    4.4701   -1.8927    1.8232 H   0  0  0  0  0  0  0  0  0  0  0  0
    5.9230   -1.1047    1.2517 H   0  0  0  0  0  0  0  0  0  0  0  0
    3.5337   -1.9267   -0.4485 H   0  0  0  0  0  0  0  0  0  0  0  0
    5.1240   -2.5635   -0.4803 H   0  0  0  0  0  0  0  0  0  0  0  0
    3.5616    0.9447   -1.3942 H   0  0  0  0  0  0  0  0  0  0  0  0
    5.0698    1.6029   -1.5734 H   0  0  0  0  0  0  0  0  0  0  0  0
    4.3926    2.1783    0.6825 H   0  0  0  0  0  0  0  0  0  0  0  0
    5.8778    1.2669    0.6202 H   0  0  0  0  0  0  0  0  0  0  0  0
    6.3507    1.1576   -2.7500 H   0  0  0  0  0  0  0  0  0  0  0  0
    7.3649   -3.9134   -5.1042 H   0  0  0  0  0  0  0  0  0  0  0  0
    5.7488   -4.3124   -4.5120 H   0  0  0  0  0  0  0  0  0  0  0  0
    7.1699   -4.5000   -3.4490 H   0  0  0  0  0  0  0  0  0  0  0  0
    7.6477    1.7485   -4.5081 H   0  0  0  0  0  0  0  0  0  0  0  0
   10.3660    1.2675   -8.4378 H   0  0  0  0  0  0  0  0  0  0  0  0
   10.9601   -0.7276   -9.7404 H   0  0  0  0  0  0  0  0  0  0  0  0
   12.6898   -0.7082  -10.5497 H   0  0  0  0  0  0  0  0  0  0  0  0
   12.8985   -1.1321  -12.2496 H   0  0  0  0  0  0  0  0  0  0  0  0
   13.9558   -1.8216  -10.9830 H   0  0  0  0  0  0  0  0  0  0  0  0
   13.1606   -3.8876  -12.5127 H   0  0  0  0  0  0  0  0  0  0  0  0
   12.1751   -6.0496  -11.7997 H   0  0  0  0  0  0  0  0  0  0  0  0
   10.0441   -6.0517  -10.5292 H   0  0  0  0  0  0  0  0  0  0  0  0
  1  2  1  0  0  0  0
  1 34  1  0  0  0  0
  2  3  1  0  0  0  0
  2 35  1  0  0  0  0
  2 36  1  0  0  0  0
  3  4  1  0  0  0  0
  3 37  1  0  0  0  0
  3 38  1  0  0  0  0
  4  5  1  0  0  0  0
  4  9  1  0  0  0  0
  5  6  1  0  0  0  0
  5 39  1  0  0  0  0
  5 40  1  0  0  0  0
  6  7  1  0  0  0  0
  6 41  1  0  0  0  0
  6 42  1  0  0  0  0
  7  8  1  0  0  0  0
  7 10  1  0  0  0  0
  8  9  1  0  0  0  0
  8 43  1  0  0  0  0
  8 44  1  0  0  0  0
  9 45  1  0  0  0  0
  9 46  1  0  0  0  0
 10 11  2  0  0  0  0
 10 15  1  0  0  0  0
 11 12  1  0  0  0  0
 11 47  1  0  0  0  0
 12 13  2  0  0  0  0
 12 17  1  0  0  0  0
 13 14  1  0  0  0  0
 14 15  2  0  0  0  0
 14 16  1  0  0  0  0
 16 48  1  0  0  0  0
 16 49  1  0  0  0  0
 16 50  1  0  0  0  0
 17 18  1  0  0  0  0
 17 51  1  0  0  0  0
 18 19  2  0  0  0  0
 18 22  1  0  0  0  0
 19 20  1  0  0  0  0
 20 21  2  0  0  0  0
 20 52  1  0  0  0  0
 21 22  1  0  0  0  0
 21 23  1  0  0  0  0
 23 24  2  0  0  0  0
 23 25  1  0  0  0  0
 25 26  1  0  0  0  0
 25 53  1  0  0  0  0
 26 27  2  0  0  0  0
 26 32  1  0  0  0  0
 27 28  1  0  0  0  0
 27 29  1  0  0  0  0
 28 54  1  0  0  0  0
 28 55  1  0  0  0  0
 28 56  1  0  0  0  0
 29 30  2  0  0  0  0
 29 57  1  0  0  0  0
 30 31  1  0  0  0  0
 30 58  1  0  0  0  0
 31 32  2  0  0  0  0
 31 59  1  0  0  0  0
 32 33  1  0  0  0  0
M  END
$$$$
