1NP
 OpenBabel04121316043D

 19 20  0  0  0  0  0  0  0  0999 V2000
    0.8595   -0.0386    0.0058 O   0  0  0  0  0  0  0  0  0  0  0  0
    2.2316   -0.0731    0.0263 C   0  0  0  0  0  0  0  0  0  0  0  0
    2.8961   -1.2941   -0.0654 C   0  0  0  0  0  0  0  0  0  0  0  0
    4.2913   -1.3219   -0.0636 C   0  0  0  0  0  0  0  0  0  0  0  0
    5.0158   -0.1331    0.0159 C   0  0  0  0  0  0  0  0  0  0  0  0
    4.3578    1.1021    0.0548 C   0  0  0  0  0  0  0  0  0  0  0  0
    2.9395    1.1388    0.0810 C   0  0  0  0  0  0  0  0  0  0  0  0
    2.2983    2.3872    0.1141 C   0  0  0  0  0  0  0  0  0  0  0  0
    3.0223    3.5634   -0.0587 C   0  0  0  0  0  0  0  0  0  0  0  0
    4.4091    3.5130   -0.1692 C   0  0  0  0  0  0  0  0  0  0  0  0
    5.0756    2.3019    0.0004 C   0  0  0  0  0  0  0  0  0  0  0  0
    0.5213   -0.9432   -0.0801 H   0  0  0  0  0  0  0  0  0  0  0  0
    2.3492   -2.2266   -0.1524 H   0  0  0  0  0  0  0  0  0  0  0  0
    4.8173   -2.2686   -0.1473 H   0  0  0  0  0  0  0  0  0  0  0  0
    6.1043   -0.1738   -0.0088 H   0  0  0  0  0  0  0  0  0  0  0  0
    1.2154    2.4380    0.2207 H   0  0  0  0  0  0  0  0  0  0  0  0
    2.5019    4.5138   -0.1208 H   0  0  0  0  0  0  0  0  0  0  0  0
    4.9704    4.4140   -0.3964 H   0  0  0  0  0  0  0  0  0  0  0  0
    6.1637    2.2982    0.0374 H   0  0  0  0  0  0  0  0  0  0  0  0
  1  2  1  0  0  0  0
  1 12  1  0  0  0  0
  2  3  2  0  0  0  0
  2  7  1  0  0  0  0
  3  4  1  0  0  0  0
  3 13  1  0  0  0  0
  4  5  2  0  0  0  0
  4 14  1  0  0  0  0
  5  6  1  0  0  0  0
  5 15  1  0  0  0  0
  6  7  2  0  0  0  0
  6 11  1  0  0  0  0
  7  8  1  0  0  0  0
  8  9  2  0  0  0  0
  8 16  1  0  0  0  0
  9 10  1  0  0  0  0
  9 17  1  0  0  0  0
 10 11  2  0  0  0  0
 10 18  1  0  0  0  0
 11 19  1  0  0  0  0
M  END
$$$$
