1NT
 OpenBabel04121316043D

 43 42  0  0  1  0  0  0  0  0999 V2000
   11.0586    3.8705   -1.6387 O   0  0  0  0  0  0  0  0  0  0  0  0
   10.2204    4.8681   -2.2432 C   0  0  1  0  0  0  0  0  0  0  0  0
    9.9090    4.5112   -3.2280 H   0  0  0  0  0  0  0  0  0  0  0  0
    9.0571    5.2156   -1.2940 C   0  0  2  0  0  0  0  0  0  0  0  0
    9.4600    5.4216   -0.2950 H   0  0  0  0  0  0  0  0  0  0  0  0
    8.0512    4.0856   -1.1847 C   0  0  1  0  0  0  0  0  0  0  0  0
    7.1993    4.4351   -0.5891 H   0  0  0  0  0  0  0  0  0  0  0  0
    7.5385    3.7474   -2.6105 C   0  0  1  0  0  0  0  0  0  0  0  0
    8.3160    3.3919   -3.2889 H   0  0  0  0  0  0  0  0  0  0  0  0
    6.4794    2.6944   -2.5628 C   0  0  0  0  0  0  0  0  0  0  0  0
    6.9456    1.3251   -2.0077 C   0  0  2  0  0  0  0  0  0  0  0  0
    6.5303    0.0559   -2.8338 C   0  0  0  0  0  0  0  0  0  0  0  0
    6.3793   -1.0473   -2.2765 O   0  0  0  0  0  0  0  0  0  0  0  0
    6.4183    0.1918   -4.1728 O   0  0  0  0  0  0  0  0  0  0  0  0
    6.4883    1.2387   -0.6202 O   0  0  0  0  0  0  0  0  0  0  0  0
    4.7583    1.2387   -0.6202 P   0  0  0  0  0  0  0  0  0  0  0  0
    4.5328    1.1316   -2.1211 O   0  0  0  0  0  0  0  0  0  0  0  0
    4.8205   -0.2286    0.0641 O   0  0  0  0  0  0  0  0  0  0  0  0
    3.0283    1.2387   -0.6203 O   0  0  0  0  0  0  0  0  0  0  0  0
    8.3697    1.1878   -2.1474 O   0  0  0  0  0  0  0  0  0  0  0  0
    6.9152    4.8800   -3.2425 O   0  0  0  0  0  0  0  0  0  0  0  0
    8.5907    2.9797   -0.4775 O   0  0  0  0  0  0  0  0  0  0  0  0
    8.3692    6.3750   -1.7686 O   0  0  0  0  0  0  0  0  0  0  0  0
   11.0618    6.1027   -2.4201 C   0  0  0  0  0  0  0  0  0  0  0  0
   10.5294    7.2260   -3.1088 O   0  0  0  0  0  0  0  0  0  0  0  0
   10.8378    8.6096   -2.3361 P   0  0  0  0  0  0  0  0  0  0  0  0
   10.0114    8.8794   -1.1283 O   0  0  0  0  0  0  0  0  0  0  0  0
   12.4051    8.4575   -2.0448 O   0  0  0  0  0  0  0  0  0  0  0  0
   10.8241    9.7661   -3.4299 O   0  0  0  0  0  0  0  0  0  0  0  0
   11.6864    3.5485   -2.3114 H   0  0  0  0  0  0  0  0  0  0  0  0
    6.0210    2.6284   -3.5535 H   0  0  0  0  0  0  0  0  0  0  0  0
    5.6861    3.1409   -1.9463 H   0  0  0  0  0  0  0  0  0  0  0  0
    6.5088    1.1058   -4.5028 H   0  0  0  0  0  0  0  0  0  0  0  0
    5.4252   -0.8203   -0.4322 H   0  0  0  0  0  0  0  0  0  0  0  0
    2.7446    1.8140   -1.3537 H   0  0  0  0  0  0  0  0  0  0  0  0
    8.6158    0.4842   -1.5216 H   0  0  0  0  0  0  0  0  0  0  0  0
    7.5248    5.6461   -3.1616 H   0  0  0  0  0  0  0  0  0  0  0  0
    9.1090    3.2713    0.2887 H   0  0  0  0  0  0  0  0  0  0  0  0
    7.7705    6.6837   -1.0639 H   0  0  0  0  0  0  0  0  0  0  0  0
   11.9784    5.8207   -2.9366 H   0  0  0  0  0  0  0  0  0  0  0  0
   11.3164    6.4026   -1.3985 H   0  0  0  0  0  0  0  0  0  0  0  0
   12.7750    7.6413   -2.4256 H   0  0  0  0  0  0  0  0  0  0  0  0
   10.7480   10.6229   -2.9639 H   0  0  0  0  0  0  0  0  0  0  0  0
  1  2  1  0  0  0  0
  1 30  1  0  0  0  0
  2  3  1  6  0  0  0
  2 24  1  0  0  0  0
  4  6  1  0  0  0  0
  4 23  1  0  0  0  0
  4  5  1  1  0  0  0
  4  2  1  0  0  0  0
  6  7  1  1  0  0  0
  6  8  1  0  0  0  0
  6 22  1  0  0  0  0
  8  9  1  6  0  0  0
  8 10  1  0  0  0  0
  8 21  1  0  0  0  0
 10 31  1  0  0  0  0
 10 32  1  0  0  0  0
 11 15  1  1  0  0  0
 11 20  1  0  0  0  0
 11 12  1  0  0  0  0
 11 10  1  0  0  0  0
 12 13  2  0  0  0  0
 12 14  1  0  0  0  0
 14 33  1  0  0  0  0
 15 16  1  0  0  0  0
 16 17  2  0  0  0  0
 16 18  1  0  0  0  0
 16 19  1  0  0  0  0
 18 34  1  0  0  0  0
 19 35  1  0  0  0  0
 20 36  1  0  0  0  0
 21 37  1  0  0  0  0
 22 38  1  0  0  0  0
 23 39  1  0  0  0  0
 24 25  1  0  0  0  0
 24 40  1  0  0  0  0
 24 41  1  0  0  0  0
 25 26  1  0  0  0  0
 26 27  2  0  0  0  0
 26 28  1  0  0  0  0
 26 29  1  0  0  0  0
 28 42  1  0  0  0  0
 29 43  1  0  0  0  0
M  END
$$$$
