1UN
 OpenBabel04121316043D

 85 88  0  0  1  0  0  0  0  0999 V2000
    0.5773   -0.2994   -0.2316 O   0  0  0  0  0  0  0  0  0  0  0  0
    1.9812   -0.4217   -0.3273 C   0  0  1  0  0  0  0  0  0  0  0  0
    2.2817    0.0160   -1.2557 H   0  0  0  0  0  0  0  0  0  0  0  0
    2.1614    0.3959    0.9023 C   0  0  1  0  0  0  0  0  0  0  0  0
    1.9866   -0.3137    1.9185 H   0  0  0  0  0  0  0  0  0  0  0  0
    3.7366    0.3286    1.7384 N   0  0  0  0  0  0  0  0  0  0  0  0
    4.8109   -0.4415    1.2633 C   0  0  0  0  0  0  0  0  0  0  0  0
    3.6976   -0.9406    1.2532 O   0  0  0  0  0  0  0  0  0  0  0  0
    6.7142   -0.5221    1.2174 C   0  0  0  0  0  0  0  0  0  0  0  0
    7.4842    0.6780    1.1122 C   0  0  0  0  0  0  0  0  0  0  0  0
    8.7518    0.7169    1.6195 C   0  0  0  0  0  0  0  0  0  0  0  0
    9.4786   -0.4501    1.5781 C   0  0  0  0  0  0  0  0  0  0  0  0
    8.8661   -1.6564    1.3788 C   0  0  0  0  0  0  0  0  0  0  0  0
    7.5150   -1.7232    1.3372 C   0  0  0  0  0  0  0  0  0  0  0  0
    7.0717   -3.1493    1.5513 C   0  0  0  0  0  0  0  0  0  0  0  0
    9.4839   -2.8557    1.2954 O   0  0  0  0  0  0  0  0  0  0  0  0
    1.8085    2.4811    0.7132 C   0  0  0  0  0  0  0  0  0  0  0  0
    3.2427    3.6693    2.1136 S   0  0  0  0  0  0  0  0  0  0  0  0
    2.3211    5.0175    2.4178 C   0  0  0  0  0  0  0  0  0  0  0  0
    1.0696    5.1473    1.8713 C   0  0  0  0  0  0  0  0  0  0  0  0
    0.7382    6.4056    1.4930 C   0  0  0  0  0  0  0  0  0  0  0  0
    1.5366    7.4589    1.9361 C   0  0  0  0  0  0  0  0  0  0  0  0
    2.6596    7.2638    2.7449 C   0  0  0  0  0  0  0  0  0  0  0  0
    3.1285    6.0085    2.9092 C   0  0  0  0  0  0  0  0  0  0  0  0
    2.7259   -1.7786   -0.3126 C   0  0  0  0  0  0  0  0  0  0  0  0
    4.4542   -1.8973   -0.2819 N   0  0  0  0  0  0  0  0  0  0  0  0
    5.0784   -0.1354   -0.6589 C   0  0  0  0  0  0  0  0  0  0  0  0
    5.1166    1.3692    0.7168 C   0  0  1  0  0  0  0  0  0  0  0  0
    5.4047    2.3521    0.2963 H   0  0  0  0  0  0  0  0  0  0  0  0
    3.5292    1.7787    0.5418 C   0  0  0  0  0  0  0  0  0  0  0  0
    2.2143    1.5936    2.3514 C   0  0  0  0  0  0  0  0  0  0  0  0
    2.8374    1.2880    3.7202 C   0  0  0  0  0  0  0  0  0  0  0  0
    4.4494    1.4965    3.7727 C   0  0  0  0  0  0  0  0  0  0  0  0
    5.3938    0.7363    2.7163 C   0  0  1  0  0  0  0  0  0  0  0  0
    6.4317    0.7523    3.0433 H   0  0  0  0  0  0  0  0  0  0  0  0
    4.7181   -1.1453    3.1211 C   0  0  0  0  0  0  0  0  0  0  0  0
    4.6630   -2.4011    1.5816 C   0  0  1  0  0  0  0  0  0  0  0  0
    5.6159   -2.1819    1.5291 H   0  0  0  0  0  0  0  0  0  0  0  0
    4.3487   -3.7245    1.9359 C   0  0  0  0  0  0  0  0  0  0  0  0
    5.1664   -4.4880    2.4300 O   0  0  0  0  0  0  0  0  0  0  0  0
    3.0549   -3.9747    1.7203 N   0  0  0  0  0  0  0  0  0  0  0  0
    2.6613   -5.2701    1.9629 C   0  0  0  0  0  0  0  0  0  0  0  0
    3.5009   -6.1588    1.0492 C   0  0  0  0  0  0  0  0  0  0  0  0
    2.8896   -5.4743    3.4531 C   0  0  0  0  0  0  0  0  0  0  0  0
    1.1994   -5.3214    1.6011 C   0  0  0  0  0  0  0  0  0  0  0  0
    0.4887    0.6771   -0.1234 H   0  0  0  0  0  0  0  0  0  0  0  0
    3.9504    1.2956    2.0554 H   0  0  0  0  0  0  0  0  0  0  0  0
    7.0850    1.6561    0.8848 H   0  0  0  0  0  0  0  0  0  0  0  0
    9.1294    1.6552    2.0110 H   0  0  0  0  0  0  0  0  0  0  0  0
   10.5407   -0.4161    1.6810 H   0  0  0  0  0  0  0  0  0  0  0  0
    7.6450   -4.0463    1.6810 H   0  0  0  0  0  0  0  0  0  0  0  0
    6.4441   -3.3907    0.6633 H   0  0  0  0  0  0  0  0  0  0  0  0
    6.6322   -3.0558    2.5780 H   0  0  0  0  0  0  0  0  0  0  0  0
   10.4298   -2.7343    1.2901 H   0  0  0  0  0  0  0  0  0  0  0  0
    0.8123    2.6911    0.7050 H   0  0  0  0  0  0  0  0  0  0  0  0
    2.4197    3.2755    0.1388 H   0  0  0  0  0  0  0  0  0  0  0  0
    0.4413    4.3005    1.6348 H   0  0  0  0  0  0  0  0  0  0  0  0
   -0.1299    6.5620    0.8711 H   0  0  0  0  0  0  0  0  0  0  0  0
    1.2617    8.4611    1.6604 H   0  0  0  0  0  0  0  0  0  0  0  0
    3.2063    8.0643    3.2074 H   0  0  0  0  0  0  0  0  0  0  0  0
    4.1101    5.7756    3.3281 H   0  0  0  0  0  0  0  0  0  0  0  0
    2.3678   -2.5037   -1.0130 H   0  0  0  0  0  0  0  0  0  0  0  0
    2.3428   -2.0361    0.6741 H   0  0  0  0  0  0  0  0  0  0  0  0
    4.5422    0.1713   -1.5732 H   0  0  0  0  0  0  0  0  0  0  0  0
    6.1297   -0.2908   -0.9037 H   0  0  0  0  0  0  0  0  0  0  0  0
    3.4517    0.9119   -0.2022 H   0  0  0  0  0  0  0  0  0  0  0  0
    3.1222    2.0688   -0.5675 H   0  0  0  0  0  0  0  0  0  0  0  0
    1.0532    0.8775    2.2180 H   0  0  0  0  0  0  0  0  0  0  0  0
    1.2875    2.3018    2.5678 H   0  0  0  0  0  0  0  0  0  0  0  0
    2.4996    0.2921    4.0630 H   0  0  0  0  0  0  0  0  0  0  0  0
    2.3023    2.0118    4.3341 H   0  0  0  0  0  0  0  0  0  0  0  0
    4.7549    1.2011    4.7527 H   0  0  0  0  0  0  0  0  0  0  0  0
    4.7540    2.5065    3.5424 H   0  0  0  0  0  0  0  0  0  0  0  0
    3.5972   -1.1706    3.3006 H   0  0  0  0  0  0  0  0  0  0  0  0
    5.0986   -1.5366    4.0515 H   0  0  0  0  0  0  0  0  0  0  0  0
    2.3802   -3.3448    1.3630 H   0  0  0  0  0  0  0  0  0  0  0  0
    4.5816   -6.0765    1.2120 H   0  0  0  0  0  0  0  0  0  0  0  0
    3.3662   -5.8816   -0.0060 H   0  0  0  0  0  0  0  0  0  0  0  0
    3.2421   -7.1872    1.2396 H   0  0  0  0  0  0  0  0  0  0  0  0
    3.9302   -5.3550    3.7703 H   0  0  0  0  0  0  0  0  0  0  0  0
    2.6127   -6.4800    3.7120 H   0  0  0  0  0  0  0  0  0  0  0  0
    2.3491   -4.7138    4.0340 H   0  0  0  0  0  0  0  0  0  0  0  0
    1.0462   -5.0691    0.5420 H   0  0  0  0  0  0  0  0  0  0  0  0
    0.6267   -4.5899    2.1882 H   0  0  0  0  0  0  0  0  0  0  0  0
    0.8505   -6.3255    1.8040 H   0  0  0  0  0  0  0  0  0  0  0  0
  1  2  1  0  0  0  0
  1 46  1  0  0  0  0
  2  3  1  6  0  0  0
  2  4  1  0  0  0  0
  2 25  1  0  0  0  0
  4  5  1  1  0  0  0
  4  6  1  0  0  0  0
  4 17  1  0  0  0  0
  6  7  1  0  0  0  0
  6 47  1  0  0  0  0
  7  8  2  0  0  0  0
  7  9  1  0  0  0  0
  9 10  2  0  0  0  0
  9 14  1  0  0  0  0
 10 11  1  0  0  0  0
 10 48  1  0  0  0  0
 11 12  2  0  0  0  0
 11 49  1  0  0  0  0
 12 13  1  0  0  0  0
 12 50  1  0  0  0  0
 13 14  2  0  0  0  0
 13 16  1  0  0  0  0
 14 15  1  0  0  0  0
 15 51  1  0  0  0  0
 15 52  1  0  0  0  0
 15 53  1  0  0  0  0
 16 54  1  0  0  0  0
 17 18  1  0  0  0  0
 17 55  1  0  0  0  0
 17 56  1  0  0  0  0
 18 19  1  0  0  0  0
 19 20  2  0  0  0  0
 19 24  1  0  0  0  0
 20 21  1  0  0  0  0
 20 57  1  0  0  0  0
 21 22  2  0  0  0  0
 21 58  1  0  0  0  0
 22 23  1  0  0  0  0
 22 59  1  0  0  0  0
 23 24  2  0  0  0  0
 23 60  1  0  0  0  0
 24 61  1  0  0  0  0
 25 26  1  0  0  0  0
 25 62  1  0  0  0  0
 25 63  1  0  0  0  0
 26 27  1  0  0  0  0
 26 37  1  0  0  0  0
 27 28  1  0  0  0  0
 27 64  1  0  0  0  0
 27 65  1  0  0  0  0
 28 29  1  6  0  0  0
 28 30  1  0  0  0  0
 28 34  1  0  0  0  0
 30 31  1  0  0  0  0
 30 66  1  0  0  0  0
 30 67  1  0  0  0  0
 31 32  1  0  0  0  0
 31 68  1  0  0  0  0
 31 69  1  0  0  0  0
 32 33  1  0  0  0  0
 32 70  1  0  0  0  0
 32 71  1  0  0  0  0
 33 34  1  0  0  0  0
 33 72  1  0  0  0  0
 33 73  1  0  0  0  0
 34 35  1  1  0  0  0
 34 36  1  0  0  0  0
 36 37  1  0  0  0  0
 36 74  1  0  0  0  0
 36 75  1  0  0  0  0
 37 39  1  0  0  0  0
 37 38  1  6  0  0  0
 39 40  2  0  0  0  0
 39 41  1  0  0  0  0
 41 42  1  0  0  0  0
 41 76  1  0  0  0  0
 42 43  1  0  0  0  0
 42 44  1  0  0  0  0
 42 45  1  0  0  0  0
 43 77  1  0  0  0  0
 43 78  1  0  0  0  0
 43 79  1  0  0  0  0
 44 80  1  0  0  0  0
 44 81  1  0  0  0  0
 44 82  1  0  0  0  0
 45 83  1  0  0  0  0
 45 84  1  0  0  0  0
 45 85  1  0  0  0  0
M  END
$$$$
