20A
 OpenBabel04121316043D

 53 56  0  0  0  0  0  0  0  0999 V2000
    1.0729   -0.0369    0.0677 C   0  0  0  0  0  0  0  0  0  0  0  0
    2.6027    0.0251    0.0414 C   0  0  0  0  0  0  0  0  0  0  0  0
    3.1148    1.3532   -0.2590 N   0  0  0  0  0  0  0  0  0  0  0  0
    2.4146    2.4229    0.1880 N   0  0  0  0  0  0  0  0  0  0  0  0
    3.0888    3.4627   -0.2942 C   0  0  0  0  0  0  0  0  0  0  0  0
    4.2500    3.0979   -1.0070 C   0  0  0  0  0  0  0  0  0  0  0  0
    4.2541    1.7086   -0.9561 C   0  0  0  0  0  0  0  0  0  0  0  0
    5.1884    0.9026   -1.4972 N   0  0  0  0  0  0  0  0  0  0  0  0
    6.1824    1.6091   -2.1194 C   0  0  0  0  0  0  0  0  0  0  0  0
    6.3083    3.0048   -2.2493 C   0  0  0  0  0  0  0  0  0  0  0  0
    5.2790    3.8127   -1.6745 C   0  0  0  0  0  0  0  0  0  0  0  0
    5.1728    5.2008   -1.6944 N   0  0  0  0  0  0  0  0  0  0  0  0
    6.2427    6.0186   -2.2229 C   0  0  0  0  0  0  0  0  0  0  0  0
    6.0944    6.1275   -3.7741 C   0  0  0  0  0  0  0  0  0  0  0  0
    5.0160    7.1029   -4.1289 C   0  0  0  0  0  0  0  0  0  0  0  0
    5.3104    8.3633   -3.5324 O   0  0  0  0  0  0  0  0  0  0  0  0
    5.3935    8.2961   -2.1075 C   0  0  0  0  0  0  0  0  0  0  0  0
    6.4772    7.3742   -1.6416 C   0  0  0  0  0  0  0  0  0  0  0  0
    7.5385    3.5564   -2.9476 C   0  0  0  0  0  0  0  0  0  0  0  0
    7.8443    4.7212   -3.2008 O   0  0  0  0  0  0  0  0  0  0  0  0
    8.5300    2.7853   -3.4031 N   0  0  0  0  0  0  0  0  0  0  0  0
    9.5912    3.4984   -4.1220 C   0  0  0  0  0  0  0  0  0  0  0  0
   10.5653    2.5681   -4.7157 C   0  0  0  0  0  0  0  0  0  0  0  0
   11.6314    3.0637   -5.4616 C   0  0  0  0  0  0  0  0  0  0  0  0
   12.3840    2.1614   -6.1964 C   0  0  0  0  0  0  0  0  0  0  0  0
   12.1495    0.7867   -6.0803 C   0  0  0  0  0  0  0  0  0  0  0  0
   11.1867    0.2992   -5.2197 C   0  0  0  0  0  0  0  0  0  0  0  0
   10.3699    1.1909   -4.5884 C   0  0  0  0  0  0  0  0  0  0  0  0
    0.7214   -1.0492    0.2890 H   0  0  0  0  0  0  0  0  0  0  0  0
    0.6523    0.2719   -0.8955 H   0  0  0  0  0  0  0  0  0  0  0  0
    0.6570    0.6257    0.8369 H   0  0  0  0  0  0  0  0  0  0  0  0
    2.9872   -0.6741   -0.7072 H   0  0  0  0  0  0  0  0  0  0  0  0
    2.9988   -0.2566    1.0237 H   0  0  0  0  0  0  0  0  0  0  0  0
    2.7154    4.4580   -0.1017 H   0  0  0  0  0  0  0  0  0  0  0  0
    6.9280    0.9409   -2.5393 H   0  0  0  0  0  0  0  0  0  0  0  0
    4.4230    5.6589   -1.1959 H   0  0  0  0  0  0  0  0  0  0  0  0
    7.1165    5.5703   -1.7477 H   0  0  0  0  0  0  0  0  0  0  0  0
    5.8594    5.1704   -4.2665 H   0  0  0  0  0  0  0  0  0  0  0  0
    7.0295    6.5040   -4.2204 H   0  0  0  0  0  0  0  0  0  0  0  0
    4.0425    6.7261   -3.8012 H   0  0  0  0  0  0  0  0  0  0  0  0
    4.9883    7.2179   -5.2186 H   0  0  0  0  0  0  0  0  0  0  0  0
    4.4350    7.9599   -1.7052 H   0  0  0  0  0  0  0  0  0  0  0  0
    5.6152    9.2938   -1.7326 H   0  0  0  0  0  0  0  0  0  0  0  0
    6.5582    7.3087   -0.5515 H   0  0  0  0  0  0  0  0  0  0  0  0
    7.4612    7.7069   -2.0161 H   0  0  0  0  0  0  0  0  0  0  0  0
    8.3765    1.8054   -3.4609 H   0  0  0  0  0  0  0  0  0  0  0  0
   10.0828    4.2045   -3.4312 H   0  0  0  0  0  0  0  0  0  0  0  0
    9.1432    4.1096   -4.9304 H   0  0  0  0  0  0  0  0  0  0  0  0
   11.8458    4.1322   -5.5032 H   0  0  0  0  0  0  0  0  0  0  0  0
   13.1514    2.5240   -6.8701 H   0  0  0  0  0  0  0  0  0  0  0  0
   12.7201    0.0780   -6.6623 H   0  0  0  0  0  0  0  0  0  0  0  0
   11.0151   -0.7538   -5.0399 H   0  0  0  0  0  0  0  0  0  0  0  0
    9.5716    0.7467   -4.0161 H   0  0  0  0  0  0  0  0  0  0  0  0
  1  2  1  0  0  0  0
  1 29  1  0  0  0  0
  1 30  1  0  0  0  0
  1 31  1  0  0  0  0
  2  3  1  0  0  0  0
  2 32  1  0  0  0  0
  2 33  1  0  0  0  0
  3  4  1  0  0  0  0
  3  7  1  0  0  0  0
  4  5  2  0  0  0  0
  5  6  1  0  0  0  0
  5 34  1  0  0  0  0
  6  7  2  0  0  0  0
  6 11  1  0  0  0  0
  7  8  1  0  0  0  0
  8  9  2  0  0  0  0
  9 10  1  0  0  0  0
  9 35  1  0  0  0  0
 10 11  2  0  0  0  0
 10 19  1  0  0  0  0
 11 12  1  0  0  0  0
 12 13  1  0  0  0  0
 12 36  1  0  0  0  0
 13 14  1  0  0  0  0
 13 18  1  0  0  0  0
 13 37  1  0  0  0  0
 14 15  1  0  0  0  0
 14 38  1  0  0  0  0
 14 39  1  0  0  0  0
 15 16  1  0  0  0  0
 15 40  1  0  0  0  0
 15 41  1  0  0  0  0
 16 17  1  0  0  0  0
 17 18  1  0  0  0  0
 17 42  1  0  0  0  0
 17 43  1  0  0  0  0
 18 44  1  0  0  0  0
 18 45  1  0  0  0  0
 19 20  2  0  0  0  0
 19 21  1  0  0  0  0
 21 22  1  0  0  0  0
 21 46  1  0  0  0  0
 22 23  1  0  0  0  0
 22 47  1  0  0  0  0
 22 48  1  0  0  0  0
 23 24  2  0  0  0  0
 23 28  1  0  0  0  0
 24 25  1  0  0  0  0
 24 49  1  0  0  0  0
 25 26  2  0  0  0  0
 25 50  1  0  0  0  0
 26 27  1  0  0  0  0
 26 51  1  0  0  0  0
 27 28  2  0  0  0  0
 27 52  1  0  0  0  0
 28 53  1  0  0  0  0
M  END
$$$$
