210
 OpenBabel04121316043D

 24 23  0  0  0  0  0  0  0  0999 V2000
    0.7511    0.1724    0.2592 N   0  0  0  0  0  0  0  0  0  0  0  0
    2.2050   -0.0065    0.2218 C   0  0  0  0  0  0  0  0  0  0  0  0
    2.9531    1.3712    0.4191 C   0  0  0  0  0  0  0  0  0  0  0  0
    4.5750    1.3921    0.4778 C   0  0  0  0  0  0  0  0  0  0  0  0
    5.1850    0.1298    1.6539 P   0  0  0  0  0  0  0  0  0  0  0  0
    5.8977    1.2073    2.4960 O   0  0  0  0  0  0  0  0  0  0  0  0
    3.7475   -0.0167    2.4386 O   0  0  0  0  0  0  0  0  0  0  0  0
    5.7617   -1.0636    2.7658 O   0  0  0  0  0  0  0  0  0  0  0  0
    5.1850    1.0047   -1.2035 P   0  0  0  0  0  0  0  0  0  0  0  0
    6.1485   -0.0714   -0.7106 O   0  0  0  0  0  0  0  0  0  0  0  0
    3.8456    0.3022   -1.7668 O   0  0  0  0  0  0  0  0  0  0  0  0
    5.7617    0.6385   -2.7929 O   0  0  0  0  0  0  0  0  0  0  0  0
    4.9635    2.7423    0.8274 O   0  0  0  0  0  0  0  0  0  0  0  0
    0.3293   -0.7419    0.0720 H   0  0  0  0  0  0  0  0  0  0  0  0
    0.4660    0.7591   -0.5220 H   0  0  0  0  0  0  0  0  0  0  0  0
    2.3818   -0.5171   -0.7207 H   0  0  0  0  0  0  0  0  0  0  0  0
    2.4588   -0.7711    0.9541 H   0  0  0  0  0  0  0  0  0  0  0  0
    2.5771    1.8349    1.3400 H   0  0  0  0  0  0  0  0  0  0  0  0
    2.6408    2.0558   -0.3814 H   0  0  0  0  0  0  0  0  0  0  0  0
    3.5080    0.6632    3.0520 H   0  0  0  0  0  0  0  0  0  0  0  0
    6.5368   -0.6630    3.2062 H   0  0  0  0  0  0  0  0  0  0  0  0
    3.4966    0.7509   -2.5611 H   0  0  0  0  0  0  0  0  0  0  0  0
    6.6557    0.2556   -2.6650 H   0  0  0  0  0  0  0  0  0  0  0  0
    5.3174    2.6533    1.7442 H   0  0  0  0  0  0  0  0  0  0  0  0
  1  2  1  0  0  0  0
  1 14  1  0  0  0  0
  1 15  1  0  0  0  0
  2  3  1  0  0  0  0
  2 16  1  0  0  0  0
  2 17  1  0  0  0  0
  3  4  1  0  0  0  0
  3 18  1  0  0  0  0
  3 19  1  0  0  0  0
  4  5  1  0  0  0  0
  4  9  1  0  0  0  0
  4 13  1  0  0  0  0
  5  6  2  0  0  0  0
  5  7  1  0  0  0  0
  5  8  1  0  0  0  0
  7 20  1  0  0  0  0
  8 21  1  0  0  0  0
  9 10  2  0  0  0  0
  9 11  1  0  0  0  0
  9 12  1  0  0  0  0
 11 22  1  0  0  0  0
 12 23  1  0  0  0  0
 13 24  1  0  0  0  0
M  END
$$$$
