21U
 OpenBabel04121316043D

 50 51  0  0  1  0  0  0  0  0999 V2000
    3.1224   -0.3561   -1.4771 C   0  0  0  0  0  0  0  0  0  0  0  0
    2.6726    0.8097   -2.3366 C   0  0  0  0  0  0  0  0  0  0  0  0
    3.0455    2.1552   -1.7270 C   0  0  0  0  0  0  0  0  0  0  0  0
    2.4340    2.3667   -0.3209 C   0  0  2  0  0  0  0  0  0  0  0  0
    2.7917    1.6183    0.3899 H   0  0  0  0  0  0  0  0  0  0  0  0
    0.8515    2.3769   -0.3169 C   0  0  0  0  0  0  0  0  0  0  0  0
    0.2255    3.4123   -0.0752 O   0  0  0  0  0  0  0  0  0  0  0  0
    0.1667    1.2267   -0.6850 N   0  0  0  0  0  0  0  0  0  0  0  0
    0.1150   -0.0398    0.0300 C   0  0  0  0  0  0  0  0  0  0  0  0
   -0.0436   -1.0980   -1.0529 C   0  0  0  0  0  0  0  0  0  0  0  0
   -0.6842   -0.3780   -2.2439 C   0  0  0  0  0  0  0  0  0  0  0  0
   -0.5552    1.1404   -1.9699 C   0  0  1  0  0  0  0  0  0  0  0  0
   -0.0164    1.6814   -2.7574 H   0  0  0  0  0  0  0  0  0  0  0  0
   -1.9356    1.7631   -1.9735 C   0  0  0  0  0  0  0  0  0  0  0  0
   -2.4289    2.2540   -2.9752 O   0  0  0  0  0  0  0  0  0  0  0  0
   -2.6409    1.4961   -0.8311 N   0  0  0  0  0  0  0  0  0  0  0  0
   -3.9860    1.9378   -0.7245 C   0  0  0  0  0  0  0  0  0  0  0  0
   -4.5287    1.5727    0.6184 C   0  0  0  0  0  0  0  0  0  0  0  0
   -4.8034    0.2328    0.9270 C   0  0  0  0  0  0  0  0  0  0  0  0
   -5.3775   -0.0976    2.1500 C   0  0  0  0  0  0  0  0  0  0  0  0
   -5.7636    0.9170    3.0254 C   0  0  0  0  0  0  0  0  0  0  0  0
   -5.4535    2.2445    2.7344 C   0  0  0  0  0  0  0  0  0  0  0  0
   -4.7684    2.5677    1.5700 C   0  0  0  0  0  0  0  0  0  0  0  0
   -5.9714    3.5000    3.7884 Cl  0  0  0  0  0  0  0  0  0  0  0  0
    2.9672    3.6704    0.1594 N   0  0  0  0  0  0  0  0  0  0  0  0
    3.0388    0.6292   -3.7920 C   0  0  0  0  0  0  0  0  0  0  0  0
    2.6965   -0.3017   -0.4729 H   0  0  0  0  0  0  0  0  0  0  0  0
    4.2027   -0.3838   -1.3665 H   0  0  0  0  0  0  0  0  0  0  0  0
    2.7949   -1.2985   -1.9200 H   0  0  0  0  0  0  0  0  0  0  0  0
    1.6105    0.7726   -2.3942 H   0  0  0  0  0  0  0  0  0  0  0  0
    2.7216    2.9670   -2.3947 H   0  0  0  0  0  0  0  0  0  0  0  0
    4.1417    2.2124   -1.6786 H   0  0  0  0  0  0  0  0  0  0  0  0
   -0.7939   -0.0429    0.6395 H   0  0  0  0  0  0  0  0  0  0  0  0
    0.9490   -0.1806    0.7193 H   0  0  0  0  0  0  0  0  0  0  0  0
   -0.6191   -1.9677   -0.7222 H   0  0  0  0  0  0  0  0  0  0  0  0
    0.9148   -1.5106   -1.3564 H   0  0  0  0  0  0  0  0  0  0  0  0
   -1.7223   -0.7056   -2.3610 H   0  0  0  0  0  0  0  0  0  0  0  0
   -0.1647   -0.6528   -3.1717 H   0  0  0  0  0  0  0  0  0  0  0  0
   -2.1311    1.2525    0.0043 H   0  0  0  0  0  0  0  0  0  0  0  0
   -4.5655    1.4490   -1.5158 H   0  0  0  0  0  0  0  0  0  0  0  0
   -4.0200    3.0168   -0.9085 H   0  0  0  0  0  0  0  0  0  0  0  0
   -4.5828   -0.5505    0.2033 H   0  0  0  0  0  0  0  0  0  0  0  0
   -5.5547   -1.1389    2.4041 H   0  0  0  0  0  0  0  0  0  0  0  0
   -6.3101    0.6683    3.9297 H   0  0  0  0  0  0  0  0  0  0  0  0
   -4.4555    3.5926    1.3817 H   0  0  0  0  0  0  0  0  0  0  0  0
    2.5702    3.8701    1.0776 H   0  0  0  0  0  0  0  0  0  0  0  0
    2.5937    4.4109   -0.4399 H   0  0  0  0  0  0  0  0  0  0  0  0
    4.1145    0.5247   -3.9134 H   0  0  0  0  0  0  0  0  0  0  0  0
    2.6696    1.4679   -4.3922 H   0  0  0  0  0  0  0  0  0  0  0  0
    2.5423   -0.2742   -4.1715 H   0  0  0  0  0  0  0  0  0  0  0  0
  1  2  1  0  0  0  0
  1 27  1  0  0  0  0
  1 28  1  0  0  0  0
  1 29  1  0  0  0  0
  2  3  1  0  0  0  0
  2 26  1  0  0  0  0
  2 30  1  0  0  0  0
  3 31  1  0  0  0  0
  3 32  1  0  0  0  0
  4  6  1  0  0  0  0
  4 25  1  0  0  0  0
  4  5  1  1  0  0  0
  4  3  1  0  0  0  0
  6  7  2  0  0  0  0
  6  8  1  0  0  0  0
  8  9  1  0  0  0  0
  8 12  1  0  0  0  0
  9 10  1  0  0  0  0
  9 33  1  0  0  0  0
  9 34  1  0  0  0  0
 10 11  1  0  0  0  0
 10 35  1  0  0  0  0
 10 36  1  0  0  0  0
 11 12  1  0  0  0  0
 11 37  1  0  0  0  0
 11 38  1  0  0  0  0
 12 14  1  0  0  0  0
 12 13  1  6  0  0  0
 14 15  2  0  0  0  0
 14 16  1  0  0  0  0
 16 17  1  0  0  0  0
 16 39  1  0  0  0  0
 17 18  1  0  0  0  0
 17 40  1  0  0  0  0
 17 41  1  0  0  0  0
 18 19  2  0  0  0  0
 18 23  1  0  0  0  0
 19 20  1  0  0  0  0
 19 42  1  0  0  0  0
 20 21  2  0  0  0  0
 20 43  1  0  0  0  0
 21 22  1  0  0  0  0
 21 44  1  0  0  0  0
 22 23  2  0  0  0  0
 22 24  1  0  0  0  0
 23 45  1  0  0  0  0
 25 46  1  0  0  0  0
 25 47  1  0  0  0  0
 26 48  1  0  0  0  0
 26 49  1  0  0  0  0
 26 50  1  0  0  0  0
M  END
$$$$
