22A
 OpenBabel04121316043D

 31 32  0  0  0  0  0  0  0  0999 V2000
    1.0918   -0.2759   -0.1431 O   0  0  0  0  0  0  0  0  0  0  0  0
    2.4942   -0.0256   -0.0369 C   0  0  0  0  0  0  0  0  0  0  0  0
    2.9678    1.0655   -1.0233 C   0  0  0  0  0  0  0  0  0  0  0  0
    2.4822    2.4020   -0.6427 N   0  0  0  0  0  0  0  0  0  0  0  0
    1.0297    2.4917   -0.7053 C   0  0  0  0  0  0  0  0  0  0  0  0
    0.6025    3.8636   -0.3542 C   0  0  0  0  0  0  0  0  0  0  0  0
   -0.4713    4.1776    0.4688 C   0  0  0  0  0  0  0  0  0  0  0  0
   -0.5420    5.5412    0.5923 N   0  0  0  0  0  0  0  0  0  0  0  0
   -1.2185    6.0497    1.1470 H   0  0  0  0  0  0  0  0  0  0  0  0
    0.4604    6.1024   -0.1470 C   0  0  0  0  0  0  0  0  0  0  0  0
    1.1574    5.0918   -0.7465 C   0  0  0  0  0  0  0  0  0  0  0  0
    2.2610    5.3048   -1.5786 N   0  0  0  0  0  0  0  0  0  0  0  0
    2.5635    6.5583   -1.7022 C   0  0  0  0  0  0  0  0  0  0  0  0
    1.9025    7.6230   -1.1261 N   0  0  0  0  0  0  0  0  0  0  0  0
    2.2065    8.5685   -1.2922 H   0  0  0  0  0  0  0  0  0  0  0  0
    0.8034    7.4677   -0.3167 C   0  0  0  0  0  0  0  0  0  0  0  0
    0.2041    8.4154    0.1867 O   0  0  0  0  0  0  0  0  0  0  0  0
    4.5112    1.0951   -1.0428 C   0  0  0  0  0  0  0  0  0  0  0  0
    5.0208    2.0323   -1.9930 O   0  0  0  0  0  0  0  0  0  0  0  0
    0.8007   -0.6394    0.7109 H   0  0  0  0  0  0  0  0  0  0  0  0
    2.9803   -0.9764   -0.2617 H   0  0  0  0  0  0  0  0  0  0  0  0
    2.7384    0.2625    0.9933 H   0  0  0  0  0  0  0  0  0  0  0  0
    2.6048    0.8442   -2.0351 H   0  0  0  0  0  0  0  0  0  0  0  0
    2.8742    3.1081   -1.2778 H   0  0  0  0  0  0  0  0  0  0  0  0
    0.5796    1.8552    0.0582 H   0  0  0  0  0  0  0  0  0  0  0  0
    0.6392    2.2100   -1.6890 H   0  0  0  0  0  0  0  0  0  0  0  0
   -1.1700    3.5285    0.9817 H   0  0  0  0  0  0  0  0  0  0  0  0
    3.4218    6.8644   -2.3215 H   0  0  0  0  0  0  0  0  0  0  0  0
    4.9073    0.1097   -1.3079 H   0  0  0  0  0  0  0  0  0  0  0  0
    4.9114    1.3652   -0.0589 H   0  0  0  0  0  0  0  0  0  0  0  0
    4.6148    1.8309   -2.8521 H   0  0  0  0  0  0  0  0  0  0  0  0
  1  2  1  0  0  0  0
  1 20  1  0  0  0  0
  2  3  1  0  0  0  0
  2 21  1  0  0  0  0
  2 22  1  0  0  0  0
  3  4  1  0  0  0  0
  3 18  1  0  0  0  0
  3 23  1  0  0  0  0
  4  5  1  0  0  0  0
  4 24  1  0  0  0  0
  5  6  1  0  0  0  0
  5 25  1  0  0  0  0
  5 26  1  0  0  0  0
  6  7  2  0  0  0  0
  6 11  1  0  0  0  0
  7  8  1  0  0  0  0
  7 27  1  0  0  0  0
  8  9  1  0  0  0  0
  8 10  1  0  0  0  0
 10 11  2  0  0  0  0
 10 16  1  0  0  0  0
 11 12  1  0  0  0  0
 12 13  2  0  0  0  0
 13 14  1  0  0  0  0
 13 28  1  0  0  0  0
 14 15  1  0  0  0  0
 14 16  1  0  0  0  0
 16 17  2  0  0  0  0
 18 19  1  0  0  0  0
 18 29  1  0  0  0  0
 18 30  1  0  0  0  0
 19 31  1  0  0  0  0
M  END
$$$$
