235
 OpenBabel04121316043D

 57 58  0  0  1  0  0  0  0  0999 V2000
    1.8604   -7.9042    9.4878 N   0  0  0  0  0  0  0  0  0  0  0  0
    2.1878   -7.3430    8.2039 C   0  0  0  0  0  0  0  0  0  0  0  0
    1.6925   -5.9239    8.2312 C   0  0  0  0  0  0  0  0  0  0  0  0
    0.3692   -5.5994    8.0103 C   0  0  0  0  0  0  0  0  0  0  0  0
   -0.0203   -4.2738    8.0969 C   0  0  0  0  0  0  0  0  0  0  0  0
    0.9385   -3.2709    8.1399 C   0  0  0  0  0  0  0  0  0  0  0  0
    2.2887   -3.5803    8.2645 C   0  0  0  0  0  0  0  0  0  0  0  0
    2.5406   -4.8962    8.6245 C   0  0  0  0  0  0  0  0  0  0  0  0
    3.5074   -2.6974    7.9046 C   0  0  1  0  0  0  0  0  0  0  0  0
    3.5822   -2.0851    7.0447 H   0  0  0  0  0  0  0  0  0  0  0  0
    3.3713   -0.9502    8.5990 C   0  0  0  0  0  0  0  0  0  0  0  0
    4.1920   -0.2866    9.2368 O   0  0  0  0  0  0  0  0  0  0  0  0
    2.2564   -0.2867    8.2484 O   0  0  0  0  0  0  0  0  0  0  0  0
    5.0070   -3.8603    7.6092 C   0  0  0  0  0  0  0  0  0  0  0  0
    5.2052   -4.6206    6.0264 P   0  0  2  0  0  0  0  0  0  0  0  0
    6.1079   -3.7986    5.0808 O   0  0  0  0  0  0  0  0  0  0  0  0
    5.1193   -2.3586    6.1385 C   0  0  2  0  0  0  0  0  0  0  0  0
    5.9317   -1.9075    5.5117 H   0  0  0  0  0  0  0  0  0  0  0  0
    5.6290   -1.8167    7.9445 C   0  0  0  0  0  0  0  0  0  0  0  0
    4.8751   -2.5448    9.5806 C   0  0  0  0  0  0  0  0  0  0  0  0
    7.0692   -2.2293    8.4164 C   0  0  0  0  0  0  0  0  0  0  0  0
    3.8294   -2.1315    4.9210 N   0  0  0  0  0  0  0  0  0  0  0  0
    2.3344   -2.7618    5.3445 S   0  0  0  0  0  0  0  0  0  0  0  0
    2.5192   -4.2294    5.4248 O   0  0  0  0  0  0  0  0  0  0  0  0
    1.9675   -1.8581    6.3760 O   0  0  0  0  0  0  0  0  0  0  0  0
    0.8608   -2.4672    4.5836 C   0  0  0  0  0  0  0  0  0  0  0  0
   -0.0892   -3.4777    4.5863 C   0  0  0  0  0  0  0  0  0  0  0  0
   -1.2861   -3.1433    4.0240 C   0  0  0  0  0  0  0  0  0  0  0  0
   -1.5921   -1.7863    3.8278 C   0  0  0  0  0  0  0  0  0  0  0  0
   -0.7967   -0.7688    4.3298 C   0  0  0  0  0  0  0  0  0  0  0  0
    0.4715   -1.1148    4.6549 C   0  0  0  0  0  0  0  0  0  0  0  0
    4.1939   -5.5414    7.0858 O   0  0  0  0  0  0  0  0  0  0  0  0
    2.0098   -8.9022    9.4958 H   0  0  0  0  0  0  0  0  0  0  0  0
    0.8755   -7.7102    9.6484 H   0  0  0  0  0  0  0  0  0  0  0  0
    1.7385   -7.8858    7.3589 H   0  0  0  0  0  0  0  0  0  0  0  0
    3.2708   -7.4491    8.0532 H   0  0  0  0  0  0  0  0  0  0  0  0
   -0.3580   -6.3811    7.8430 H   0  0  0  0  0  0  0  0  0  0  0  0
   -1.0596   -3.9826    8.0480 H   0  0  0  0  0  0  0  0  0  0  0  0
    0.5567   -2.2801    7.9217 H   0  0  0  0  0  0  0  0  0  0  0  0
    3.5122   -5.2024    8.9996 H   0  0  0  0  0  0  0  0  0  0  0  0
    1.8303   -0.8160    7.5512 H   0  0  0  0  0  0  0  0  0  0  0  0
    5.3576   -4.5332    8.3955 H   0  0  0  0  0  0  0  0  0  0  0  0
    6.0256   -3.5764    7.3131 H   0  0  0  0  0  0  0  0  0  0  0  0
    5.6288   -0.7320    7.8009 H   0  0  0  0  0  0  0  0  0  0  0  0
    4.9279   -3.6298    9.7259 H   0  0  0  0  0  0  0  0  0  0  0  0
    3.7695   -2.5479    9.7465 H   0  0  0  0  0  0  0  0  0  0  0  0
    5.0529   -2.0171   10.5009 H   0  0  0  0  0  0  0  0  0  0  0  0
    7.2485   -3.3172    8.5019 H   0  0  0  0  0  0  0  0  0  0  0  0
    7.1272   -1.9331    9.4667 H   0  0  0  0  0  0  0  0  0  0  0  0
    7.8590   -1.8256    7.8027 H   0  0  0  0  0  0  0  0  0  0  0  0
    4.1637   -2.7213    4.1316 H   0  0  0  0  0  0  0  0  0  0  0  0
    0.0963   -4.4737    5.0056 H   0  0  0  0  0  0  0  0  0  0  0  0
   -1.9442   -3.9398    3.7036 H   0  0  0  0  0  0  0  0  0  0  0  0
   -2.4600   -1.5114    3.2543 H   0  0  0  0  0  0  0  0  0  0  0  0
   -1.0689    0.2769    4.3948 H   0  0  0  0  0  0  0  0  0  0  0  0
    1.1317   -0.3553    5.0898 H   0  0  0  0  0  0  0  0  0  0  0  0
    3.8529   -6.2963    6.5669 H   0  0  0  0  0  0  0  0  0  0  0  0
  1  2  1  0  0  0  0
  1 33  1  0  0  0  0
  1 34  1  0  0  0  0
  2  3  1  0  0  0  0
  2 35  1  0  0  0  0
  2 36  1  0  0  0  0
  3  4  2  0  0  0  0
  3  8  1  0  0  0  0
  4  5  1  0  0  0  0
  4 37  1  0  0  0  0
  5  6  2  0  0  0  0
  5 38  1  0  0  0  0
  6  7  1  0  0  0  0
  6 39  1  0  0  0  0
  7  8  2  0  0  0  0
  7  9  1  0  0  0  0
  8 40  1  0  0  0  0
  9 10  1  6  0  0  0
  9 11  1  0  0  0  0
  9 14  1  0  0  0  0
 11 12  2  0  0  0  0
 11 13  1  0  0  0  0
 13 41  1  0  0  0  0
 14 42  1  0  0  0  0
 14 43  1  0  0  0  0
 15 32  1  6  0  0  0
 15 16  2  0  0  0  0
 15 14  1  0  0  0  0
 17 19  1  0  0  0  0
 17 22  1  0  0  0  0
 17 18  1  6  0  0  0
 17 15  1  0  0  0  0
 19 20  1  0  0  0  0
 19 21  1  0  0  0  0
 19 44  1  0  0  0  0
 20 45  1  0  0  0  0
 20 46  1  0  0  0  0
 20 47  1  0  0  0  0
 21 48  1  0  0  0  0
 21 49  1  0  0  0  0
 21 50  1  0  0  0  0
 22 23  1  0  0  0  0
 22 51  1  0  0  0  0
 23 24  2  0  0  0  0
 23 25  2  0  0  0  0
 23 26  1  0  0  0  0
 26 27  2  0  0  0  0
 26 31  1  0  0  0  0
 27 28  1  0  0  0  0
 27 52  1  0  0  0  0
 28 29  2  0  0  0  0
 28 53  1  0  0  0  0
 29 30  1  0  0  0  0
 29 54  1  0  0  0  0
 30 31  2  0  0  0  0
 30 55  1  0  0  0  0
 31 56  1  0  0  0  0
 32 57  1  0  0  0  0
M  END
$$$$
