23I
 OpenBabel04121316043D

104105  0  0  1  0  0  0  0  0999 V2000
    3.6740    3.7504    2.9323 C   0  0  0  0  0  0  0  0  0  0  0  0
    4.9828    4.2450    3.7499 C   0  0  0  0  0  0  0  0  0  0  0  0
    5.7532    5.7377    3.8060 C   0  0  0  0  0  0  0  0  0  0  0  0
    6.8520    6.1452    2.5381 C   0  0  1  0  0  0  0  0  0  0  0  0
    7.5819    5.3357    2.5286 H   0  0  0  0  0  0  0  0  0  0  0  0
    6.0461    6.1509    1.1981 C   0  0  2  0  0  0  0  0  0  0  0  0
    6.6392    5.2616    0.9308 H   0  0  0  0  0  0  0  0  0  0  0  0
    6.0233    6.3281   -0.7199 C   0  0  0  0  0  0  0  0  0  0  0  0
    4.9299    6.0174   -1.9445 C   0  0  2  0  0  0  0  0  0  0  0  0
    3.8478    5.8555   -1.8177 H   0  0  0  0  0  0  0  0  0  0  0  0
    5.3134    4.6951   -2.5148 C   0  0  0  0  0  0  0  0  0  0  0  0
    5.8311    4.5657   -3.5638 O   0  0  0  0  0  0  0  0  0  0  0  0
    5.0758    3.6452   -1.6517 N   0  0  0  0  0  0  0  0  0  0  0  0
    4.3098    3.5833   -0.4344 C   0  0  2  0  0  0  0  0  0  0  0  0
    3.2425    3.3434   -0.4404 H   0  0  0  0  0  0  0  0  0  0  0  0
    4.3537    4.8601    0.3176 C   0  0  0  0  0  0  0  0  0  0  0  0
    5.0967    4.4336    1.2117 O   0  0  0  0  0  0  0  0  0  0  0  0
    3.8419    6.4393    0.1439 N   0  0  0  0  0  0  0  0  0  0  0  0
    4.5624    8.0080    0.7676 C   0  0  0  0  0  0  0  0  0  0  0  0
    6.0766    8.4106    0.6360 C   0  0  0  0  0  0  0  0  0  0  0  0
    4.1835    9.2696    0.0592 C   0  0  0  0  0  0  0  0  0  0  0  0
    5.2387    2.3747    0.5815 C   0  0  0  0  0  0  0  0  0  0  0  0
    4.6646    1.0611    0.2054 C   0  0  0  0  0  0  0  0  0  0  0  0
    6.8023    2.4940    0.7430 C   0  0  0  0  0  0  0  0  0  0  0  0
    4.8945    7.2454   -2.8803 C   0  0  0  0  0  0  0  0  0  0  0  0
    4.6533    6.2358    2.0591 O   0  0  0  0  0  0  0  0  0  0  0  0
    7.5980    7.4112    2.7246 N   0  0  0  0  0  0  0  0  0  0  0  0
    8.5334    7.8046    1.7038 C   0  0  0  0  0  0  0  0  0  0  0  0
    9.0748    7.0026    0.9446 O   0  0  0  0  0  0  0  0  0  0  0  0
    8.5479    9.2613    1.2517 C   0  0  0  0  0  0  0  0  0  0  0  0
    8.7930    9.5643   -0.1074 C   0  0  0  0  0  0  0  0  0  0  0  0
    8.7936   10.8807   -0.4944 C   0  0  0  0  0  0  0  0  0  0  0  0
    8.3200   11.8175    0.3932 C   0  0  0  0  0  0  0  0  0  0  0  0
    7.9015   11.5840    1.6763 C   0  0  0  0  0  0  0  0  0  0  0  0
    7.9835   10.2627    2.0681 C   0  0  0  0  0  0  0  0  0  0  0  0
    7.3699   12.6240    2.5181 N   0  0  0  0  0  0  0  0  0  0  0  0
    7.7190   14.2918    2.3755 S   0  0  0  0  0  0  0  0  0  0  0  0
    6.4355   14.9600    2.3759 O   0  0  0  0  0  0  0  0  0  0  0  0
    8.7180   14.6142    3.3760 O   0  0  0  0  0  0  0  0  0  0  0  0
    8.4754   14.6752    0.7954 C   0  0  0  0  0  0  0  0  0  0  0  0
    6.8069   12.2629    3.8564 C   0  0  0  0  0  0  0  0  0  0  0  0
    9.4604   11.3152   -1.7366 C   0  0  0  0  0  0  0  0  0  0  0  0
    9.8697   10.4475   -2.4976 O   0  0  0  0  0  0  0  0  0  0  0  0
    9.5665   12.6798   -1.9875 N   0  0  0  0  0  0  0  0  0  0  0  0
   10.0462   13.1706   -3.2577 C   0  0  1  0  0  0  0  0  0  0  0  0
   11.0120   12.6759   -3.4210 H   0  0  0  0  0  0  0  0  0  0  0  0
    9.0903   12.8145   -4.3877 C   0  0  0  0  0  0  0  0  0  0  0  0
    8.1132   11.8050   -4.2735 C   0  0  0  0  0  0  0  0  0  0  0  0
    7.5037   11.2449   -5.3808 C   0  0  0  0  0  0  0  0  0  0  0  0
    7.6597   11.8638   -6.6031 C   0  0  0  0  0  0  0  0  0  0  0  0
    8.4440   13.0099   -6.7045 C   0  0  0  0  0  0  0  0  0  0  0  0
    9.2290   13.4228   -5.6331 C   0  0  0  0  0  0  0  0  0  0  0  0
   10.2751   14.6877   -3.1598 C   0  0  0  0  0  0  0  0  0  0  0  0
    4.3075    4.0369    5.0841 C   0  0  0  0  0  0  0  0  0  0  0  0
    3.6935    3.5192    1.8976 H   0  0  0  0  0  0  0  0  0  0  0  0
    2.8307    4.4402    2.9136 H   0  0  0  0  0  0  0  0  0  0  0  0
    3.3957    2.7172    3.1958 H   0  0  0  0  0  0  0  0  0  0  0  0
    5.8074    3.5358    3.6007 H   0  0  0  0  0  0  0  0  0  0  0  0
    6.2850    5.8795    4.7414 H   0  0  0  0  0  0  0  0  0  0  0  0
    4.9581    6.5101    3.9276 H   0  0  0  0  0  0  0  0  0  0  0  0
    7.0459    6.2359   -1.0788 H   0  0  0  0  0  0  0  0  0  0  0  0
    5.8089    7.3483   -0.9311 H   0  0  0  0  0  0  0  0  0  0  0  0
    5.5812    2.8160   -1.9101 H   0  0  0  0  0  0  0  0  0  0  0  0
    3.1814    6.7168   -0.5601 H   0  0  0  0  0  0  0  0  0  0  0  0
    4.3441    8.1115    1.8526 H   0  0  0  0  0  0  0  0  0  0  0  0
    6.4309    8.8736   -0.2967 H   0  0  0  0  0  0  0  0  0  0  0  0
    6.8608    7.6851    0.5904 H   0  0  0  0  0  0  0  0  0  0  0  0
    6.2392    9.0459    1.4761 H   0  0  0  0  0  0  0  0  0  0  0  0
    4.7069    9.3244   -0.9008 H   0  0  0  0  0  0  0  0  0  0  0  0
    4.6180   10.1270    0.6206 H   0  0  0  0  0  0  0  0  0  0  0  0
    3.1312    9.3331   -0.0629 H   0  0  0  0  0  0  0  0  0  0  0  0
    5.0137    2.3590    1.6595 H   0  0  0  0  0  0  0  0  0  0  0  0
    4.9268    0.8827   -0.8283 H   0  0  0  0  0  0  0  0  0  0  0  0
    3.5800    1.1681    0.3314 H   0  0  0  0  0  0  0  0  0  0  0  0
    5.0119    0.2775    0.8811 H   0  0  0  0  0  0  0  0  0  0  0  0
    7.3232    2.5176   -0.2079 H   0  0  0  0  0  0  0  0  0  0  0  0
    7.1933    1.6852    1.3828 H   0  0  0  0  0  0  0  0  0  0  0  0
    7.1416    3.3753    1.3123 H   0  0  0  0  0  0  0  0  0  0  0  0
    4.2805    7.0870   -3.7649 H   0  0  0  0  0  0  0  0  0  0  0  0
    5.9106    7.5424   -3.1388 H   0  0  0  0  0  0  0  0  0  0  0  0
    4.4298    8.1112   -2.3838 H   0  0  0  0  0  0  0  0  0  0  0  0
    3.7928    6.1237    1.5857 H   0  0  0  0  0  0  0  0  0  0  0  0
    6.9656    8.1016    3.0932 H   0  0  0  0  0  0  0  0  0  0  0  0
    8.8923    8.8113   -0.8938 H   0  0  0  0  0  0  0  0  0  0  0  0
    8.3618   12.7804    0.0096 H   0  0  0  0  0  0  0  0  0  0  0  0
    7.4593    9.9384    2.9510 H   0  0  0  0  0  0  0  0  0  0  0  0
    7.7563   14.4270    0.0042 H   0  0  0  0  0  0  0  0  0  0  0  0
    9.4471   14.1651    0.7430 H   0  0  0  0  0  0  0  0  0  0  0  0
    8.6790   15.7335    0.6692 H   0  0  0  0  0  0  0  0  0  0  0  0
    6.5897   11.2017    3.9861 H   0  0  0  0  0  0  0  0  0  0  0  0
    5.8381   12.7484    3.9881 H   0  0  0  0  0  0  0  0  0  0  0  0
    7.4921   12.5248    4.6686 H   0  0  0  0  0  0  0  0  0  0  0  0
    9.2463   13.4065   -1.3781 H   0  0  0  0  0  0  0  0  0  0  0  0
    7.8259   11.3620   -3.3298 H   0  0  0  0  0  0  0  0  0  0  0  0
    6.9162   10.3392   -5.2619 H   0  0  0  0  0  0  0  0  0  0  0  0
    7.1556   11.4581   -7.4705 H   0  0  0  0  0  0  0  0  0  0  0  0
    8.4756   13.5696   -7.6308 H   0  0  0  0  0  0  0  0  0  0  0  0
    9.9471   14.2208   -5.7923 H   0  0  0  0  0  0  0  0  0  0  0  0
   10.9051   14.9520   -2.3037 H   0  0  0  0  0  0  0  0  0  0  0  0
    9.3215   15.2189   -3.0487 H   0  0  0  0  0  0  0  0  0  0  0  0
   10.7739   15.0785   -4.0517 H   0  0  0  0  0  0  0  0  0  0  0  0
    3.3834    4.6347    5.0864 H   0  0  0  0  0  0  0  0  0  0  0  0
    4.9353    4.3124    5.9163 H   0  0  0  0  0  0  0  0  0  0  0  0
    4.0234    2.9788    5.1610 H   0  0  0  0  0  0  0  0  0  0  0  0
  1  2  1  0  0  0  0
  1 55  1  0  0  0  0
  1 56  1  0  0  0  0
  1 57  1  0  0  0  0
  2  3  1  0  0  0  0
  2 54  1  0  0  0  0
  2 58  1  0  0  0  0
  3  4  1  0  0  0  0
  3 59  1  0  0  0  0
  3 60  1  0  0  0  0
  4  5  1  6  0  0  0
  4 27  1  0  0  0  0
  6  8  1  0  0  0  0
  6 26  1  0  0  0  0
  6  7  1  6  0  0  0
  6  4  1  0  0  0  0
  8 61  1  0  0  0  0
  8 62  1  0  0  0  0
  9 11  1  0  0  0  0
  9 25  1  0  0  0  0
  9 10  1  1  0  0  0
  9  8  1  0  0  0  0
 11 12  2  0  0  0  0
 11 13  1  0  0  0  0
 13 63  1  0  0  0  0
 14 16  1  0  0  0  0
 14 22  1  0  0  0  0
 14 15  1  6  0  0  0
 14 13  1  0  0  0  0
 16 17  2  0  0  0  0
 16 18  1  0  0  0  0
 18 19  1  0  0  0  0
 18 64  1  0  0  0  0
 19 20  1  0  0  0  0
 19 21  1  0  0  0  0
 19 65  1  0  0  0  0
 20 66  1  0  0  0  0
 20 67  1  0  0  0  0
 20 68  1  0  0  0  0
 21 69  1  0  0  0  0
 21 70  1  0  0  0  0
 21 71  1  0  0  0  0
 22 23  1  0  0  0  0
 22 24  1  0  0  0  0
 22 72  1  0  0  0  0
 23 73  1  0  0  0  0
 23 74  1  0  0  0  0
 23 75  1  0  0  0  0
 24 76  1  0  0  0  0
 24 77  1  0  0  0  0
 24 78  1  0  0  0  0
 25 79  1  0  0  0  0
 25 80  1  0  0  0  0
 25 81  1  0  0  0  0
 26 82  1  0  0  0  0
 27 28  1  0  0  0  0
 27 83  1  0  0  0  0
 28 29  2  0  0  0  0
 28 30  1  0  0  0  0
 30 31  2  0  0  0  0
 30 35  1  0  0  0  0
 31 32  1  0  0  0  0
 31 84  1  0  0  0  0
 32 33  2  0  0  0  0
 32 42  1  0  0  0  0
 33 34  1  0  0  0  0
 33 85  1  0  0  0  0
 34 35  2  0  0  0  0
 34 36  1  0  0  0  0
 35 86  1  0  0  0  0
 36 37  1  0  0  0  0
 36 41  1  0  0  0  0
 37 38  2  0  0  0  0
 37 39  2  0  0  0  0
 37 40  1  0  0  0  0
 40 87  1  0  0  0  0
 40 88  1  0  0  0  0
 40 89  1  0  0  0  0
 41 90  1  0  0  0  0
 41 91  1  0  0  0  0
 41 92  1  0  0  0  0
 42 43  2  0  0  0  0
 42 44  1  0  0  0  0
 44 45  1  0  0  0  0
 44 93  1  0  0  0  0
 45 46  1  6  0  0  0
 45 47  1  0  0  0  0
 45 53  1  0  0  0  0
 47 48  2  0  0  0  0
 47 52  1  0  0  0  0
 48 49  1  0  0  0  0
 48 94  1  0  0  0  0
 49 50  2  0  0  0  0
 49 95  1  0  0  0  0
 50 51  1  0  0  0  0
 50 96  1  0  0  0  0
 51 52  2  0  0  0  0
 51 97  1  0  0  0  0
 52 98  1  0  0  0  0
 53 99  1  0  0  0  0
 53100  1  0  0  0  0
 53101  1  0  0  0  0
 54102  1  0  0  0  0
 54103  1  0  0  0  0
 54104  1  0  0  0  0
M  END
$$$$
