23T
 OpenBabel04121316043D

 45 46  0  0  1  0  0  0  0  0999 V2000
    1.0409    0.1220    0.0639 O   0  0  0  0  0  0  0  0  0  0  0  0
    2.2787    0.1025    0.0955 C   0  0  0  0  0  0  0  0  0  0  0  0
    3.0076    1.2403    0.1922 N   0  0  0  0  0  0  0  0  0  0  0  0
    2.4961    2.1091    0.1990 H   0  0  0  0  0  0  0  0  0  0  0  0
    4.3327    1.3368   -0.1247 C   0  0  0  0  0  0  0  0  0  0  0  0
    4.7956    2.4395   -0.4048 O   0  0  0  0  0  0  0  0  0  0  0  0
    5.0505    0.1437   -0.1057 N   0  0  0  0  0  0  0  0  0  0  0  0
    4.3864   -1.0710   -0.0379 C   0  0  0  0  0  0  0  0  0  0  0  0
    3.0474   -1.1551    0.0097 C   0  0  0  0  0  0  0  0  0  0  0  0
    2.2729   -2.4286   -0.0548 C   0  0  0  0  0  0  0  0  0  0  0  0
    6.4802    0.1927   -0.4313 C   0  0  1  0  0  0  0  0  0  0  0  0
    6.5769    0.2139   -1.5257 H   0  0  0  0  0  0  0  0  0  0  0  0
    7.2283    1.3538    0.2066 C   0  0  0  0  0  0  0  0  0  0  0  0
    8.6469    0.8767    0.2359 C   0  0  0  0  0  0  0  0  0  0  0  0
    8.4724   -0.5861    0.5524 C   0  0  2  0  0  0  0  0  0  0  0  0
    9.2201   -1.1916    0.0195 H   0  0  0  0  0  0  0  0  0  0  0  0
    7.1727   -0.9838    0.0472 O   0  0  0  0  0  0  0  0  0  0  0  0
    8.5549   -0.8340    2.0709 C   0  0  0  0  0  0  0  0  0  0  0  0
    8.8325   -2.1940    2.1697 O   0  0  0  0  0  0  0  0  0  0  0  0
    8.8615   -3.1311    3.4345 P   0  0  1  0  0  0  0  0  0  0  0  0
    7.5993   -3.8710    3.7191 O   0  0  0  0  0  0  0  0  0  0  0  0
   10.1077   -4.0221    3.0528 O   0  0  0  0  0  0  0  0  0  0  0  0
   11.2695   -3.5242    2.0876 P   0  0  1  0  0  0  0  0  0  0  0  0
   11.6074   -2.0669    2.0562 O   0  0  0  0  0  0  0  0  0  0  0  0
   12.5027   -4.4522    2.4409 O   0  0  0  0  0  0  0  0  0  0  0  0
   12.3653   -5.6295    3.4930 P   0  0  0  0  0  0  0  0  0  0  0  0
   11.2023   -6.5434    3.3464 O   0  0  0  0  0  0  0  0  0  0  0  0
   13.7937   -6.3134    3.3425 O   0  0  0  0  0  0  0  0  0  0  0  0
   12.4529   -4.8865    4.9039 O   0  0  0  0  0  0  0  0  0  0  0  0
   10.8676   -4.0249    0.6134 O   0  0  0  0  0  0  0  0  0  0  0  0
    9.3590   -2.3425    4.7363 O   0  0  0  0  0  0  0  0  0  0  0  0
    4.9961   -1.9704   -0.0737 H   0  0  0  0  0  0  0  0  0  0  0  0
    2.9310   -3.3006   -0.1149 H   0  0  0  0  0  0  0  0  0  0  0  0
    1.6346   -2.4360   -0.9461 H   0  0  0  0  0  0  0  0  0  0  0  0
    1.6363   -2.5417    0.8279 H   0  0  0  0  0  0  0  0  0  0  0  0
    6.8689    1.5054    1.2317 H   0  0  0  0  0  0  0  0  0  0  0  0
    7.1373    2.2914   -0.3426 H   0  0  0  0  0  0  0  0  0  0  0  0
    9.2570    1.4093    0.9692 H   0  0  0  0  0  0  0  0  0  0  0  0
    9.1133    1.0033   -0.7476 H   0  0  0  0  0  0  0  0  0  0  0  0
    9.3834   -0.2617    2.5031 H   0  0  0  0  0  0  0  0  0  0  0  0
    7.6199   -0.6100    2.5853 H   0  0  0  0  0  0  0  0  0  0  0  0
   14.1191   -6.1405    2.4391 H   0  0  0  0  0  0  0  0  0  0  0  0
   11.8822   -5.3276    5.5624 H   0  0  0  0  0  0  0  0  0  0  0  0
   10.7307   -3.2704    0.0057 H   0  0  0  0  0  0  0  0  0  0  0  0
    8.8891   -2.6994    5.5231 H   0  0  0  0  0  0  0  0  0  0  0  0
  1  2  2  0  0  0  0
  2  3  1  0  0  0  0
  2  9  1  0  0  0  0
  3  4  1  0  0  0  0
  3  5  1  0  0  0  0
  5  6  2  0  0  0  0
  5  7  1  0  0  0  0
  7  8  1  0  0  0  0
  7 11  1  0  0  0  0
  8  9  2  0  0  0  0
  8 32  1  0  0  0  0
  9 10  1  0  0  0  0
 10 33  1  0  0  0  0
 10 34  1  0  0  0  0
 10 35  1  0  0  0  0
 11 12  1  6  0  0  0
 11 13  1  0  0  0  0
 11 17  1  0  0  0  0
 13 14  1  0  0  0  0
 13 36  1  0  0  0  0
 13 37  1  0  0  0  0
 14 15  1  0  0  0  0
 14 38  1  0  0  0  0
 14 39  1  0  0  0  0
 15 17  1  0  0  0  0
 15 18  1  0  0  0  0
 15 16  1  6  0  0  0
 18 19  1  0  0  0  0
 18 40  1  0  0  0  0
 18 41  1  0  0  0  0
 20 19  1  6  0  0  0
 20 21  2  0  0  0  0
 20 22  1  0  0  0  0
 20 31  1  0  0  0  0
 23 22  1  1  0  0  0
 23 24  2  0  0  0  0
 23 25  1  0  0  0  0
 23 30  1  0  0  0  0
 25 26  1  0  0  0  0
 26 27  2  0  0  0  0
 26 28  1  0  0  0  0
 26 29  1  0  0  0  0
 28 42  1  0  0  0  0
 29 43  1  0  0  0  0
 30 44  1  0  0  0  0
 31 45  1  0  0  0  0
M  END
$$$$
