241
 OpenBabel04121316043D

 62 65  0  0  1  0  0  0  0  0999 V2000
   -5.1449   10.9983    7.8164 C   0  0  0  0  0  0  0  0  0  0  0  0
   -4.4207    9.8004    7.5970 O   0  0  0  0  0  0  0  0  0  0  0  0
   -3.0830   10.0342    7.5416 C   0  0  0  0  0  0  0  0  0  0  0  0
   -2.4723   11.1553    6.9698 C   0  0  0  0  0  0  0  0  0  0  0  0
   -1.0990   11.1757    6.7950 C   0  0  0  0  0  0  0  0  0  0  0  0
   -0.3574   10.2015    7.4295 C   0  0  0  0  0  0  0  0  0  0  0  0
   -0.9960    9.4614    8.3870 C   0  0  0  0  0  0  0  0  0  0  0  0
   -2.3117    9.1147    8.1996 C   0  0  0  0  0  0  0  0  0  0  0  0
    1.0583   10.0035    7.1681 C   0  0  0  0  0  0  0  0  0  0  0  0
    1.5342   10.8810    6.4184 O   0  0  0  0  0  0  0  0  0  0  0  0
    1.9134    8.9426    7.6204 N   0  0  0  0  0  0  0  0  0  0  0  0
    3.3053    8.9932    7.5604 C   0  0  0  0  0  0  0  0  0  0  0  0
    3.9905   10.1872    6.9478 C   0  0  0  0  0  0  0  0  0  0  0  0
    3.8362    7.8064    8.0952 C   0  0  0  0  0  0  0  0  0  0  0  0
    2.7405    7.0779    8.6679 C   0  0  0  0  0  0  0  0  0  0  0  0
    1.5778    7.7262    8.2563 C   0  0  0  0  0  0  0  0  0  0  0  0
    0.3664    7.0793    8.5211 C   0  0  0  0  0  0  0  0  0  0  0  0
    0.2519    6.1222    9.5012 C   0  0  0  0  0  0  0  0  0  0  0  0
    1.3639    5.4320    9.9010 C   0  0  0  0  0  0  0  0  0  0  0  0
    2.6178    5.8684    9.4329 C   0  0  0  0  0  0  0  0  0  0  0  0
    1.2803    4.2951   10.6622 O   0  0  0  0  0  0  0  0  0  0  0  0
   -0.0518    3.9270   11.0478 C   0  0  0  0  0  0  0  0  0  0  0  0
   -0.6005    4.8798   11.8395 F   0  0  0  0  0  0  0  0  0  0  0  0
   -0.8530    3.7351    9.9703 F   0  0  0  0  0  0  0  0  0  0  0  0
   -0.0265    2.7727   11.7438 F   0  0  0  0  0  0  0  0  0  0  0  0
    5.2465    7.2541    8.1644 C   0  0  0  0  0  0  0  0  0  0  0  0
    6.2067    8.0716    7.3473 C   0  0  0  0  0  0  0  0  0  0  0  0
    5.9112    8.4136    6.0246 C   0  0  0  0  0  0  0  0  0  0  0  0
    6.5995    9.4523    5.4114 C   0  0  0  0  0  0  0  0  0  0  0  0
    7.8258    9.8284    5.9080 C   0  0  0  0  0  0  0  0  0  0  0  0
    8.3035    9.2333    7.0696 C   0  0  0  0  0  0  0  0  0  0  0  0
    7.4346    8.4832    7.8668 C   0  0  0  0  0  0  0  0  0  0  0  0
    9.5933    9.2804    7.4973 O   0  0  0  0  0  0  0  0  0  0  0  0
   10.5615    9.8655    6.6333 C   0  0  2  0  0  0  0  0  0  0  0  0
   10.1948   10.1969    5.6590 H   0  0  0  0  0  0  0  0  0  0  0  0
   11.6693    8.8718    6.2948 C   0  0  0  0  0  0  0  0  0  0  0  0
   12.8564    9.0480    6.5426 O   0  0  0  0  0  0  0  0  0  0  0  0
   11.2438    7.7878    5.5973 O   0  0  0  0  0  0  0  0  0  0  0  0
   11.0988   11.0818    7.3614 C   0  0  0  0  0  0  0  0  0  0  0  0
   -6.2047   10.7512    7.8242 H   0  0  0  0  0  0  0  0  0  0  0  0
   -4.9862   11.7103    7.0040 H   0  0  0  0  0  0  0  0  0  0  0  0
   -4.8647   11.4345    8.7823 H   0  0  0  0  0  0  0  0  0  0  0  0
   -3.0283   12.0188    6.6403 H   0  0  0  0  0  0  0  0  0  0  0  0
   -0.6152   11.9724    6.2357 H   0  0  0  0  0  0  0  0  0  0  0  0
   -0.4253    9.0580    9.2069 H   0  0  0  0  0  0  0  0  0  0  0  0
   -2.7315    8.2251    8.6611 H   0  0  0  0  0  0  0  0  0  0  0  0
    3.4728   11.1372    6.8899 H   0  0  0  0  0  0  0  0  0  0  0  0
    4.1785    9.9779    5.8927 H   0  0  0  0  0  0  0  0  0  0  0  0
    4.8869   10.4385    7.5156 H   0  0  0  0  0  0  0  0  0  0  0  0
   -0.5745    7.3344    8.0696 H   0  0  0  0  0  0  0  0  0  0  0  0
   -0.7611    5.9115    9.8321 H   0  0  0  0  0  0  0  0  0  0  0  0
    3.5069    5.2946    9.6780 H   0  0  0  0  0  0  0  0  0  0  0  0
    5.2548    6.2353    7.7575 H   0  0  0  0  0  0  0  0  0  0  0  0
    5.5472    7.2011    9.2173 H   0  0  0  0  0  0  0  0  0  0  0  0
    4.9848    8.0575    5.5765 H   0  0  0  0  0  0  0  0  0  0  0  0
    6.1528   10.0134    4.5934 H   0  0  0  0  0  0  0  0  0  0  0  0
    8.3645   10.5701    5.3342 H   0  0  0  0  0  0  0  0  0  0  0  0
    7.7304    8.1954    8.8745 H   0  0  0  0  0  0  0  0  0  0  0  0
   10.2754    7.7460    5.4653 H   0  0  0  0  0  0  0  0  0  0  0  0
   11.8442   11.6011    6.7548 H   0  0  0  0  0  0  0  0  0  0  0  0
   11.5563   10.7818    8.3094 H   0  0  0  0  0  0  0  0  0  0  0  0
   10.2866   11.7777    7.6003 H   0  0  0  0  0  0  0  0  0  0  0  0
  1  2  1  0  0  0  0
  1 40  1  0  0  0  0
  1 41  1  0  0  0  0
  1 42  1  0  0  0  0
  2  3  1  0  0  0  0
  3  4  2  0  0  0  0
  3  8  1  0  0  0  0
  4  5  1  0  0  0  0
  4 43  1  0  0  0  0
  5  6  2  0  0  0  0
  5 44  1  0  0  0  0
  6  7  1  0  0  0  0
  6  9  1  0  0  0  0
  7  8  2  0  0  0  0
  7 45  1  0  0  0  0
  8 46  1  0  0  0  0
  9 10  2  0  0  0  0
  9 11  1  0  0  0  0
 11 12  1  0  0  0  0
 11 16  1  0  0  0  0
 12 13  1  0  0  0  0
 12 14  2  0  0  0  0
 13 47  1  0  0  0  0
 13 48  1  0  0  0  0
 13 49  1  0  0  0  0
 14 15  1  0  0  0  0
 14 26  1  0  0  0  0
 15 16  2  0  0  0  0
 15 20  1  0  0  0  0
 16 17  1  0  0  0  0
 17 18  2  0  0  0  0
 17 50  1  0  0  0  0
 18 19  1  0  0  0  0
 18 51  1  0  0  0  0
 19 20  2  0  0  0  0
 19 21  1  0  0  0  0
 20 52  1  0  0  0  0
 21 22  1  0  0  0  0
 22 23  1  0  0  0  0
 22 24  1  0  0  0  0
 22 25  1  0  0  0  0
 26 27  1  0  0  0  0
 26 53  1  0  0  0  0
 26 54  1  0  0  0  0
 27 28  2  0  0  0  0
 27 32  1  0  0  0  0
 28 29  1  0  0  0  0
 28 55  1  0  0  0  0
 29 30  2  0  0  0  0
 29 56  1  0  0  0  0
 30 31  1  0  0  0  0
 30 57  1  0  0  0  0
 31 32  2  0  0  0  0
 31 33  1  0  0  0  0
 32 58  1  0  0  0  0
 34 36  1  0  0  0  0
 34 39  1  0  0  0  0
 34 35  1  6  0  0  0
 34 33  1  0  0  0  0
 36 37  2  0  0  0  0
 36 38  1  0  0  0  0
 38 59  1  0  0  0  0
 39 60  1  0  0  0  0
 39 61  1  0  0  0  0
 39 62  1  0  0  0  0
M  END
$$$$
