24D
 OpenBabel04121316043D

 43 45  0  0  0  0  0  0  0  0999 V2000
    1.0462   -0.1204    0.1623 Cl  0  0  0  0  0  0  0  0  0  0  0  0
    2.7636   -0.1206    0.0964 C   0  0  0  0  0  0  0  0  0  0  0  0
    3.4431    1.0876    0.0398 C   0  0  0  0  0  0  0  0  0  0  0  0
    4.8346    1.0958   -0.0330 C   0  0  0  0  0  0  0  0  0  0  0  0
    5.5673   -0.0956   -0.1742 C   0  0  0  0  0  0  0  0  0  0  0  0
    4.8509   -1.3090   -0.1181 C   0  0  0  0  0  0  0  0  0  0  0  0
    3.4647   -1.3208    0.0787 C   0  0  0  0  0  0  0  0  0  0  0  0
    5.6283   -2.8397   -0.3300 Cl  0  0  0  0  0  0  0  0  0  0  0  0
    7.0599   -0.0828   -0.4445 C   0  0  0  0  0  0  0  0  0  0  0  0
    7.6981    1.2248   -0.3209 N   0  0  0  0  0  0  0  0  0  0  0  0
    8.9976    1.3604   -0.7518 C   0  0  0  0  0  0  0  0  0  0  0  0
    9.6790    0.4145   -1.0924 O   0  0  0  0  0  0  0  0  0  0  0  0
    9.3623    2.6927   -0.9407 N   0  0  0  0  0  0  0  0  0  0  0  0
   10.4188    2.9105   -1.9163 C   0  0  0  0  0  0  0  0  0  0  0  0
   10.2368    4.2758   -2.5690 C   0  0  0  0  0  0  0  0  0  0  0  0
   10.3128    5.3788   -1.5053 C   0  0  0  0  0  0  0  0  0  0  0  0
    9.1951    5.1111   -0.4693 C   0  0  0  0  0  0  0  0  0  0  0  0
    9.3143    3.7027    0.1280 C   0  0  0  0  0  0  0  0  0  0  0  0
   11.6493    5.3273   -0.9698 O   0  0  0  0  0  0  0  0  0  0  0  0
   11.8431    6.2960   -0.0195 C   0  0  0  0  0  0  0  0  0  0  0  0
   12.0938    7.5413   -0.4419 N   0  0  0  0  0  0  0  0  0  0  0  0
   12.0593    8.4842    0.5168 C   0  0  0  0  0  0  0  0  0  0  0  0
   11.7164    8.2270    1.8247 C   0  0  0  0  0  0  0  0  0  0  0  0
   11.6051    6.8984    2.1556 C   0  0  0  0  0  0  0  0  0  0  0  0
   11.6652    5.9079    1.2520 N   0  0  0  0  0  0  0  0  0  0  0  0
    2.9065    2.0325    0.0515 H   0  0  0  0  0  0  0  0  0  0  0  0
    5.3182    2.0647    0.0118 H   0  0  0  0  0  0  0  0  0  0  0  0
    2.9324   -2.2615    0.1925 H   0  0  0  0  0  0  0  0  0  0  0  0
    7.2335   -0.4676   -1.4613 H   0  0  0  0  0  0  0  0  0  0  0  0
    7.5746   -0.7448    0.2595 H   0  0  0  0  0  0  0  0  0  0  0  0
    7.1598    2.0463   -0.5301 H   0  0  0  0  0  0  0  0  0  0  0  0
   10.3739    2.1340   -2.6864 H   0  0  0  0  0  0  0  0  0  0  0  0
   11.3857    2.8180   -1.4075 H   0  0  0  0  0  0  0  0  0  0  0  0
    9.2589    4.3112   -3.0685 H   0  0  0  0  0  0  0  0  0  0  0  0
   11.0104    4.4153   -3.3298 H   0  0  0  0  0  0  0  0  0  0  0  0
   10.1498    6.3463   -1.9997 H   0  0  0  0  0  0  0  0  0  0  0  0
    8.2196    5.2053   -0.9651 H   0  0  0  0  0  0  0  0  0  0  0  0
    9.2069    5.8659    0.3244 H   0  0  0  0  0  0  0  0  0  0  0  0
    8.4998    3.5026    0.8317 H   0  0  0  0  0  0  0  0  0  0  0  0
   10.2479    3.6186    0.6997 H   0  0  0  0  0  0  0  0  0  0  0  0
   12.3288    9.4866    0.1975 H   0  0  0  0  0  0  0  0  0  0  0  0
   11.5716    9.0143    2.5504 H   0  0  0  0  0  0  0  0  0  0  0  0
   11.4563    6.5820    3.1834 H   0  0  0  0  0  0  0  0  0  0  0  0
  1  2  1  0  0  0  0
  2  3  2  0  0  0  0
  2  7  1  0  0  0  0
  3  4  1  0  0  0  0
  3 26  1  0  0  0  0
  4  5  2  0  0  0  0
  4 27  1  0  0  0  0
  5  6  1  0  0  0  0
  5  9  1  0  0  0  0
  6  7  2  0  0  0  0
  6  8  1  0  0  0  0
  7 28  1  0  0  0  0
  9 10  1  0  0  0  0
  9 29  1  0  0  0  0
  9 30  1  0  0  0  0
 10 11  1  0  0  0  0
 10 31  1  0  0  0  0
 11 12  2  0  0  0  0
 11 13  1  0  0  0  0
 13 14  1  0  0  0  0
 13 18  1  0  0  0  0
 14 15  1  0  0  0  0
 14 32  1  0  0  0  0
 14 33  1  0  0  0  0
 15 16  1  0  0  0  0
 15 34  1  0  0  0  0
 15 35  1  0  0  0  0
 16 17  1  0  0  0  0
 16 19  1  0  0  0  0
 16 36  1  0  0  0  0
 17 18  1  0  0  0  0
 17 37  1  0  0  0  0
 17 38  1  0  0  0  0
 18 39  1  0  0  0  0
 18 40  1  0  0  0  0
 19 20  1  0  0  0  0
 20 21  2  0  0  0  0
 20 25  1  0  0  0  0
 21 22  1  0  0  0  0
 22 23  2  0  0  0  0
 22 41  1  0  0  0  0
 23 24  1  0  0  0  0
 23 42  1  0  0  0  0
 24 25  2  0  0  0  0
 24 43  1  0  0  0  0
M  END
$$$$
