24H
 OpenBabel04121316043D

 35 36  0  0  1  0  0  0  0  0999 V2000
    2.2911    2.3805   -2.9053 O   0  0  0  0  0  0  0  0  0  0  0  0
    2.5109    1.1425   -2.2541 C   0  0  0  0  0  0  0  0  0  0  0  0
    2.9447    1.3040   -0.7866 C   0  0  2  0  0  0  0  0  0  0  0  0
    2.6596    0.3907   -0.2492 H   0  0  0  0  0  0  0  0  0  0  0  0
    2.4076    2.5276   -0.0181 C   0  0  0  0  0  0  0  0  0  0  0  0
    0.9743    2.5927    0.0290 N   0  0  0  0  0  0  0  0  0  0  0  0
    0.1999    1.9615    0.9636 C   0  0  0  0  0  0  0  0  0  0  0  0
   -1.0809    2.0841    0.6895 N   0  0  0  0  0  0  0  0  0  0  0  0
   -1.1177    2.8648   -0.4405 C   0  0  0  0  0  0  0  0  0  0  0  0
    0.1426    3.2320   -0.8483 C   0  0  0  0  0  0  0  0  0  0  0  0
    0.4839    3.9638   -1.9395 N   0  0  0  0  0  0  0  0  0  0  0  0
   -0.5213    4.2813   -2.7080 C   0  0  0  0  0  0  0  0  0  0  0  0
   -0.3193    4.9013   -3.8950 N   0  0  0  0  0  0  0  0  0  0  0  0
   -1.8303    3.9864   -2.3880 N   0  0  0  0  0  0  0  0  0  0  0  0
   -2.5778    4.2947   -2.9839 H   0  0  0  0  0  0  0  0  0  0  0  0
   -2.2261    3.3035   -1.2490 C   0  0  0  0  0  0  0  0  0  0  0  0
   -3.4180    3.1010   -0.9960 O   0  0  0  0  0  0  0  0  0  0  0  0
    4.3742    1.2908   -0.7722 O   0  0  0  0  0  0  0  0  0  0  0  0
    4.9102    2.4621   -1.3561 C   0  0  0  0  0  0  0  0  0  0  0  0
    6.7402    2.4621   -1.3561 P   0  0  0  0  0  0  0  0  0  0  0  0
    6.7991    1.6036   -0.0940 O   0  0  0  0  0  0  0  0  0  0  0  0
    6.7940    1.5425   -2.7109 O   0  0  0  0  0  0  0  0  0  0  0  0
    8.4702    2.4621   -1.3561 O   0  0  0  0  0  0  0  0  0  0  0  0
    1.5005    2.2827   -3.4667 H   0  0  0  0  0  0  0  0  0  0  0  0
    3.3200    0.6952   -2.8381 H   0  0  0  0  0  0  0  0  0  0  0  0
    1.6308    0.5012   -2.3250 H   0  0  0  0  0  0  0  0  0  0  0  0
    2.7493    3.4836   -0.4240 H   0  0  0  0  0  0  0  0  0  0  0  0
    2.7894    2.5043    1.0147 H   0  0  0  0  0  0  0  0  0  0  0  0
    0.6256    1.4178    1.7988 H   0  0  0  0  0  0  0  0  0  0  0  0
    0.6316    5.1214   -4.1687 H   0  0  0  0  0  0  0  0  0  0  0  0
   -1.0643    5.2412   -4.4850 H   0  0  0  0  0  0  0  0  0  0  0  0
    4.6791    3.3522   -0.7666 H   0  0  0  0  0  0  0  0  0  0  0  0
    4.5811    2.6272   -2.3838 H   0  0  0  0  0  0  0  0  0  0  0  0
    5.9540    1.1541   -3.0137 H   0  0  0  0  0  0  0  0  0  0  0  0
    8.7674    2.6880   -0.4556 H   0  0  0  0  0  0  0  0  0  0  0  0
  1  2  1  0  0  0  0
  1 24  1  0  0  0  0
  2 25  1  0  0  0  0
  2 26  1  0  0  0  0
  3  5  1  0  0  0  0
  3 18  1  0  0  0  0
  3  4  1  1  0  0  0
  3  2  1  0  0  0  0
  5  6  1  0  0  0  0
  5 27  1  0  0  0  0
  5 28  1  0  0  0  0
  6  7  1  0  0  0  0
  6 10  1  0  0  0  0
  7  8  2  0  0  0  0
  7 29  1  0  0  0  0
  8  9  1  0  0  0  0
  9 10  2  0  0  0  0
  9 16  1  0  0  0  0
 10 11  1  0  0  0  0
 11 12  2  0  0  0  0
 12 13  1  0  0  0  0
 12 14  1  0  0  0  0
 13 30  1  0  0  0  0
 13 31  1  0  0  0  0
 14 15  1  0  0  0  0
 14 16  1  0  0  0  0
 16 17  2  0  0  0  0
 18 19  1  0  0  0  0
 19 20  1  0  0  0  0
 19 32  1  0  0  0  0
 19 33  1  0  0  0  0
 20 21  2  0  0  0  0
 20 22  1  0  0  0  0
 20 23  1  0  0  0  0
 22 34  1  0  0  0  0
 23 35  1  0  0  0  0
M  END
$$$$
