24P
 OpenBabel04121316043D

 41 43  0  0  1  0  0  0  0  0999 V2000
   -1.5404    0.0892   -0.0812 C   0  0  0  0  0  0  0  0  0  0  0  0
   -0.8494    1.3013   -0.0285 C   0  0  0  0  0  0  0  0  0  0  0  0
    0.5546    1.3295   -0.0640 C   0  0  0  0  0  0  0  0  0  0  0  0
    1.2745    0.1475    0.0687 C   0  0  0  0  0  0  0  0  0  0  0  0
    0.5006   -0.9673    0.4136 C   0  0  0  0  0  0  0  0  0  0  0  0
   -0.8405   -1.0776    0.0901 C   0  0  0  0  0  0  0  0  0  0  0  0
    2.7981    0.1173   -0.1409 C   0  0  0  0  0  0  0  0  0  0  0  0
    3.5143   -1.2303   -0.2245 C   0  0  0  0  0  0  0  0  0  0  0  0
    4.8941   -1.3598   -0.3655 C   0  0  0  0  0  0  0  0  0  0  0  0
    5.4602   -2.6415   -0.5477 C   0  0  0  0  0  0  0  0  0  0  0  0
    4.6706   -3.7881   -0.3756 C   0  0  0  0  0  0  0  0  0  0  0  0
    3.3619   -3.6533   -0.0475 C   0  0  0  0  0  0  0  0  0  0  0  0
    2.7991   -2.4246   -0.2433 C   0  0  0  0  0  0  0  0  0  0  0  0
    5.1986   -5.0091   -0.6674 O   0  0  0  0  0  0  0  0  0  0  0  0
    4.2641   -6.1072   -0.5555 C   0  0  0  0  0  0  0  0  0  0  0  0
    5.0508   -7.3635   -0.8599 C   0  0  1  0  0  0  0  0  0  0  0  0
    5.4491   -7.2851   -1.8789 H   0  0  0  0  0  0  0  0  0  0  0  0
    6.1875   -7.4528    0.1437 C   0  0  0  0  0  0  0  0  0  0  0  0
    6.5985   -8.8909    0.0344 C   0  0  0  0  0  0  0  0  0  0  0  0
    5.2832   -9.6163   -0.2023 C   0  0  0  0  0  0  0  0  0  0  0  0
    4.3264   -8.6386   -0.7448 N   0  0  0  0  0  0  0  0  0  0  0  0
   -2.6206    0.0479   -0.1621 H   0  0  0  0  0  0  0  0  0  0  0  0
   -1.4104    2.2262    0.0321 H   0  0  0  0  0  0  0  0  0  0  0  0
    1.0716    2.2816   -0.1469 H   0  0  0  0  0  0  0  0  0  0  0  0
    0.9214   -1.8130    0.9423 H   0  0  0  0  0  0  0  0  0  0  0  0
   -1.3188   -2.0536    0.0772 H   0  0  0  0  0  0  0  0  0  0  0  0
    3.2602    0.7168    0.6535 H   0  0  0  0  0  0  0  0  0  0  0  0
    3.0096    0.6215   -1.0970 H   0  0  0  0  0  0  0  0  0  0  0  0
    5.5361   -0.4822   -0.4324 H   0  0  0  0  0  0  0  0  0  0  0  0
    6.4942   -2.7423   -0.8533 H   0  0  0  0  0  0  0  0  0  0  0  0
    2.6747   -4.4690    0.1537 H   0  0  0  0  0  0  0  0  0  0  0  0
    1.7636   -2.4988   -0.5052 H   0  0  0  0  0  0  0  0  0  0  0  0
    3.4194   -6.0023   -1.2524 H   0  0  0  0  0  0  0  0  0  0  0  0
    3.8833   -6.1662    0.4759 H   0  0  0  0  0  0  0  0  0  0  0  0
    5.8304   -7.2368    1.1603 H   0  0  0  0  0  0  0  0  0  0  0  0
    6.9996   -6.7563   -0.0855 H   0  0  0  0  0  0  0  0  0  0  0  0
    7.1128   -9.2253    0.9382 H   0  0  0  0  0  0  0  0  0  0  0  0
    7.2692   -9.0125   -0.8231 H   0  0  0  0  0  0  0  0  0  0  0  0
    4.8973  -10.0106    0.7439 H   0  0  0  0  0  0  0  0  0  0  0  0
    5.4169  -10.4547   -0.8913 H   0  0  0  0  0  0  0  0  0  0  0  0
    3.5316   -8.5566   -0.1114 H   0  0  0  0  0  0  0  0  0  0  0  0
  1  2  2  0  0  0  0
  1  6  1  0  0  0  0
  1 22  1  0  0  0  0
  2  3  1  0  0  0  0
  2 23  1  0  0  0  0
  3  4  2  0  0  0  0
  3 24  1  0  0  0  0
  4  5  1  0  0  0  0
  4  7  1  0  0  0  0
  5  6  2  0  0  0  0
  5 25  1  0  0  0  0
  6 26  1  0  0  0  0
  7  8  1  0  0  0  0
  7 27  1  0  0  0  0
  7 28  1  0  0  0  0
  8  9  2  0  0  0  0
  8 13  1  0  0  0  0
  9 10  1  0  0  0  0
  9 29  1  0  0  0  0
 10 11  2  0  0  0  0
 10 30  1  0  0  0  0
 11 12  1  0  0  0  0
 11 14  1  0  0  0  0
 12 13  2  0  0  0  0
 12 31  1  0  0  0  0
 13 32  1  0  0  0  0
 14 15  1  0  0  0  0
 15 16  1  0  0  0  0
 15 33  1  0  0  0  0
 15 34  1  0  0  0  0
 16 17  1  6  0  0  0
 16 18  1  0  0  0  0
 16 21  1  0  0  0  0
 18 19  1  0  0  0  0
 18 35  1  0  0  0  0
 18 36  1  0  0  0  0
 19 20  1  0  0  0  0
 19 37  1  0  0  0  0
 19 38  1  0  0  0  0
 20 21  1  0  0  0  0
 20 39  1  0  0  0  0
 20 40  1  0  0  0  0
 21 41  1  0  0  0  0
M  END
$$$$
