25P
 OpenBabel04121316043D

 50 52  0  0  1  0  0  0  0  0999 V2000
    0.8595    0.1225   -0.7820 O   0  5  0  0  0  0  0  0  0  0  0  0
    2.1151   -0.0775   -0.9657 C   0  0  0  0  0  0  0  0  0  0  0  0
    2.7802   -1.1070   -0.7208 O   0  0  0  0  0  0  0  0  0  0  0  0
    2.8603    1.1499   -1.6359 C   0  0  0  0  0  0  0  0  0  0  0  0
    4.3411    1.1939   -1.3267 C   0  0  0  0  0  0  0  0  0  0  0  0
    5.4601    2.0999   -1.7640 C   0  0  0  0  0  0  0  0  0  0  0  0
    6.7942    1.7029   -1.1924 N   0  0  0  0  0  0  0  0  0  0  0  0
    7.3008    2.6160   -0.1613 C   0  0  0  0  0  0  0  0  0  0  0  0
    8.5996    1.9517    0.2680 C   0  0  0  0  0  0  0  0  0  0  0  0
    8.2884    0.4713    0.2272 C   0  0  0  0  0  0  0  0  0  0  0  0
    7.0013    0.3236   -0.6186 C   0  0  1  0  0  0  0  0  0  0  0  0
    7.2386   -0.3408   -1.4641 H   0  0  0  0  0  0  0  0  0  0  0  0
    5.9435   -0.3790    0.3474 C   0  0  0  0  0  0  0  0  0  0  0  0
    5.3370    0.6448    1.2081 O   0  0  0  0  0  0  0  0  0  0  0  0
    4.0300    0.5066    1.6349 C   0  0  0  0  0  0  0  0  0  0  0  0
    3.0195    1.5183    1.4472 C   0  0  0  0  0  0  0  0  0  0  0  0
    1.7173    1.3818    1.9031 C   0  0  0  0  0  0  0  0  0  0  0  0
    1.4289    0.2453    2.6031 C   0  0  0  0  0  0  0  0  0  0  0  0
    2.3958   -0.7719    2.7588 C   0  0  0  0  0  0  0  0  0  0  0  0
    3.6905   -0.6457    2.2860 C   0  0  0  0  0  0  0  0  0  0  0  0
    0.1385    0.1977    3.0558 O   0  0  0  0  0  0  0  0  0  0  0  0
   -0.0654   -0.7601    3.9925 C   0  0  0  0  0  0  0  0  0  0  0  0
   -0.3373   -2.0506    3.5492 C   0  0  0  0  0  0  0  0  0  0  0  0
   -0.5728   -3.0311    4.4891 C   0  0  0  0  0  0  0  0  0  0  0  0
   -0.4721   -2.7082    5.8449 C   0  0  0  0  0  0  0  0  0  0  0  0
   -0.0684   -1.4367    6.2708 C   0  0  0  0  0  0  0  0  0  0  0  0
    0.1014   -0.4336    5.3335 C   0  0  0  0  0  0  0  0  0  0  0  0
   -0.9082   -3.8866    7.0163 Cl  0  0  0  0  0  0  0  0  0  0  0  0
    2.4022    2.0939   -1.3233 H   0  0  0  0  0  0  0  0  0  0  0  0
    2.7190    1.0329   -2.7038 H   0  0  0  0  0  0  0  0  0  0  0  0
    4.6721    0.1830   -1.4805 H   0  0  0  0  0  0  0  0  0  0  0  0
    4.3662    1.5520   -0.3288 H   0  0  0  0  0  0  0  0  0  0  0  0
    5.2333    3.1285   -1.4398 H   0  0  0  0  0  0  0  0  0  0  0  0
    5.4830    2.1073   -2.8527 H   0  0  0  0  0  0  0  0  0  0  0  0
    6.6208    2.6936    0.6943 H   0  0  0  0  0  0  0  0  0  0  0  0
    7.4970    3.6236   -0.5381 H   0  0  0  0  0  0  0  0  0  0  0  0
    8.9177    2.2584    1.2704 H   0  0  0  0  0  0  0  0  0  0  0  0
    9.4136    2.1810   -0.4293 H   0  0  0  0  0  0  0  0  0  0  0  0
    8.1319    0.1219    1.2546 H   0  0  0  0  0  0  0  0  0  0  0  0
    9.1262   -0.1085   -0.1775 H   0  0  0  0  0  0  0  0  0  0  0  0
    5.2554   -1.0115   -0.2312 H   0  0  0  0  0  0  0  0  0  0  0  0
    6.4583   -1.1140    0.9808 H   0  0  0  0  0  0  0  0  0  0  0  0
    3.0977    2.3519    0.7531 H   0  0  0  0  0  0  0  0  0  0  0  0
    0.9124    2.0527    1.5976 H   0  0  0  0  0  0  0  0  0  0  0  0
    2.1485   -1.7330    3.1829 H   0  0  0  0  0  0  0  0  0  0  0  0
    4.3940   -1.4611    2.3595 H   0  0  0  0  0  0  0  0  0  0  0  0
   -0.2864   -2.2669    2.4812 H   0  0  0  0  0  0  0  0  0  0  0  0
   -0.8328   -4.0264    4.1497 H   0  0  0  0  0  0  0  0  0  0  0  0
    0.0988   -1.2187    7.3197 H   0  0  0  0  0  0  0  0  0  0  0  0
    0.3921    0.5759    5.6140 H   0  0  0  0  0  0  0  0  0  0  0  0
  1  2  1  0  0  0  0
  2  3  2  0  0  0  0
  2  4  1  0  0  0  0
  4  5  1  0  0  0  0
  4 29  1  0  0  0  0
  4 30  1  0  0  0  0
  5  6  1  0  0  0  0
  5 31  1  0  0  0  0
  5 32  1  0  0  0  0
  6  7  1  0  0  0  0
  6 33  1  0  0  0  0
  6 34  1  0  0  0  0
  7  8  1  0  0  0  0
  7 11  1  0  0  0  0
  8  9  1  0  0  0  0
  8 35  1  0  0  0  0
  8 36  1  0  0  0  0
  9 10  1  0  0  0  0
  9 37  1  0  0  0  0
  9 38  1  0  0  0  0
 10 11  1  0  0  0  0
 10 39  1  0  0  0  0
 10 40  1  0  0  0  0
 11 13  1  0  0  0  0
 11 12  1  6  0  0  0
 13 14  1  0  0  0  0
 13 41  1  0  0  0  0
 13 42  1  0  0  0  0
 14 15  1  0  0  0  0
 15 16  2  0  0  0  0
 15 20  1  0  0  0  0
 16 17  1  0  0  0  0
 16 43  1  0  0  0  0
 17 18  2  0  0  0  0
 17 44  1  0  0  0  0
 18 19  1  0  0  0  0
 18 21  1  0  0  0  0
 19 20  2  0  0  0  0
 19 45  1  0  0  0  0
 20 46  1  0  0  0  0
 21 22  1  0  0  0  0
 22 23  2  0  0  0  0
 22 27  1  0  0  0  0
 23 24  1  0  0  0  0
 23 47  1  0  0  0  0
 24 25  2  0  0  0  0
 24 48  1  0  0  0  0
 25 26  1  0  0  0  0
 25 28  1  0  0  0  0
 26 27  2  0  0  0  0
 26 49  1  0  0  0  0
 27 50  1  0  0  0  0
M  CHG  1   1  -1
M  END
$$$$
