260
 OpenBabel04121316043D

 15 15  0  0  0  0  0  0  0  0999 V2000
    0.9811    0.1198   -0.1475 Br  0  0  0  0  0  0  0  0  0  0  0  0
    2.9397    0.0741   -0.1319 C   0  0  0  0  0  0  0  0  0  0  0  0
    3.3620   -0.9563    0.8592 C   0  0  0  0  0  0  0  0  0  0  0  0
    3.5920   -0.6266    2.1902 C   0  0  0  0  0  0  0  0  0  0  0  0
    3.6271    0.6636    2.5633 F   0  0  0  0  0  0  0  0  0  0  0  0
    3.7440   -1.6063    3.1678 C   0  0  0  0  0  0  0  0  0  0  0  0
    3.6039   -2.9503    2.8165 C   0  0  0  0  0  0  0  0  0  0  0  0
    3.4863   -3.3012    1.4760 C   0  0  0  0  0  0  0  0  0  0  0  0
    3.4043   -2.3072    0.5032 C   0  0  0  0  0  0  0  0  0  0  0  0
    3.3260   -2.6613   -0.7834 F   0  0  0  0  0  0  0  0  0  0  0  0
    3.2692    1.0817    0.1337 H   0  0  0  0  0  0  0  0  0  0  0  0
    3.2578   -0.1581   -1.1506 H   0  0  0  0  0  0  0  0  0  0  0  0
    3.9306   -1.3179    4.1959 H   0  0  0  0  0  0  0  0  0  0  0  0
    3.5850   -3.7153    3.5885 H   0  0  0  0  0  0  0  0  0  0  0  0
    3.4303   -4.3445    1.1755 H   0  0  0  0  0  0  0  0  0  0  0  0
  1  2  1  0  0  0  0
  2  3  1  0  0  0  0
  2 11  1  0  0  0  0
  2 12  1  0  0  0  0
  3  4  2  0  0  0  0
  3  9  1  0  0  0  0
  4  5  1  0  0  0  0
  4  6  1  0  0  0  0
  6  7  2  0  0  0  0
  6 13  1  0  0  0  0
  7  8  1  0  0  0  0
  7 14  1  0  0  0  0
  8  9  2  0  0  0  0
  8 15  1  0  0  0  0
  9 10  1  0  0  0  0
M  END
$$$$
