261
 OpenBabel04121316043D

 20 20  0  0  0  0  0  0  0  0999 V2000
    0.9327   -0.0705    0.0379 C   0  0  0  0  0  0  0  0  0  0  0  0
    2.4503   -0.0528    0.0397 C   0  0  0  0  0  0  0  0  0  0  0  0
    2.8905   -1.0527   -0.8729 O   0  0  0  0  0  0  0  0  0  0  0  0
    4.2475   -1.1587   -1.0266 C   0  0  0  0  0  0  0  0  0  0  0  0
    5.0900   -0.0530   -1.1739 C   0  0  0  0  0  0  0  0  0  0  0  0
    6.4302   -0.2401   -1.5254 C   0  0  0  0  0  0  0  0  0  0  0  0
    6.9485   -1.5252   -1.6563 C   0  0  0  0  0  0  0  0  0  0  0  0
    6.1328   -2.6358   -1.4314 C   0  0  0  0  0  0  0  0  0  0  0  0
    4.7771   -2.4446   -1.1600 C   0  0  0  0  0  0  0  0  0  0  0  0
    3.9488   -3.5273   -1.0209 O   0  0  0  0  0  0  0  0  0  0  0  0
    0.5349    0.6682    0.7384 H   0  0  0  0  0  0  0  0  0  0  0  0
    0.5544   -1.0616    0.3080 H   0  0  0  0  0  0  0  0  0  0  0  0
    0.5512    0.1534   -0.9646 H   0  0  0  0  0  0  0  0  0  0  0  0
    2.8263   -0.2789    1.0439 H   0  0  0  0  0  0  0  0  0  0  0  0
    2.7769    0.9466   -0.2622 H   0  0  0  0  0  0  0  0  0  0  0  0
    4.7235    0.9602   -1.0690 H   0  0  0  0  0  0  0  0  0  0  0  0
    7.0624    0.6254   -1.7126 H   0  0  0  0  0  0  0  0  0  0  0  0
    7.9891   -1.6641   -1.9400 H   0  0  0  0  0  0  0  0  0  0  0  0
    6.5613   -3.6294   -1.4850 H   0  0  0  0  0  0  0  0  0  0  0  0
    4.4389   -4.3311   -1.2450 H   0  0  0  0  0  0  0  0  0  0  0  0
  1  2  1  0  0  0  0
  1 11  1  0  0  0  0
  1 12  1  0  0  0  0
  1 13  1  0  0  0  0
  2  3  1  0  0  0  0
  2 14  1  0  0  0  0
  2 15  1  0  0  0  0
  3  4  1  0  0  0  0
  4  5  2  0  0  0  0
  4  9  1  0  0  0  0
  5  6  1  0  0  0  0
  5 16  1  0  0  0  0
  6  7  2  0  0  0  0
  6 17  1  0  0  0  0
  7  8  1  0  0  0  0
  7 18  1  0  0  0  0
  8  9  2  0  0  0  0
  8 19  1  0  0  0  0
  9 10  1  0  0  0  0
 10 20  1  0  0  0  0
M  END
$$$$
