266
 OpenBabel04121316043D

 19 18  0  0  0  0  0  0  0  0999 V2000
    1.0581    0.0150   -0.0989 C   0  0  0  0  0  0  0  0  0  0  0  0
    2.5782    0.0239   -0.1070 C   0  0  0  0  0  0  0  0  0  0  0  0
    3.1489    1.1015   -1.0325 C   0  0  0  0  0  0  0  0  0  0  0  0
    4.9671    0.9888   -0.9509 S   0  0  0  0  0  0  0  0  0  0  0  0
    5.4513    2.3305   -2.0821 C   0  0  0  0  0  0  0  0  0  0  0  0
    6.9796    2.3903   -2.1347 C   0  0  0  0  0  0  0  0  0  0  0  0
    7.4147    3.4355   -3.0017 O   0  0  0  0  0  0  0  0  0  0  0  0
    0.6920   -0.7686    0.5735 H   0  0  0  0  0  0  0  0  0  0  0  0
    0.6604   -0.1849   -1.0984 H   0  0  0  0  0  0  0  0  0  0  0  0
    0.6605    0.9726    0.2504 H   0  0  0  0  0  0  0  0  0  0  0  0
    2.9278   -0.9682   -0.4198 H   0  0  0  0  0  0  0  0  0  0  0  0
    2.9287    0.1829    0.9208 H   0  0  0  0  0  0  0  0  0  0  0  0
    2.8216    2.0950   -0.7087 H   0  0  0  0  0  0  0  0  0  0  0  0
    2.8144    0.9362   -2.0619 H   0  0  0  0  0  0  0  0  0  0  0  0
    5.0535    3.2920   -1.7394 H   0  0  0  0  0  0  0  0  0  0  0  0
    5.0521    2.1481   -3.0859 H   0  0  0  0  0  0  0  0  0  0  0  0
    7.4075    1.4483   -2.4972 H   0  0  0  0  0  0  0  0  0  0  0  0
    7.3972    2.5938   -1.1429 H   0  0  0  0  0  0  0  0  0  0  0  0
    7.1691    3.1878   -3.9068 H   0  0  0  0  0  0  0  0  0  0  0  0
  1  2  1  0  0  0  0
  1  8  1  0  0  0  0
  1  9  1  0  0  0  0
  1 10  1  0  0  0  0
  2  3  1  0  0  0  0
  2 11  1  0  0  0  0
  2 12  1  0  0  0  0
  3  4  1  0  0  0  0
  3 13  1  0  0  0  0
  3 14  1  0  0  0  0
  4  5  1  0  0  0  0
  5  6  1  0  0  0  0
  5 15  1  0  0  0  0
  5 16  1  0  0  0  0
  6  7  1  0  0  0  0
  6 17  1  0  0  0  0
  6 18  1  0  0  0  0
  7 19  1  0  0  0  0
M  END
$$$$
