268
 OpenBabel04121316043D

 20 20  0  0  0  0  0  0  0  0999 V2000
    1.0332   -0.0756   -0.0763 O   0  0  0  0  0  0  0  0  0  0  0  0
    2.4568   -0.0836   -0.0612 C   0  0  0  0  0  0  0  0  0  0  0  0
    2.9606    1.2713    0.4100 C   0  0  0  0  0  0  0  0  0  0  0  0
    4.3848    1.2579    0.4974 O   0  0  0  0  0  0  0  0  0  0  0  0
    4.9638    2.4603    0.8106 C   0  0  0  0  0  0  0  0  0  0  0  0
    4.3332    3.7048    0.7093 C   0  0  0  0  0  0  0  0  0  0  0  0
    5.0536    4.8781    0.9346 C   0  0  0  0  0  0  0  0  0  0  0  0
    6.3771    4.8149    1.3508 C   0  0  0  0  0  0  0  0  0  0  0  0
    6.9873    3.5747    1.5413 C   0  0  0  0  0  0  0  0  0  0  0  0
    6.2929    2.4031    1.2280 C   0  0  0  0  0  0  0  0  0  0  0  0
    0.7464   -0.9511   -0.3862 H   0  0  0  0  0  0  0  0  0  0  0  0
    2.8217   -0.2918   -1.0729 H   0  0  0  0  0  0  0  0  0  0  0  0
    2.8094   -0.8824    0.5979 H   0  0  0  0  0  0  0  0  0  0  0  0
    2.5361    1.5021    1.3948 H   0  0  0  0  0  0  0  0  0  0  0  0
    2.6046    2.0146   -0.3127 H   0  0  0  0  0  0  0  0  0  0  0  0
    3.2898    3.8045    0.4403 H   0  0  0  0  0  0  0  0  0  0  0  0
    4.5690    5.8398    0.7817 H   0  0  0  0  0  0  0  0  0  0  0  0
    6.9332    5.7309    1.5309 H   0  0  0  0  0  0  0  0  0  0  0  0
    8.0020    3.5222    1.9222 H   0  0  0  0  0  0  0  0  0  0  0  0
    6.7937    1.4414    1.3205 H   0  0  0  0  0  0  0  0  0  0  0  0
  1  2  1  0  0  0  0
  1 11  1  0  0  0  0
  2  3  1  0  0  0  0
  2 12  1  0  0  0  0
  2 13  1  0  0  0  0
  3  4  1  0  0  0  0
  3 14  1  0  0  0  0
  3 15  1  0  0  0  0
  4  5  1  0  0  0  0
  5  6  2  0  0  0  0
  5 10  1  0  0  0  0
  6  7  1  0  0  0  0
  6 16  1  0  0  0  0
  7  8  2  0  0  0  0
  7 17  1  0  0  0  0
  8  9  1  0  0  0  0
  8 18  1  0  0  0  0
  9 10  2  0  0  0  0
  9 19  1  0  0  0  0
 10 20  1  0  0  0  0
M  END
$$$$
