26D
 OpenBabel04121316043D

 15 15  0  0  0  0  0  0  0  0999 V2000
    1.0110   -0.0896   -0.2127 N   0  0  0  0  0  0  0  0  0  0  0  0
    2.3926   -0.0696    0.0078 C   0  0  0  0  0  0  0  0  0  0  0  0
    3.0495    1.1462    0.0421 C   0  0  0  0  0  0  0  0  0  0  0  0
    4.4111    1.1681    0.3138 C   0  0  0  0  0  0  0  0  0  0  0  0
    5.0945   -0.0396    0.3765 C   0  0  0  0  0  0  0  0  0  0  0  0
    4.3925   -1.2191    0.2106 C   0  0  0  0  0  0  0  0  0  0  0  0
    3.0461   -1.2528    0.0794 N   0  0  0  0  0  0  0  0  0  0  0  0
    5.0810   -2.4353    0.2944 N   0  0  0  0  0  0  0  0  0  0  0  0
    0.5117    0.7081    0.1601 H   0  0  0  0  0  0  0  0  0  0  0  0
    0.6314   -0.9868    0.0666 H   0  0  0  0  0  0  0  0  0  0  0  0
    2.5099    2.0766   -0.1057 H   0  0  0  0  0  0  0  0  0  0  0  0
    4.9292    2.1053    0.4696 H   0  0  0  0  0  0  0  0  0  0  0  0
    6.1700   -0.0473    0.5239 H   0  0  0  0  0  0  0  0  0  0  0  0
    6.0012   -2.4214   -0.1284 H   0  0  0  0  0  0  0  0  0  0  0  0
    4.4888   -3.1899   -0.0313 H   0  0  0  0  0  0  0  0  0  0  0  0
  1  2  1  0  0  0  0
  1  9  1  0  0  0  0
  1 10  1  0  0  0  0
  2  3  2  0  0  0  0
  2  7  1  0  0  0  0
  3  4  1  0  0  0  0
  3 11  1  0  0  0  0
  4  5  2  0  0  0  0
  4 12  1  0  0  0  0
  5  6  1  0  0  0  0
  5 13  1  0  0  0  0
  6  7  2  0  0  0  0
  6  8  1  0  0  0  0
  8 14  1  0  0  0  0
  8 15  1  0  0  0  0
M  END
$$$$
