26O
 OpenBabel04121316043D

 43 44  0  0  1  0  0  0  0  0999 V2000
    0.6444   -0.0763    0.3212 O   0  0  0  0  0  0  0  0  0  0  0  0
    2.0443   -0.0996    0.1803 C   0  0  0  0  0  0  0  0  0  0  0  0
    2.8567    1.0491    0.7961 C   0  0  1  0  0  0  0  0  0  0  0  0
    2.6222    1.1024    1.8688 H   0  0  0  0  0  0  0  0  0  0  0  0
    4.2527    0.6686    0.7091 O   0  0  0  0  0  0  0  0  0  0  0  0
    4.8784    0.7826   -0.5737 C   0  0  1  0  0  0  0  0  0  0  0  0
    5.9394    0.5817   -0.3922 H   0  0  0  0  0  0  0  0  0  0  0  0
    4.3830   -0.2803   -1.4450 N   0  0  0  0  0  0  0  0  0  0  0  0
    4.9297   -0.6477   -2.6558 C   0  0  0  0  0  0  0  0  0  0  0  0
    6.3838   -0.0588   -3.2532 S   0  0  0  0  0  0  0  0  0  0  0  0
    4.1122   -1.5554   -3.3283 N   0  0  0  0  0  0  0  0  0  0  0  0
    4.5761   -2.0626   -4.4822 N   0  0  0  0  0  0  0  0  0  0  0  0
    3.8295   -2.8662   -5.1753 C   0  0  0  0  0  0  0  0  0  0  0  0
    4.4105   -3.3531   -6.4243 C   0  0  0  0  0  0  0  0  0  0  0  0
    5.5284   -4.1907   -6.3681 C   0  0  0  0  0  0  0  0  0  0  0  0
    6.2265   -4.4734   -7.5386 C   0  0  0  0  0  0  0  0  0  0  0  0
    5.7668   -3.9722   -8.7588 C   0  0  0  0  0  0  0  0  0  0  0  0
    4.6077   -3.1896   -8.8148 C   0  0  0  0  0  0  0  0  0  0  0  0
    3.9528   -2.8434   -7.6369 C   0  0  0  0  0  0  0  0  0  0  0  0
    2.8915   -1.9844   -7.6512 O   0  0  0  0  0  0  0  0  0  0  0  0
    4.7009    2.1920   -1.1955 C   0  0  1  0  0  0  0  0  0  0  0  0
    5.0609    2.2065   -2.2258 H   0  0  0  0  0  0  0  0  0  0  0  0
    3.2159    2.5927   -1.2082 C   0  0  2  0  0  0  0  0  0  0  0  0
    3.1546    3.6412   -1.5185 H   0  0  0  0  0  0  0  0  0  0  0  0
    2.5926    2.4468    0.1916 C   0  0  2  0  0  0  0  0  0  0  0  0
    1.5147    2.6301    0.1466 H   0  0  0  0  0  0  0  0  0  0  0  0
    3.1302    3.4397    1.0838 O   0  0  0  0  0  0  0  0  0  0  0  0
    2.4484    1.8628   -2.1763 O   0  0  0  0  0  0  0  0  0  0  0  0
    5.4755    3.1772   -0.4991 O   0  0  0  0  0  0  0  0  0  0  0  0
    0.3201   -0.6870   -0.3704 H   0  0  0  0  0  0  0  0  0  0  0  0
    2.1912   -0.1174   -0.8908 H   0  0  0  0  0  0  0  0  0  0  0  0
    2.4252   -1.0540    0.5654 H   0  0  0  0  0  0  0  0  0  0  0  0
    3.9499   -1.0565   -0.9668 H   0  0  0  0  0  0  0  0  0  0  0  0
    3.1770   -1.7953   -3.0169 H   0  0  0  0  0  0  0  0  0  0  0  0
    2.8154   -3.1807   -4.8988 H   0  0  0  0  0  0  0  0  0  0  0  0
    5.8718   -4.5885   -5.4161 H   0  0  0  0  0  0  0  0  0  0  0  0
    7.1351   -5.0697   -7.4989 H   0  0  0  0  0  0  0  0  0  0  0  0
    6.3202   -4.1878   -9.6697 H   0  0  0  0  0  0  0  0  0  0  0  0
    4.2436   -2.8509   -9.7794 H   0  0  0  0  0  0  0  0  0  0  0  0
    2.8287   -1.5764   -8.5313 H   0  0  0  0  0  0  0  0  0  0  0  0
    3.2432    4.2690    0.5844 H   0  0  0  0  0  0  0  0  0  0  0  0
    2.8866    1.0102   -2.3475 H   0  0  0  0  0  0  0  0  0  0  0  0
    6.3771    2.8237   -0.3930 H   0  0  0  0  0  0  0  0  0  0  0  0
  1  2  1  0  0  0  0
  1 30  1  0  0  0  0
  2  3  1  0  0  0  0
  2 31  1  0  0  0  0
  2 32  1  0  0  0  0
  3  4  1  1  0  0  0
  3  5  1  0  0  0  0
  3 25  1  0  0  0  0
  5  6  1  0  0  0  0
  6 21  1  0  0  0  0
  6  8  1  0  0  0  0
  6  7  1  1  0  0  0
  8  9  1  0  0  0  0
  8 33  1  0  0  0  0
  9 10  2  0  0  0  0
  9 11  1  0  0  0  0
 11 12  1  0  0  0  0
 11 34  1  0  0  0  0
 12 13  2  0  0  0  0
 13 14  1  0  0  0  0
 13 35  1  0  0  0  0
 14 15  2  0  0  0  0
 14 19  1  0  0  0  0
 15 16  1  0  0  0  0
 15 36  1  0  0  0  0
 16 17  2  0  0  0  0
 16 37  1  0  0  0  0
 17 18  1  0  0  0  0
 17 38  1  0  0  0  0
 18 19  2  0  0  0  0
 18 39  1  0  0  0  0
 19 20  1  0  0  0  0
 20 40  1  0  0  0  0
 21 22  1  6  0  0  0
 21 23  1  0  0  0  0
 21 29  1  0  0  0  0
 23 25  1  0  0  0  0
 23 28  1  0  0  0  0
 23 24  1  6  0  0  0
 25 26  1  6  0  0  0
 25 27  1  0  0  0  0
 27 41  1  0  0  0  0
 28 42  1  0  0  0  0
 29 43  1  0  0  0  0
M  END
$$$$
