26S
 OpenBabel04121316043D

 72 75  0  0  1  0  0  0  0  0999 V2000
    1.0322    0.1035    0.0653 C   0  0  0  0  0  0  0  0  0  0  0  0
    2.4540    0.0385    0.0557 O   0  0  0  0  0  0  0  0  0  0  0  0
    3.0099    1.1395   -0.5624 C   0  0  0  0  0  0  0  0  0  0  0  0
    2.5378    2.3546   -0.2928 N   0  0  0  0  0  0  0  0  0  0  0  0
    3.1735    3.3506   -0.9115 C   0  0  0  0  0  0  0  0  0  0  0  0
    2.6615    4.5928   -0.6064 O   0  0  0  0  0  0  0  0  0  0  0  0
    3.2794    5.6748   -1.2803 C   0  0  0  0  0  0  0  0  0  0  0  0
    4.2030    3.2149   -1.7751 N   0  0  0  0  0  0  0  0  0  0  0  0
    4.6696    1.9689   -2.0096 C   0  0  0  0  0  0  0  0  0  0  0  0
    4.0815    0.8935   -1.3803 C   0  0  0  0  0  0  0  0  0  0  0  0
    5.6652    1.7814   -2.9558 N   0  0  0  0  0  0  0  0  0  0  0  0
    6.2921    0.4704   -3.2680 C   0  0  0  0  0  0  0  0  0  0  0  0
    6.4165    0.2485   -4.7950 C   0  0  0  0  0  0  0  0  0  0  0  0
    7.0727    1.4168   -5.4522 N   0  0  0  0  0  0  0  0  0  0  0  0
    6.3170    2.7184   -5.1420 C   0  0  2  0  0  0  0  0  0  0  0  0
    6.8280    3.5319   -5.6596 H   0  0  0  0  0  0  0  0  0  0  0  0
    6.2672    2.9635   -3.6194 C   0  0  0  0  0  0  0  0  0  0  0  0
    4.8767    2.8374   -5.6907 C   0  0  0  0  0  0  0  0  0  0  0  0
    4.5093    3.7907   -6.3760 O   0  0  0  0  0  0  0  0  0  0  0  0
    4.0114    1.8458   -5.3051 N   0  0  0  0  0  0  0  0  0  0  0  0
    2.6322    1.7900   -5.6844 C   0  0  0  0  0  0  0  0  0  0  0  0
    1.9702    0.5305   -5.1776 C   0  0  0  0  0  0  0  0  0  0  0  0
    2.6534   -0.6736   -4.9335 C   0  0  0  0  0  0  0  0  0  0  0  0
    1.9686   -1.8524   -4.6518 C   0  0  0  0  0  0  0  0  0  0  0  0
    0.5897   -1.8257   -4.5098 C   0  0  0  0  0  0  0  0  0  0  0  0
   -0.0857   -0.6087   -4.6122 C   0  0  0  0  0  0  0  0  0  0  0  0
    0.5878    0.5443   -5.0059 C   0  0  0  0  0  0  0  0  0  0  0  0
    0.0057   -3.0410   -4.2890 O   0  0  0  0  0  0  0  0  0  0  0  0
   -1.4134   -3.0145   -4.2227 C   0  0  0  0  0  0  0  0  0  0  0  0
    8.7613    1.3669   -5.0737 S   0  0  0  0  0  0  0  0  0  0  0  0
    8.9742    1.6983   -3.6893 O   0  0  0  0  0  0  0  0  0  0  0  0
    9.2514    0.1002   -5.5942 O   0  0  0  0  0  0  0  0  0  0  0  0
    9.4462    2.6672   -6.0139 C   0  0  0  0  0  0  0  0  0  0  0  0
    9.2491    3.9902   -5.6067 C   0  0  0  0  0  0  0  0  0  0  0  0
    9.5776    5.0180   -6.4750 C   0  0  0  0  0  0  0  0  0  0  0  0
   10.2780    4.7261   -7.6482 C   0  0  0  0  0  0  0  0  0  0  0  0
   10.6659    3.3993   -7.9062 C   0  0  0  0  0  0  0  0  0  0  0  0
   10.1912    2.3585   -7.1352 C   0  0  0  0  0  0  0  0  0  0  0  0
   10.5588    5.8412   -8.6227 C   0  0  0  0  0  0  0  0  0  0  0  0
   11.3407    5.3755   -9.8405 C   0  0  0  0  0  0  0  0  0  0  0  0
    0.6657   -0.7879    0.5839 H   0  0  0  0  0  0  0  0  0  0  0  0
    0.6404    0.0788   -0.9579 H   0  0  0  0  0  0  0  0  0  0  0  0
    0.6581    0.9787    0.6051 H   0  0  0  0  0  0  0  0  0  0  0  0
    2.7781    6.5924   -0.9512 H   0  0  0  0  0  0  0  0  0  0  0  0
    3.1464    5.5989   -2.3640 H   0  0  0  0  0  0  0  0  0  0  0  0
    4.3368    5.7645   -1.0127 H   0  0  0  0  0  0  0  0  0  0  0  0
    4.3836   -0.1301   -1.5209 H   0  0  0  0  0  0  0  0  0  0  0  0
    5.7431   -0.3841   -2.8760 H   0  0  0  0  0  0  0  0  0  0  0  0
    7.2752    0.4204   -2.7952 H   0  0  0  0  0  0  0  0  0  0  0  0
    5.4613    0.0875   -5.2817 H   0  0  0  0  0  0  0  0  0  0  0  0
    6.9408   -0.6862   -5.0153 H   0  0  0  0  0  0  0  0  0  0  0  0
    5.7439    3.9064   -3.4218 H   0  0  0  0  0  0  0  0  0  0  0  0
    7.2723    3.1258   -3.2231 H   0  0  0  0  0  0  0  0  0  0  0  0
    4.2255    1.4208   -4.4140 H   0  0  0  0  0  0  0  0  0  0  0  0
    2.5616    1.8349   -6.7769 H   0  0  0  0  0  0  0  0  0  0  0  0
    2.1429    2.6753   -5.2637 H   0  0  0  0  0  0  0  0  0  0  0  0
    3.7283   -0.7445   -4.9786 H   0  0  0  0  0  0  0  0  0  0  0  0
    2.5140   -2.7892   -4.5602 H   0  0  0  0  0  0  0  0  0  0  0  0
   -1.1476   -0.5229   -4.4167 H   0  0  0  0  0  0  0  0  0  0  0  0
    0.0212    1.4547   -5.1865 H   0  0  0  0  0  0  0  0  0  0  0  0
   -1.7706   -4.0410   -4.1237 H   0  0  0  0  0  0  0  0  0  0  0  0
   -1.8494   -2.5933   -5.1367 H   0  0  0  0  0  0  0  0  0  0  0  0
   -1.7324   -2.4538   -3.3384 H   0  0  0  0  0  0  0  0  0  0  0  0
    8.7816    4.2236   -4.6550 H   0  0  0  0  0  0  0  0  0  0  0  0
    9.2740    6.0365   -6.2420 H   0  0  0  0  0  0  0  0  0  0  0  0
   11.3113    3.1381   -8.7379 H   0  0  0  0  0  0  0  0  0  0  0  0
   10.4006    1.3306   -7.4198 H   0  0  0  0  0  0  0  0  0  0  0  0
   11.1096    6.6378   -8.1106 H   0  0  0  0  0  0  0  0  0  0  0  0
    9.5991    6.2570   -8.9575 H   0  0  0  0  0  0  0  0  0  0  0  0
   12.3113    4.9677   -9.5347 H   0  0  0  0  0  0  0  0  0  0  0  0
   11.5182    6.1942  -10.5374 H   0  0  0  0  0  0  0  0  0  0  0  0
   10.7903    4.5899  -10.3737 H   0  0  0  0  0  0  0  0  0  0  0  0
  1  2  1  0  0  0  0
  1 41  1  0  0  0  0
  1 42  1  0  0  0  0
  1 43  1  0  0  0  0
  2  3  1  0  0  0  0
  3  4  2  0  0  0  0
  3 10  1  0  0  0  0
  4  5  1  0  0  0  0
  5  6  1  0  0  0  0
  5  8  2  0  0  0  0
  6  7  1  0  0  0  0
  7 44  1  0  0  0  0
  7 45  1  0  0  0  0
  7 46  1  0  0  0  0
  8  9  1  0  0  0  0
  9 10  2  0  0  0  0
  9 11  1  0  0  0  0
 10 47  1  0  0  0  0
 11 12  1  0  0  0  0
 11 17  1  0  0  0  0
 12 13  1  0  0  0  0
 12 48  1  0  0  0  0
 12 49  1  0  0  0  0
 13 14  1  0  0  0  0
 13 50  1  0  0  0  0
 13 51  1  0  0  0  0
 14 15  1  0  0  0  0
 14 30  1  0  0  0  0
 15 17  1  0  0  0  0
 15 18  1  0  0  0  0
 15 16  1  6  0  0  0
 17 52  1  0  0  0  0
 17 53  1  0  0  0  0
 18 19  2  0  0  0  0
 18 20  1  0  0  0  0
 20 21  1  0  0  0  0
 20 54  1  0  0  0  0
 21 22  1  0  0  0  0
 21 55  1  0  0  0  0
 21 56  1  0  0  0  0
 22 23  2  0  0  0  0
 22 27  1  0  0  0  0
 23 24  1  0  0  0  0
 23 57  1  0  0  0  0
 24 25  2  0  0  0  0
 24 58  1  0  0  0  0
 25 26  1  0  0  0  0
 25 28  1  0  0  0  0
 26 27  2  0  0  0  0
 26 59  1  0  0  0  0
 27 60  1  0  0  0  0
 28 29  1  0  0  0  0
 29 61  1  0  0  0  0
 29 62  1  0  0  0  0
 29 63  1  0  0  0  0
 30 31  2  0  0  0  0
 30 32  2  0  0  0  0
 30 33  1  0  0  0  0
 33 34  2  0  0  0  0
 33 38  1  0  0  0  0
 34 35  1  0  0  0  0
 34 64  1  0  0  0  0
 35 36  2  0  0  0  0
 35 65  1  0  0  0  0
 36 37  1  0  0  0  0
 36 39  1  0  0  0  0
 37 38  2  0  0  0  0
 37 66  1  0  0  0  0
 38 67  1  0  0  0  0
 39 40  1  0  0  0  0
 39 68  1  0  0  0  0
 39 69  1  0  0  0  0
 40 70  1  0  0  0  0
 40 71  1  0  0  0  0
 40 72  1  0  0  0  0
M  END
$$$$
