26U
 OpenBabel04121316043D

 53 54  0  0  1  0  0  0  0  0999 V2000
    0.9160    0.0695   -0.0393 C   0  0  0  0  0  0  0  0  0  0  0  0
    2.4449    0.0337   -0.0727 C   0  0  0  0  0  0  0  0  0  0  0  0
    2.9676   -0.8363   -1.2314 C   0  0  0  0  0  0  0  0  0  0  0  0
    2.5189   -2.3031   -1.1358 C   0  0  0  0  0  0  0  0  0  0  0  0
    2.9591   -3.1259   -2.3356 C   0  0  0  0  0  0  0  0  0  0  0  0
    3.5769   -2.6370   -3.2798 O   0  0  0  0  0  0  0  0  0  0  0  0
    2.4941   -4.4251   -2.3623 N   0  0  0  0  0  0  0  0  0  0  0  0
    2.4047   -5.3549   -1.2600 C   0  0  0  0  0  0  0  0  0  0  0  0
    2.7110   -6.6975   -1.9160 C   0  0  0  0  0  0  0  0  0  0  0  0
    2.2103   -6.5649   -3.3533 C   0  0  0  0  0  0  0  0  0  0  0  0
    2.0772   -5.0515   -3.6125 C   0  0  1  0  0  0  0  0  0  0  0  0
    2.7152   -4.7329   -4.4435 H   0  0  0  0  0  0  0  0  0  0  0  0
    0.6358   -4.5320   -3.9124 C   0  0  0  0  0  0  0  0  0  0  0  0
    0.3830   -3.3455   -4.1477 O   0  0  0  0  0  0  0  0  0  0  0  0
   -0.3664   -5.4559   -3.8122 N   0  0  0  0  0  0  0  0  0  0  0  0
   -1.7616   -5.1657   -4.0071 C   0  0  0  0  0  0  0  0  0  0  0  0
   -2.5861   -6.4147   -3.8010 C   0  0  0  0  0  0  0  0  0  0  0  0
   -3.9078   -6.2860   -3.3726 C   0  0  0  0  0  0  0  0  0  0  0  0
   -4.6379   -7.4115   -2.9875 C   0  0  0  0  0  0  0  0  0  0  0  0
   -4.0943   -8.6943   -3.1242 C   0  0  0  0  0  0  0  0  0  0  0  0
   -2.8329   -8.8314   -3.7104 C   0  0  0  0  0  0  0  0  0  0  0  0
   -2.0742   -7.7054   -4.0136 C   0  0  0  0  0  0  0  0  0  0  0  0
   -4.8152   -9.9087   -2.6330 C   0  0  0  0  0  0  0  0  0  0  0  0
   -5.9571   -9.8692   -2.0207 N   0  0  0  0  0  0  0  0  0  0  0  0
   -4.2843  -11.1477   -2.7875 N   0  0  0  0  0  0  0  0  0  0  0  0
    2.9783    1.4641   -0.1950 C   0  0  0  0  0  0  0  0  0  0  0  0
    0.4910   -0.9274    0.1040 H   0  0  0  0  0  0  0  0  0  0  0  0
    0.5162    0.4786   -0.9736 H   0  0  0  0  0  0  0  0  0  0  0  0
    0.5570    0.6890    0.7881 H   0  0  0  0  0  0  0  0  0  0  0  0
    2.8084   -0.3859    0.8737 H   0  0  0  0  0  0  0  0  0  0  0  0
    4.0646   -0.7968   -1.2503 H   0  0  0  0  0  0  0  0  0  0  0  0
    2.6308   -0.4055   -2.1844 H   0  0  0  0  0  0  0  0  0  0  0  0
    1.4238   -2.3486   -1.1428 H   0  0  0  0  0  0  0  0  0  0  0  0
    2.8782   -2.7465   -0.2035 H   0  0  0  0  0  0  0  0  0  0  0  0
    1.3784   -5.3277   -0.8799 H   0  0  0  0  0  0  0  0  0  0  0  0
    3.1016   -5.1173   -0.4520 H   0  0  0  0  0  0  0  0  0  0  0  0
    2.2323   -7.5306   -1.3905 H   0  0  0  0  0  0  0  0  0  0  0  0
    3.7893   -6.8905   -1.9391 H   0  0  0  0  0  0  0  0  0  0  0  0
    1.3089   -7.1679   -3.4504 H   0  0  0  0  0  0  0  0  0  0  0  0
    2.8984   -7.0205   -4.0724 H   0  0  0  0  0  0  0  0  0  0  0  0
   -0.1885   -6.3168   -3.3332 H   0  0  0  0  0  0  0  0  0  0  0  0
   -1.9088   -4.7638   -5.0120 H   0  0  0  0  0  0  0  0  0  0  0  0
   -2.0389   -4.4068   -3.2649 H   0  0  0  0  0  0  0  0  0  0  0  0
   -4.3689   -5.3029   -3.3025 H   0  0  0  0  0  0  0  0  0  0  0  0
   -5.6253   -7.2445   -2.5736 H   0  0  0  0  0  0  0  0  0  0  0  0
   -2.3981   -9.7997   -3.9296 H   0  0  0  0  0  0  0  0  0  0  0  0
   -1.0687   -7.8696   -4.3958 H   0  0  0  0  0  0  0  0  0  0  0  0
   -6.3154   -8.9215   -1.9145 H   0  0  0  0  0  0  0  0  0  0  0  0
   -3.3707  -11.3414   -3.1610 H   0  0  0  0  0  0  0  0  0  0  0  0
   -4.7997  -11.9149   -2.3773 H   0  0  0  0  0  0  0  0  0  0  0  0
    2.6346    1.9369   -1.1218 H   0  0  0  0  0  0  0  0  0  0  0  0
    4.0729    1.4797   -0.1917 H   0  0  0  0  0  0  0  0  0  0  0  0
    2.6323    2.0797    0.6430 H   0  0  0  0  0  0  0  0  0  0  0  0
  1  2  1  0  0  0  0
  1 27  1  0  0  0  0
  1 28  1  0  0  0  0
  1 29  1  0  0  0  0
  2  3  1  0  0  0  0
  2 26  1  0  0  0  0
  2 30  1  0  0  0  0
  3  4  1  0  0  0  0
  3 31  1  0  0  0  0
  3 32  1  0  0  0  0
  4  5  1  0  0  0  0
  4 33  1  0  0  0  0
  4 34  1  0  0  0  0
  5  6  2  0  0  0  0
  5  7  1  0  0  0  0
  7  8  1  0  0  0  0
  7 11  1  0  0  0  0
  8  9  1  0  0  0  0
  8 35  1  0  0  0  0
  8 36  1  0  0  0  0
  9 10  1  0  0  0  0
  9 37  1  0  0  0  0
  9 38  1  0  0  0  0
 10 11  1  0  0  0  0
 10 39  1  0  0  0  0
 10 40  1  0  0  0  0
 11 13  1  0  0  0  0
 11 12  1  6  0  0  0
 13 14  2  0  0  0  0
 13 15  1  0  0  0  0
 15 16  1  0  0  0  0
 15 41  1  0  0  0  0
 16 17  1  0  0  0  0
 16 42  1  0  0  0  0
 16 43  1  0  0  0  0
 17 18  2  0  0  0  0
 17 22  1  0  0  0  0
 18 19  1  0  0  0  0
 18 44  1  0  0  0  0
 19 20  2  0  0  0  0
 19 45  1  0  0  0  0
 20 21  1  0  0  0  0
 20 23  1  0  0  0  0
 21 22  2  0  0  0  0
 21 46  1  0  0  0  0
 22 47  1  0  0  0  0
 23 24  2  0  0  0  0
 23 25  1  0  0  0  0
 24 48  1  0  0  0  0
 25 49  1  0  0  0  0
 25 50  1  0  0  0  0
 26 51  1  0  0  0  0
 26 52  1  0  0  0  0
 26 53  1  0  0  0  0
M  END
$$$$
