279
 OpenBabel04121316043D

 50 52  0  0  0  0  0  0  0  0999 V2000
    1.0533   -0.0782    0.0177 C   0  0  0  0  0  0  0  0  0  0  0  0
    2.5721   -0.0456    0.0114 C   0  0  0  0  0  0  0  0  0  0  0  0
    3.1314   -1.3306   -0.3291 N   0  0  0  0  0  0  0  0  0  0  0  0
    4.4893   -1.5464   -0.4113 C   0  0  0  0  0  0  0  0  0  0  0  0
    5.3240   -0.6605   -0.2165 O   0  0  0  0  0  0  0  0  0  0  0  0
    4.8653   -2.9225   -0.7391 C   0  0  0  0  0  0  0  0  0  0  0  0
    5.9816   -3.3097   -1.4653 C   0  0  0  0  0  0  0  0  0  0  0  0
    6.0099   -4.6751   -1.5408 N   0  0  0  0  0  0  0  0  0  0  0  0
    4.9560   -5.1831   -0.8387 C   0  0  0  0  0  0  0  0  0  0  0  0
    4.2086   -4.1349   -0.3174 C   0  0  0  0  0  0  0  0  0  0  0  0
    3.0093   -4.1561    0.5688 C   0  0  0  0  0  0  0  0  0  0  0  0
    4.8532   -6.6102   -0.7506 C   0  0  0  0  0  0  0  0  0  0  0  0
    5.7454   -7.3181   -1.3801 N   0  0  0  0  0  0  0  0  0  0  0  0
    6.7365   -6.6935   -2.0895 C   0  0  0  0  0  0  0  0  0  0  0  0
    6.9263   -5.4159   -2.1918 N   0  0  0  0  0  0  0  0  0  0  0  0
    3.8431   -7.1893   -0.0156 N   0  0  0  0  0  0  0  0  0  0  0  0
    3.5725   -8.5570    0.0441 C   0  0  0  0  0  0  0  0  0  0  0  0
    4.5865   -9.4042    0.4759 C   0  0  0  0  0  0  0  0  0  0  0  0
    4.4680  -10.7795    0.3313 C   0  0  0  0  0  0  0  0  0  0  0  0
    3.2479  -11.3060   -0.1044 C   0  0  0  0  0  0  0  0  0  0  0  0
    2.1765  -10.4631   -0.4131 C   0  0  0  0  0  0  0  0  0  0  0  0
    2.3530   -9.0777   -0.4120 C   0  0  0  0  0  0  0  0  0  0  0  0
    1.2868   -8.1771   -0.9713 C   0  0  0  0  0  0  0  0  0  0  0  0
    5.6165  -11.6940    0.5812 C   0  0  0  0  0  0  0  0  0  0  0  0
    5.4798  -12.8966    0.3846 O   0  0  0  0  0  0  0  0  0  0  0  0
    6.7753  -11.0923    1.0049 N   0  0  0  0  0  0  0  0  0  0  0  0
    7.8915  -11.9203    1.2280 O   0  0  0  0  0  0  0  0  0  0  0  0
    8.9710  -11.1067    1.6714 C   0  0  0  0  0  0  0  0  0  0  0  0
    0.6526    0.9092    0.2656 H   0  0  0  0  0  0  0  0  0  0  0  0
    0.6727   -0.7977    0.7512 H   0  0  0  0  0  0  0  0  0  0  0  0
    0.6619   -0.3703   -0.9631 H   0  0  0  0  0  0  0  0  0  0  0  0
    2.9506    0.2348    0.9999 H   0  0  0  0  0  0  0  0  0  0  0  0
    2.9370    0.6820   -0.7187 H   0  0  0  0  0  0  0  0  0  0  0  0
    2.5103   -2.0262   -0.7123 H   0  0  0  0  0  0  0  0  0  0  0  0
    6.7589   -2.7226   -1.9370 H   0  0  0  0  0  0  0  0  0  0  0  0
    2.6691   -5.1281    0.8962 H   0  0  0  0  0  0  0  0  0  0  0  0
    2.1484   -3.7252    0.0541 H   0  0  0  0  0  0  0  0  0  0  0  0
    3.2165   -3.5935    1.4832 H   0  0  0  0  0  0  0  0  0  0  0  0
    7.4383   -7.3736   -2.6075 H   0  0  0  0  0  0  0  0  0  0  0  0
    3.0364   -6.6361    0.1854 H   0  0  0  0  0  0  0  0  0  0  0  0
    5.4648   -8.9238    0.8892 H   0  0  0  0  0  0  0  0  0  0  0  0
    3.1346  -12.3809   -0.2251 H   0  0  0  0  0  0  0  0  0  0  0  0
    1.2236  -10.8995   -0.7014 H   0  0  0  0  0  0  0  0  0  0  0  0
    0.4061   -8.7424   -1.2887 H   0  0  0  0  0  0  0  0  0  0  0  0
    1.6726   -7.6460   -1.8500 H   0  0  0  0  0  0  0  0  0  0  0  0
    0.9677   -7.4441   -0.2237 H   0  0  0  0  0  0  0  0  0  0  0  0
    6.9091  -10.0989    1.1147 H   0  0  0  0  0  0  0  0  0  0  0  0
    9.8325  -11.7489    1.8600 H   0  0  0  0  0  0  0  0  0  0  0  0
    8.6995  -10.5911    2.5990 H   0  0  0  0  0  0  0  0  0  0  0  0
    9.2329  -10.3731    0.9011 H   0  0  0  0  0  0  0  0  0  0  0  0
  1  2  1  0  0  0  0
  1 29  1  0  0  0  0
  1 30  1  0  0  0  0
  1 31  1  0  0  0  0
  2  3  1  0  0  0  0
  2 32  1  0  0  0  0
  2 33  1  0  0  0  0
  3  4  1  0  0  0  0
  3 34  1  0  0  0  0
  4  5  2  0  0  0  0
  4  6  1  0  0  0  0
  6  7  2  0  0  0  0
  6 10  1  0  0  0  0
  7  8  1  0  0  0  0
  7 35  1  0  0  0  0
  8  9  1  0  0  0  0
  8 15  1  0  0  0  0
  9 10  2  0  0  0  0
  9 12  1  0  0  0  0
 10 11  1  0  0  0  0
 11 36  1  0  0  0  0
 11 37  1  0  0  0  0
 11 38  1  0  0  0  0
 12 13  2  0  0  0  0
 12 16  1  0  0  0  0
 13 14  1  0  0  0  0
 14 15  2  0  0  0  0
 14 39  1  0  0  0  0
 16 17  1  0  0  0  0
 16 40  1  0  0  0  0
 17 18  2  0  0  0  0
 17 22  1  0  0  0  0
 18 19  1  0  0  0  0
 18 41  1  0  0  0  0
 19 20  2  0  0  0  0
 19 24  1  0  0  0  0
 20 21  1  0  0  0  0
 20 42  1  0  0  0  0
 21 22  2  0  0  0  0
 21 43  1  0  0  0  0
 22 23  1  0  0  0  0
 23 44  1  0  0  0  0
 23 45  1  0  0  0  0
 23 46  1  0  0  0  0
 24 25  2  0  0  0  0
 24 26  1  0  0  0  0
 26 27  1  0  0  0  0
 26 47  1  0  0  0  0
 27 28  1  0  0  0  0
 28 48  1  0  0  0  0
 28 49  1  0  0  0  0
 28 50  1  0  0  0  0
M  END
$$$$
