27U
 OpenBabel04121316043D

 54 56  0  0  1  0  0  0  0  0999 V2000
    4.8798    0.5839    1.4028 O   0  0  0  0  0  0  0  0  0  0  0  0
    4.4772   -0.4929    0.9921 C   0  0  0  0  0  0  0  0  0  0  0  0
    2.9394   -0.8601    1.0189 C   0  0  2  0  0  0  0  0  0  0  0  0
    2.4588   -0.2724    0.2318 H   0  0  0  0  0  0  0  0  0  0  0  0
    2.3860   -0.5138    2.4055 C   0  0  0  0  0  0  0  0  0  0  0  0
    2.7135   -1.7641    3.2190 C   0  0  0  0  0  0  0  0  0  0  0  0
    2.5127   -2.9019    2.2199 C   0  0  0  0  0  0  0  0  0  0  0  0
    2.5379   -2.2680    0.8978 N   0  0  0  0  0  0  0  0  0  0  0  0
    2.3187   -3.0060   -0.2618 C   0  0  0  0  0  0  0  0  0  0  0  0
    2.2112   -4.2258   -0.2155 O   0  0  0  0  0  0  0  0  0  0  0  0
    2.3825   -2.2620   -1.6117 C   0  0  0  0  0  0  0  0  0  0  0  0
    2.6260   -3.2408   -2.7812 C   0  0  0  0  0  0  0  0  0  0  0  0
    2.8524   -2.5306   -4.0980 C   0  0  0  0  0  0  0  0  0  0  0  0
    3.3438   -1.2181   -4.1725 C   0  0  0  0  0  0  0  0  0  0  0  0
    3.2158   -0.4828   -5.3429 C   0  0  0  0  0  0  0  0  0  0  0  0
    2.7726   -1.1090   -6.4992 C   0  0  0  0  0  0  0  0  0  0  0  0
    2.5017   -2.4765   -6.4895 C   0  0  0  0  0  0  0  0  0  0  0  0
    2.5046   -3.1801   -5.2862 C   0  0  0  0  0  0  0  0  0  0  0  0
    5.3863   -1.3241    0.3865 N   0  0  0  0  0  0  0  0  0  0  0  0
    5.0870   -2.6242   -0.0923 C   0  0  0  0  0  0  0  0  0  0  0  0
    6.1198   -3.3344   -0.8360 C   0  0  0  0  0  0  0  0  0  0  0  0
    6.8763   -4.1996   -0.0810 C   0  0  0  0  0  0  0  0  0  0  0  0
    8.0432   -4.6449   -0.6215 C   0  0  0  0  0  0  0  0  0  0  0  0
    8.3316   -4.3890   -1.9680 C   0  0  0  0  0  0  0  0  0  0  0  0
    7.3950   -3.7565   -2.7976 C   0  0  0  0  0  0  0  0  0  0  0  0
    6.3036   -3.1626   -2.2122 C   0  0  0  0  0  0  0  0  0  0  0  0
    9.6740   -4.7195   -2.4902 C   0  0  0  0  0  0  0  0  0  0  0  0
   10.6292   -5.1832   -1.7478 N   0  0  0  0  0  0  0  0  0  0  0  0
    9.9775   -4.5129   -3.7910 N   0  0  0  0  0  0  0  0  0  0  0  0
    1.2961   -0.4009    2.3530 H   0  0  0  0  0  0  0  0  0  0  0  0
    2.8027    0.3929    2.8512 H   0  0  0  0  0  0  0  0  0  0  0  0
    2.0786   -1.8733    4.1029 H   0  0  0  0  0  0  0  0  0  0  0  0
    3.7554   -1.7280    3.5643 H   0  0  0  0  0  0  0  0  0  0  0  0
    1.5554   -3.4109    2.3553 H   0  0  0  0  0  0  0  0  0  0  0  0
    3.3116   -3.6474    2.3130 H   0  0  0  0  0  0  0  0  0  0  0  0
    3.1802   -1.5145   -1.6125 H   0  0  0  0  0  0  0  0  0  0  0  0
    1.4903   -1.6571   -1.7582 H   0  0  0  0  0  0  0  0  0  0  0  0
    1.7298   -3.8688   -2.8651 H   0  0  0  0  0  0  0  0  0  0  0  0
    3.4636   -3.9314   -2.6049 H   0  0  0  0  0  0  0  0  0  0  0  0
    3.7848   -0.7112   -3.3204 H   0  0  0  0  0  0  0  0  0  0  0  0
    3.4453    0.5792   -5.3352 H   0  0  0  0  0  0  0  0  0  0  0  0
    2.6491   -0.5307   -7.4088 H   0  0  0  0  0  0  0  0  0  0  0  0
    2.2450   -2.9857   -7.4133 H   0  0  0  0  0  0  0  0  0  0  0  0
    2.1933   -4.2231   -5.2730 H   0  0  0  0  0  0  0  0  0  0  0  0
    6.3413   -0.9888    0.3461 H   0  0  0  0  0  0  0  0  0  0  0  0
    4.3927   -2.4820   -0.8666 H   0  0  0  0  0  0  0  0  0  0  0  0
    4.6920   -3.2519    0.7028 H   0  0  0  0  0  0  0  0  0  0  0  0
    6.5903   -4.4323    0.9406 H   0  0  0  0  0  0  0  0  0  0  0  0
    8.7099   -5.1389    0.0670 H   0  0  0  0  0  0  0  0  0  0  0  0
    7.5175   -3.6481   -3.8688 H   0  0  0  0  0  0  0  0  0  0  0  0
    5.6248   -2.5662   -2.8207 H   0  0  0  0  0  0  0  0  0  0  0  0
   10.3480   -5.2967   -0.7745 H   0  0  0  0  0  0  0  0  0  0  0  0
    9.3751   -4.0470   -4.4491 H   0  0  0  0  0  0  0  0  0  0  0  0
   10.9341   -4.6932   -4.0562 H   0  0  0  0  0  0  0  0  0  0  0  0
  1  2  2  0  0  0  0
  2 19  1  0  0  0  0
  3  5  1  0  0  0  0
  3  8  1  0  0  0  0
  3  4  1  6  0  0  0
  3  2  1  0  0  0  0
  5  6  1  0  0  0  0
  5 30  1  0  0  0  0
  5 31  1  0  0  0  0
  6  7  1  0  0  0  0
  6 32  1  0  0  0  0
  6 33  1  0  0  0  0
  7  8  1  0  0  0  0
  7 34  1  0  0  0  0
  7 35  1  0  0  0  0
  8  9  1  0  0  0  0
  9 10  2  0  0  0  0
  9 11  1  0  0  0  0
 11 12  1  0  0  0  0
 11 36  1  0  0  0  0
 11 37  1  0  0  0  0
 12 13  1  0  0  0  0
 12 38  1  0  0  0  0
 12 39  1  0  0  0  0
 13 14  2  0  0  0  0
 13 18  1  0  0  0  0
 14 15  1  0  0  0  0
 14 40  1  0  0  0  0
 15 16  2  0  0  0  0
 15 41  1  0  0  0  0
 16 17  1  0  0  0  0
 16 42  1  0  0  0  0
 17 18  2  0  0  0  0
 17 43  1  0  0  0  0
 18 44  1  0  0  0  0
 19 20  1  0  0  0  0
 19 45  1  0  0  0  0
 20 21  1  0  0  0  0
 20 46  1  0  0  0  0
 20 47  1  0  0  0  0
 21 22  2  0  0  0  0
 21 26  1  0  0  0  0
 22 23  1  0  0  0  0
 22 48  1  0  0  0  0
 23 24  2  0  0  0  0
 23 49  1  0  0  0  0
 24 25  1  0  0  0  0
 24 27  1  0  0  0  0
 25 26  2  0  0  0  0
 25 50  1  0  0  0  0
 26 51  1  0  0  0  0
 27 28  2  0  0  0  0
 27 29  1  0  0  0  0
 28 52  1  0  0  0  0
 29 53  1  0  0  0  0
 29 54  1  0  0  0  0
M  END
$$$$
