287
 OpenBabel04121316043D

 60 63  0  0  1  0  0  0  0  0999 V2000
    2.8806   -0.7200    2.0357 C   0  0  0  0  0  0  0  0  0  0  0  0
    3.5324   -1.5383    1.0749 O   0  0  0  0  0  0  0  0  0  0  0  0
    4.5490   -2.2721    1.7118 N   0  0  0  0  0  0  0  0  0  0  0  0
    5.3349   -3.0581    0.8962 C   0  0  0  0  0  0  0  0  0  0  0  0
    5.2419   -3.2194   -0.2978 O   0  0  0  0  0  0  0  0  0  0  0  0
    6.3446   -3.8125    1.6514 C   0  0  0  0  0  0  0  0  0  0  0  0
    7.7086   -3.7232    1.4364 C   0  0  0  0  0  0  0  0  0  0  0  0
    8.5773   -4.5129    2.1981 C   0  0  0  0  0  0  0  0  0  0  0  0
    8.0728   -5.4843    3.0764 C   0  0  0  0  0  0  0  0  0  0  0  0
    6.6728   -5.5302    3.2877 C   0  0  0  0  0  0  0  0  0  0  0  0
    5.8491   -4.6623    2.6044 C   0  0  0  0  0  0  0  0  0  0  0  0
    6.0832   -6.4279    4.1704 N   0  0  0  0  0  0  0  0  0  0  0  0
    4.7614   -6.7994    4.3080 C   0  0  0  0  0  0  0  0  0  0  0  0
    3.7820   -5.9934    4.0683 N   0  0  0  0  0  0  0  0  0  0  0  0
    2.4930   -6.4229    4.1859 C   0  0  0  0  0  0  0  0  0  0  0  0
    2.0825   -7.5908    4.5717 N   0  0  0  0  0  0  0  0  0  0  0  0
    3.0852   -8.4373    4.8667 N   0  0  0  0  0  0  0  0  0  0  0  0
    4.3872   -8.0986    4.7566 C   0  0  0  0  0  0  0  0  0  0  0  0
    5.1566   -9.1617    5.1137 C   0  0  0  0  0  0  0  0  0  0  0  0
    6.6059   -9.0958    5.0270 C   0  0  0  0  0  0  0  0  0  0  0  0
    4.2838  -10.2718    5.5119 C   0  0  0  0  0  0  0  0  0  0  0  0
    2.9997   -9.7359    5.3183 C   0  0  0  0  0  0  0  0  0  0  0  0
    4.5126  -11.6949    6.0124 C   0  0  0  0  0  0  0  0  0  0  0  0
    3.5515  -12.4317    6.2405 O   0  0  0  0  0  0  0  0  0  0  0  0
    5.7840  -12.2602    6.2600 N   0  0  0  0  0  0  0  0  0  0  0  0
    7.0751  -11.6656    5.9927 C   0  0  2  0  0  0  0  0  0  0  0  0
    6.5866  -10.9245    5.4839 H   0  0  0  0  0  0  0  0  0  0  0  0
    7.9308  -12.0643    4.8107 C   0  0  0  0  0  0  0  0  0  0  0  0
    8.6802  -11.1582    3.9919 C   0  0  0  0  0  0  0  0  0  0  0  0
    9.2139  -11.5679    2.7717 C   0  0  0  0  0  0  0  0  0  0  0  0
    9.1761  -12.9174    2.4616 C   0  0  0  0  0  0  0  0  0  0  0  0
    8.5766  -13.8245    3.3366 C   0  0  0  0  0  0  0  0  0  0  0  0
    7.8914  -13.3910    4.4559 C   0  0  0  0  0  0  0  0  0  0  0  0
    7.8097  -11.0466    7.1680 C   0  0  0  0  0  0  0  0  0  0  0  0
    9.0383   -6.4689    3.7007 C   0  0  0  0  0  0  0  0  0  0  0  0
    2.1211   -0.1290    1.5195 H   0  0  0  0  0  0  0  0  0  0  0  0
    3.5974   -0.0407    2.5082 H   0  0  0  0  0  0  0  0  0  0  0  0
    2.3930   -1.3413    2.7936 H   0  0  0  0  0  0  0  0  0  0  0  0
    4.6624   -2.2026    2.7156 H   0  0  0  0  0  0  0  0  0  0  0  0
    8.0869   -3.0373    0.6889 H   0  0  0  0  0  0  0  0  0  0  0  0
    9.6505   -4.3753    2.0888 H   0  0  0  0  0  0  0  0  0  0  0  0
    4.7841   -4.6548    2.7770 H   0  0  0  0  0  0  0  0  0  0  0  0
    6.7843   -6.9828    4.5801 H   0  0  0  0  0  0  0  0  0  0  0  0
    1.7624   -5.6483    3.9062 H   0  0  0  0  0  0  0  0  0  0  0  0
    7.3479   -8.3824    4.7407 H   0  0  0  0  0  0  0  0  0  0  0  0
    6.7912   -9.7764    4.1973 H   0  0  0  0  0  0  0  0  0  0  0  0
    6.9305   -9.2109    6.0556 H   0  0  0  0  0  0  0  0  0  0  0  0
    2.0221  -10.1771    5.4691 H   0  0  0  0  0  0  0  0  0  0  0  0
    5.7570  -13.2216    6.5675 H   0  0  0  0  0  0  0  0  0  0  0  0
    8.8134  -10.1014    4.2286 H   0  0  0  0  0  0  0  0  0  0  0  0
    9.6580  -10.8551    2.0762 H   0  0  0  0  0  0  0  0  0  0  0  0
    9.6192  -13.2761    1.5395 H   0  0  0  0  0  0  0  0  0  0  0  0
    8.6130  -14.8884    3.1500 H   0  0  0  0  0  0  0  0  0  0  0  0
    7.3099  -14.0775    5.0571 H   0  0  0  0  0  0  0  0  0  0  0  0
    8.5428  -10.2966    6.8323 H   0  0  0  0  0  0  0  0  0  0  0  0
    8.3561  -11.8083    7.7176 H   0  0  0  0  0  0  0  0  0  0  0  0
    7.1183  -10.5356    7.8502 H   0  0  0  0  0  0  0  0  0  0  0  0
   10.0820   -6.2421    3.4528 H   0  0  0  0  0  0  0  0  0  0  0  0
    8.8462   -7.4824    3.3256 H   0  0  0  0  0  0  0  0  0  0  0  0
    8.9561   -6.4702    4.7924 H   0  0  0  0  0  0  0  0  0  0  0  0
  1  2  1  0  0  0  0
  1 36  1  0  0  0  0
  1 37  1  0  0  0  0
  1 38  1  0  0  0  0
  2  3  1  0  0  0  0
  3  4  1  0  0  0  0
  3 39  1  0  0  0  0
  4  5  2  0  0  0  0
  4  6  1  0  0  0  0
  6  7  2  0  0  0  0
  6 11  1  0  0  0  0
  7  8  1  0  0  0  0
  7 40  1  0  0  0  0
  8  9  2  0  0  0  0
  8 41  1  0  0  0  0
  9 10  1  0  0  0  0
  9 35  1  0  0  0  0
 10 11  2  0  0  0  0
 10 12  1  0  0  0  0
 11 42  1  0  0  0  0
 12 13  1  0  0  0  0
 12 43  1  0  0  0  0
 13 14  2  0  0  0  0
 13 18  1  0  0  0  0
 14 15  1  0  0  0  0
 15 16  2  0  0  0  0
 15 44  1  0  0  0  0
 16 17  1  0  0  0  0
 17 18  1  0  0  0  0
 17 22  1  0  0  0  0
 18 19  2  0  0  0  0
 19 20  1  0  0  0  0
 19 21  1  0  0  0  0
 20 45  1  0  0  0  0
 20 46  1  0  0  0  0
 20 47  1  0  0  0  0
 21 22  2  0  0  0  0
 21 23  1  0  0  0  0
 22 48  1  0  0  0  0
 23 24  2  0  0  0  0
 23 25  1  0  0  0  0
 25 49  1  0  0  0  0
 26 28  1  0  0  0  0
 26 34  1  0  0  0  0
 26 27  1  6  0  0  0
 26 25  1  0  0  0  0
 28 29  2  0  0  0  0
 28 33  1  0  0  0  0
 29 30  1  0  0  0  0
 29 50  1  0  0  0  0
 30 31  2  0  0  0  0
 30 51  1  0  0  0  0
 31 32  1  0  0  0  0
 31 52  1  0  0  0  0
 32 33  2  0  0  0  0
 32 53  1  0  0  0  0
 33 54  1  0  0  0  0
 34 55  1  0  0  0  0
 34 56  1  0  0  0  0
 34 57  1  0  0  0  0
 35 58  1  0  0  0  0
 35 59  1  0  0  0  0
 35 60  1  0  0  0  0
M  END
$$$$
