29U
 OpenBabel04121316043D

 49 50  0  0  1  0  0  0  0  0999 V2000
    3.0175    0.4813   -3.8041 C   0  0  0  0  0  0  0  0  0  0  0  0
    2.7388   -0.3040   -2.5255 C   0  0  0  0  0  0  0  0  0  0  0  0
    3.0283    0.5611   -1.2910 C   0  0  2  0  0  0  0  0  0  0  0  0
    2.6247    0.1289   -0.3688 H   0  0  0  0  0  0  0  0  0  0  0  0
    2.4608    2.0116   -1.4497 C   0  0  0  0  0  0  0  0  0  0  0  0
    3.2299    2.9805   -1.5013 O   0  0  0  0  0  0  0  0  0  0  0  0
    1.0973    2.1886   -1.6101 N   0  0  0  0  0  0  0  0  0  0  0  0
    0.0197    1.2190   -1.6244 C   0  0  0  0  0  0  0  0  0  0  0  0
   -0.9829    1.8474   -2.5729 C   0  0  0  0  0  0  0  0  0  0  0  0
   -0.8885    3.3379   -2.2589 C   0  0  0  0  0  0  0  0  0  0  0  0
    0.5183    3.5316   -1.6605 C   0  0  1  0  0  0  0  0  0  0  0  0
    1.1388    4.2097   -2.2563 H   0  0  0  0  0  0  0  0  0  0  0  0
    0.3991    4.0561   -0.2126 C   0  0  0  0  0  0  0  0  0  0  0  0
    0.5062    3.3402    0.7741 O   0  0  0  0  0  0  0  0  0  0  0  0
    0.0758    5.3913   -0.1037 N   0  0  0  0  0  0  0  0  0  0  0  0
    0.0086    5.9713    1.2130 C   0  0  0  0  0  0  0  0  0  0  0  0
   -0.2774    7.4408    1.1649 C   0  0  0  0  0  0  0  0  0  0  0  0
    0.5289    8.3382    1.8710 C   0  0  0  0  0  0  0  0  0  0  0  0
    0.1533    9.6760    1.9900 C   0  0  0  0  0  0  0  0  0  0  0  0
   -0.9751   10.1555    1.3147 C   0  0  0  0  0  0  0  0  0  0  0  0
   -1.6939    9.2790    0.4905 C   0  0  0  0  0  0  0  0  0  0  0  0
   -1.3898    7.9216    0.4700 C   0  0  0  0  0  0  0  0  0  0  0  0
   -1.4500   11.5637    1.4915 C   0  0  0  0  0  0  0  0  0  0  0  0
   -0.9057   12.4133    2.3062 N   0  0  0  0  0  0  0  0  0  0  0  0
   -2.5198   12.0331    0.8003 N   0  0  0  0  0  0  0  0  0  0  0  0
    4.5153    0.5869   -1.1562 N   0  0  0  0  0  0  0  0  0  0  0  0
    2.7126   -0.0716   -4.6912 H   0  0  0  0  0  0  0  0  0  0  0  0
    4.0820    0.7137   -3.8834 H   0  0  0  0  0  0  0  0  0  0  0  0
    2.4755    1.4327   -3.8216 H   0  0  0  0  0  0  0  0  0  0  0  0
    3.3315   -1.2271   -2.5017 H   0  0  0  0  0  0  0  0  0  0  0  0
    1.7180   -0.6793   -2.5412 H   0  0  0  0  0  0  0  0  0  0  0  0
   -0.3800    1.1309   -0.6099 H   0  0  0  0  0  0  0  0  0  0  0  0
    0.2839    0.2303   -1.9594 H   0  0  0  0  0  0  0  0  0  0  0  0
   -1.9894    1.4407   -2.4456 H   0  0  0  0  0  0  0  0  0  0  0  0
   -0.6785    1.6717   -3.6139 H   0  0  0  0  0  0  0  0  0  0  0  0
   -1.6842    3.6154   -1.5585 H   0  0  0  0  0  0  0  0  0  0  0  0
   -1.0300    3.9329   -3.1679 H   0  0  0  0  0  0  0  0  0  0  0  0
    0.0324    5.9902   -0.9164 H   0  0  0  0  0  0  0  0  0  0  0  0
    0.9565    5.7722    1.7262 H   0  0  0  0  0  0  0  0  0  0  0  0
   -0.7830    5.4668    1.7812 H   0  0  0  0  0  0  0  0  0  0  0  0
    1.4384    7.9980    2.3633 H   0  0  0  0  0  0  0  0  0  0  0  0
    0.7596   10.3101    2.6268 H   0  0  0  0  0  0  0  0  0  0  0  0
   -2.5173    9.6146   -0.1279 H   0  0  0  0  0  0  0  0  0  0  0  0
   -2.0359    7.2398   -0.0791 H   0  0  0  0  0  0  0  0  0  0  0  0
   -0.1118   12.0248    2.8129 H   0  0  0  0  0  0  0  0  0  0  0  0
   -3.1331   11.4613    0.2445 H   0  0  0  0  0  0  0  0  0  0  0  0
   -2.8446   12.9566    1.0554 H   0  0  0  0  0  0  0  0  0  0  0  0
    4.7703    1.3005   -0.4725 H   0  0  0  0  0  0  0  0  0  0  0  0
    4.9102    0.9469   -2.0272 H   0  0  0  0  0  0  0  0  0  0  0  0
  1  2  1  0  0  0  0
  1 27  1  0  0  0  0
  1 28  1  0  0  0  0
  1 29  1  0  0  0  0
  2 30  1  0  0  0  0
  2 31  1  0  0  0  0
  3  5  1  0  0  0  0
  3 26  1  0  0  0  0
  3  4  1  1  0  0  0
  3  2  1  0  0  0  0
  5  6  2  0  0  0  0
  5  7  1  0  0  0  0
  7  8  1  0  0  0  0
  7 11  1  0  0  0  0
  8  9  1  0  0  0  0
  8 32  1  0  0  0  0
  8 33  1  0  0  0  0
  9 10  1  0  0  0  0
  9 34  1  0  0  0  0
  9 35  1  0  0  0  0
 10 11  1  0  0  0  0
 10 36  1  0  0  0  0
 10 37  1  0  0  0  0
 11 13  1  0  0  0  0
 11 12  1  6  0  0  0
 13 14  2  0  0  0  0
 13 15  1  0  0  0  0
 15 16  1  0  0  0  0
 15 38  1  0  0  0  0
 16 17  1  0  0  0  0
 16 39  1  0  0  0  0
 16 40  1  0  0  0  0
 17 18  2  0  0  0  0
 17 22  1  0  0  0  0
 18 19  1  0  0  0  0
 18 41  1  0  0  0  0
 19 20  2  0  0  0  0
 19 42  1  0  0  0  0
 20 21  1  0  0  0  0
 20 23  1  0  0  0  0
 21 22  2  0  0  0  0
 21 43  1  0  0  0  0
 22 44  1  0  0  0  0
 23 24  2  0  0  0  0
 23 25  1  0  0  0  0
 24 45  1  0  0  0  0
 25 46  1  0  0  0  0
 25 47  1  0  0  0  0
 26 48  1  0  0  0  0
 26 49  1  0  0  0  0
M  END
$$$$
