2A1
 OpenBabel04121316043D

 14 13  0  0  1  0  0  0  0  0999 V2000
    0.9121    0.0110    0.0403 C   0  0  0  0  0  0  0  0  0  0  0  0
    2.4406    0.0116    0.0703 C   0  0  1  0  0  0  0  0  0  0  0  0
    2.7918    0.7103   -0.6986 H   0  0  0  0  0  0  0  0  0  0  0  0
    2.9681    0.4847    1.4382 C   0  0  0  0  0  0  0  0  0  0  0  0
    2.5133    1.8006    1.7425 O   0  0  0  0  0  0  0  0  0  0  0  0
    2.9526   -1.3241   -0.2509 N   0  0  0  0  0  0  0  0  0  0  0  0
    0.5166    1.0135    0.2356 H   0  0  0  0  0  0  0  0  0  0  0  0
    0.4997   -0.6662    0.7963 H   0  0  0  0  0  0  0  0  0  0  0  0
    0.5372   -0.3035   -0.9397 H   0  0  0  0  0  0  0  0  0  0  0  0
    4.0635    0.4923    1.4543 H   0  0  0  0  0  0  0  0  0  0  0  0
    2.6252   -0.1802    2.2383 H   0  0  0  0  0  0  0  0  0  0  0  0
    2.8397    2.3873    1.0402 H   0  0  0  0  0  0  0  0  0  0  0  0
    2.5746   -1.6278   -1.1484 H   0  0  0  0  0  0  0  0  0  0  0  0
    2.6051   -1.9958    0.4347 H   0  0  0  0  0  0  0  0  0  0  0  0
  1  2  1  0  0  0  0
  1  7  1  0  0  0  0
  1  8  1  0  0  0  0
  1  9  1  0  0  0  0
  2  3  1  6  0  0  0
  2  4  1  0  0  0  0
  2  6  1  0  0  0  0
  4  5  1  0  0  0  0
  4 10  1  0  0  0  0
  4 11  1  0  0  0  0
  5 12  1  0  0  0  0
  6 13  1  0  0  0  0
  6 14  1  0  0  0  0
M  END
$$$$
