2A9
 OpenBabel04121316043D

 21 21  0  0  0  0  0  0  0  0999 V2000
    1.1051   -0.0262    0.0899 O   0  0  0  0  0  0  0  0  0  0  0  0
    2.5280   -0.0416    0.0690 C   0  0  0  0  0  0  0  0  0  0  0  0
    2.9727    1.1530   -0.7224 C   0  0  0  0  0  0  0  0  0  0  0  0
    2.7824    2.4354   -0.1985 C   0  0  0  0  0  0  0  0  0  0  0  0
    3.0216    3.5703   -0.9757 C   0  0  0  0  0  0  0  0  0  0  0  0
    3.3816    3.4286   -2.3168 C   0  0  0  0  0  0  0  0  0  0  0  0
    3.6216    2.1478   -2.8186 C   0  0  0  0  0  0  0  0  0  0  0  0
    3.4694    1.0132   -2.0247 C   0  0  0  0  0  0  0  0  0  0  0  0
    3.9604    1.9624   -4.1330 O   0  0  0  0  0  0  0  0  0  0  0  0
    3.4964    4.4617   -3.2148 O   0  0  0  0  0  0  0  0  0  0  0  0
    3.1652    5.7507   -2.7039 C   0  0  0  0  0  0  0  0  0  0  0  0
    0.8153   -0.8120    0.5789 H   0  0  0  0  0  0  0  0  0  0  0  0
    2.8671   -0.9781   -0.3828 H   0  0  0  0  0  0  0  0  0  0  0  0
    2.9009    0.0152    1.0964 H   0  0  0  0  0  0  0  0  0  0  0  0
    2.3931    2.5591    0.8108 H   0  0  0  0  0  0  0  0  0  0  0  0
    2.8706    4.5365   -0.5138 H   0  0  0  0  0  0  0  0  0  0  0  0
    3.6773    0.0358   -2.4443 H   0  0  0  0  0  0  0  0  0  0  0  0
    3.8644    2.8432   -4.5440 H   0  0  0  0  0  0  0  0  0  0  0  0
    3.2186    6.4710   -3.5242 H   0  0  0  0  0  0  0  0  0  0  0  0
    3.8895    6.0548   -1.9407 H   0  0  0  0  0  0  0  0  0  0  0  0
    2.1425    5.7770   -2.3082 H   0  0  0  0  0  0  0  0  0  0  0  0
  1  2  1  0  0  0  0
  1 12  1  0  0  0  0
  2  3  1  0  0  0  0
  2 13  1  0  0  0  0
  2 14  1  0  0  0  0
  3  4  2  0  0  0  0
  3  8  1  0  0  0  0
  4  5  1  0  0  0  0
  4 15  1  0  0  0  0
  5  6  2  0  0  0  0
  5 16  1  0  0  0  0
  6  7  1  0  0  0  0
  6 10  1  0  0  0  0
  7  8  2  0  0  0  0
  7  9  1  0  0  0  0
  8 17  1  0  0  0  0
  9 18  1  0  0  0  0
 10 11  1  0  0  0  0
 11 19  1  0  0  0  0
 11 20  1  0  0  0  0
 11 21  1  0  0  0  0
M  END
$$$$
