2AB
 OpenBabel04121316043D

 23 23  0  0  0  0  0  0  0  0999 V2000
    0.8879    0.1025   -0.0637 N   0  0  0  0  0  0  0  0  0  0  0  0
    2.3455    0.0842   -0.0448 C   0  0  0  0  0  0  0  0  0  0  0  0
    2.9501    1.3577    0.5716 C   0  0  0  0  0  0  0  0  0  0  0  0
    4.4654    1.3743    0.5471 C   0  0  0  0  0  0  0  0  0  0  0  0
    5.1521    2.5955    0.5471 C   0  0  0  0  0  0  0  0  0  0  0  0
    6.5384    2.6243    0.3555 C   0  0  0  0  0  0  0  0  0  0  0  0
    7.2720    1.4367    0.2474 C   0  0  0  0  0  0  0  0  0  0  0  0
    6.6049    0.2219    0.4115 C   0  0  0  0  0  0  0  0  0  0  0  0
    5.2173    0.1936    0.5299 C   0  0  0  0  0  0  0  0  0  0  0  0
    9.0282    1.5382   -0.2027 S   0  0  1  0  0  0  0  0  0  0  0  0
    9.6807    2.2445    0.9475 O   0  0  0  0  0  0  0  0  0  0  0  0
    9.3388   -0.0269   -0.0406 O   0  0  0  0  0  0  0  0  0  0  0  0
    0.5573   -0.7616   -0.4935 H   0  0  0  0  0  0  0  0  0  0  0  0
    0.5612    0.8611   -0.6592 H   0  0  0  0  0  0  0  0  0  0  0  0
    2.7183   -0.0480   -1.0686 H   0  0  0  0  0  0  0  0  0  0  0  0
    2.6481   -0.7961    0.5306 H   0  0  0  0  0  0  0  0  0  0  0  0
    2.6080    1.4803    1.6058 H   0  0  0  0  0  0  0  0  0  0  0  0
    2.5845    2.2217   -0.0012 H   0  0  0  0  0  0  0  0  0  0  0  0
    4.6125    3.5336    0.6627 H   0  0  0  0  0  0  0  0  0  0  0  0
    7.0434    3.5857    0.2755 H   0  0  0  0  0  0  0  0  0  0  0  0
    7.1342   -0.7240    0.4427 H   0  0  0  0  0  0  0  0  0  0  0  0
    4.7444   -0.7826    0.5868 H   0  0  0  0  0  0  0  0  0  0  0  0
    9.0598   -0.4987   -0.8575 H   0  0  0  0  0  0  0  0  0  0  0  0
  1  2  1  0  0  0  0
  1 13  1  0  0  0  0
  1 14  1  0  0  0  0
  2  3  1  0  0  0  0
  2 15  1  0  0  0  0
  2 16  1  0  0  0  0
  3  4  1  0  0  0  0
  3 17  1  0  0  0  0
  3 18  1  0  0  0  0
  4  5  2  0  0  0  0
  4  9  1  0  0  0  0
  5  6  1  0  0  0  0
  5 19  1  0  0  0  0
  6  7  2  0  0  0  0
  6 20  1  0  0  0  0
  7  8  1  0  0  0  0
  8  9  2  0  0  0  0
  8 21  1  0  0  0  0
  9 22  1  0  0  0  0
 10  7  1  1  0  0  0
 10 11  2  0  0  0  0
 10 12  1  0  0  0  0
 12 23  1  0  0  0  0
M  END
$$$$
