2AD
 OpenBabel04121316043D

 33 35  0  0  1  0  0  0  0  0999 V2000
    0.9708    0.1641   -0.0763 O   0  0  0  0  0  0  0  0  0  0  0  0
    2.3987    0.1076   -0.1015 C   0  0  0  0  0  0  0  0  0  0  0  0
    2.9099    0.3030   -1.5384 C   0  0  1  0  0  0  0  0  0  0  0  0
    2.0792    0.1967   -2.2467 H   0  0  0  0  0  0  0  0  0  0  0  0
    3.4793    1.6230   -1.7255 O   0  0  0  0  0  0  0  0  0  0  0  0
    4.3862    1.5211   -2.8429 C   0  0  2  0  0  0  0  0  0  0  0  0
    3.8170    1.7522   -3.7534 H   0  0  0  0  0  0  0  0  0  0  0  0
    4.9081    0.0512   -2.8806 C   0  0  1  0  0  0  0  0  0  0  0  0
    5.9113   -0.0630   -2.4837 H   0  0  0  0  0  0  0  0  0  0  0  0
    4.0256   -0.6784   -1.8722 C   0  0  2  0  0  0  0  0  0  0  0  0
    4.6160   -0.9102   -0.9760 H   0  0  0  0  0  0  0  0  0  0  0  0
    3.5455   -1.9131   -2.3886 O   0  0  0  0  0  0  0  0  0  0  0  0
    5.0813   -0.5791   -4.1990 N   0  0  0  0  0  0  0  0  0  0  0  0
    5.4545    2.5031   -2.7139 N   0  0  0  0  0  0  0  0  0  0  0  0
    5.7178    3.5778   -3.5264 C   0  0  0  0  0  0  0  0  0  0  0  0
    6.9884    3.9426   -3.4535 N   0  0  0  0  0  0  0  0  0  0  0  0
    7.5596    3.0776   -2.5402 C   0  0  0  0  0  0  0  0  0  0  0  0
    6.5857    2.2687   -1.9792 C   0  0  0  0  0  0  0  0  0  0  0  0
    6.7500    1.3083   -1.0634 N   0  0  0  0  0  0  0  0  0  0  0  0
    8.0457    1.0725   -0.8269 C   0  0  0  0  0  0  0  0  0  0  0  0
    9.0989    1.7753   -1.2813 N   0  0  0  0  0  0  0  0  0  0  0  0
    8.8737    2.8238   -2.1111 C   0  0  0  0  0  0  0  0  0  0  0  0
    9.9768    3.5361   -2.5453 N   0  0  0  0  0  0  0  0  0  0  0  0
    0.6943   -0.0651    0.8283 H   0  0  0  0  0  0  0  0  0  0  0  0
    2.6831   -0.8734    0.2949 H   0  0  0  0  0  0  0  0  0  0  0  0
    2.7718    0.8855    0.5724 H   0  0  0  0  0  0  0  0  0  0  0  0
    4.3147   -2.3114   -2.8444 H   0  0  0  0  0  0  0  0  0  0  0  0
    5.7424   -0.0148   -4.7396 H   0  0  0  0  0  0  0  0  0  0  0  0
    4.1999   -0.5886   -4.7061 H   0  0  0  0  0  0  0  0  0  0  0  0
    4.9819    4.0370   -4.1767 H   0  0  0  0  0  0  0  0  0  0  0  0
    8.2572    0.1843   -0.2424 H   0  0  0  0  0  0  0  0  0  0  0  0
   10.8077    3.4016   -1.9861 H   0  0  0  0  0  0  0  0  0  0  0  0
    9.7947    4.4283   -2.9823 H   0  0  0  0  0  0  0  0  0  0  0  0
  1  2  1  0  0  0  0
  1 24  1  0  0  0  0
  2  3  1  0  0  0  0
  2 25  1  0  0  0  0
  2 26  1  0  0  0  0
  3  4  1  6  0  0  0
  3  5  1  0  0  0  0
  3 10  1  0  0  0  0
  5  6  1  0  0  0  0
  6  8  1  0  0  0  0
  6 14  1  0  0  0  0
  6  7  1  6  0  0  0
  8  9  1  1  0  0  0
  8 10  1  0  0  0  0
  8 13  1  0  0  0  0
 10 11  1  1  0  0  0
 10 12  1  0  0  0  0
 12 27  1  0  0  0  0
 13 28  1  0  0  0  0
 13 29  1  0  0  0  0
 14 15  1  0  0  0  0
 14 18  1  0  0  0  0
 15 16  2  0  0  0  0
 15 30  1  0  0  0  0
 16 17  1  0  0  0  0
 17 18  2  0  0  0  0
 17 22  1  0  0  0  0
 18 19  1  0  0  0  0
 19 20  2  0  0  0  0
 20 21  1  0  0  0  0
 20 31  1  0  0  0  0
 21 22  2  0  0  0  0
 22 23  1  0  0  0  0
 23 32  1  0  0  0  0
 23 33  1  0  0  0  0
M  END
$$$$
