2AH
 OpenBabel04121316043D

 95 99  0  0  1  0  0  0  0  0999 V2000
   11.3910    3.3129   -7.9590 C   0  0  0  0  0  0  0  0  0  0  0  0
   10.7067    2.7310   -6.9140 O   0  0  0  0  0  0  0  0  0  0  0  0
   11.4887    3.1773   -5.9018 C   0  0  0  0  0  0  0  0  0  0  0  0
   12.4260    3.9505   -5.9493 O   0  0  0  0  0  0  0  0  0  0  0  0
   11.0408    2.5350   -4.8710 N   0  0  0  0  0  0  0  0  0  0  0  0
   10.5781    2.6440   -2.7862 C   0  0  1  0  0  0  0  0  0  0  0  0
   11.3809    2.2815   -2.1381 H   0  0  0  0  0  0  0  0  0  0  0  0
   10.2523    4.5512   -2.4471 C   0  0  0  0  0  0  0  0  0  0  0  0
    8.4438    4.5028   -2.4811 C   0  0  0  0  0  0  0  0  0  0  0  0
   10.4784    4.6960   -0.8043 C   0  0  0  0  0  0  0  0  0  0  0  0
   11.2356    5.5882   -4.0897 C   0  0  0  0  0  0  0  0  0  0  0  0
    9.6044    2.1948   -1.7817 C   0  0  0  0  0  0  0  0  0  0  0  0
    8.4991    1.9297   -2.2383 O   0  0  0  0  0  0  0  0  0  0  0  0
    9.9187    2.0431   -0.4431 N   0  0  0  0  0  0  0  0  0  0  0  0
    8.9691    1.4188    0.3613 N   0  0  0  0  0  0  0  0  0  0  0  0
    8.8941    0.0117   -0.0192 C   0  0  0  0  0  0  0  0  0  0  0  0
    8.3409   -0.4236   -1.4081 C   0  0  2  0  0  0  0  0  0  0  0  0
    9.3245   -0.0615   -2.4707 C   0  0  0  0  0  0  0  0  0  0  0  0
   10.4815   -0.0587   -2.0319 O   0  0  0  0  0  0  0  0  0  0  0  0
    8.7934    0.5546   -3.6998 N   0  0  0  0  0  0  0  0  0  0  0  0
    9.4540    1.8454   -4.2581 C   0  0  2  0  0  0  0  0  0  0  0  0
    8.8194    2.0195   -5.1633 H   0  0  0  0  0  0  0  0  0  0  0  0
   11.3202    0.9334   -4.0541 C   0  0  2  0  0  0  0  0  0  0  0  0
   11.6290    0.7367   -5.0962 H   0  0  0  0  0  0  0  0  0  0  0  0
   11.7366   -0.3435   -3.6959 O   0  0  0  0  0  0  0  0  0  0  0  0
   12.6363    2.2587   -3.5852 C   0  0  0  0  0  0  0  0  0  0  0  0
   11.8290    3.8449   -3.4815 C   0  0  0  0  0  0  0  0  0  0  0  0
    9.9641    3.8740   -4.2133 C   0  0  0  0  0  0  0  0  0  0  0  0
    9.1541    5.4722   -4.1820 C   0  0  0  0  0  0  0  0  0  0  0  0
    9.8147    6.6458   -2.9827 C   0  0  0  0  0  0  0  0  0  0  0  0
   11.4160    6.4718   -2.1890 C   0  0  0  0  0  0  0  0  0  0  0  0
   12.4407    5.0705   -2.4170 C   0  0  0  0  0  0  0  0  0  0  0  0
    6.8437   -0.0054   -1.5252 C   0  0  0  0  0  0  0  0  0  0  0  0
    6.2729    1.3897   -1.1208 C   0  0  0  0  0  0  0  0  0  0  0  0
    5.0011    1.7100   -0.8255 C   0  0  0  0  0  0  0  0  0  0  0  0
    4.5821    3.1064   -0.7949 C   0  0  0  0  0  0  0  0  0  0  0  0
    5.4278    4.2091   -0.8823 C   0  0  0  0  0  0  0  0  0  0  0  0
    6.6557    3.8933   -0.5619 C   0  0  0  0  0  0  0  0  0  0  0  0
    6.9333    2.5539   -0.7778 C   0  0  0  0  0  0  0  0  0  0  0  0
    8.5328   -1.8633   -1.5684 O   0  0  0  0  0  0  0  0  0  0  0  0
    9.0792    1.8300    1.7474 C   0  0  0  0  0  0  0  0  0  0  0  0
    8.0878    1.1919    2.6631 C   0  0  0  0  0  0  0  0  0  0  0  0
    7.4118    1.9328    3.6086 C   0  0  0  0  0  0  0  0  0  0  0  0
    6.7243    1.2413    4.5907 C   0  0  0  0  0  0  0  0  0  0  0  0
    6.4451   -0.1388    4.4929 C   0  0  0  0  0  0  0  0  0  0  0  0
    6.9215   -0.8115    3.3916 C   0  0  0  0  0  0  0  0  0  0  0  0
    7.8937   -0.1908    2.6586 C   0  0  0  0  0  0  0  0  0  0  0  0
    5.7802   -0.8717    5.5660 C   0  0  0  0  0  0  0  0  0  0  0  0
    5.3458   -0.2109    6.7052 C   0  0  0  0  0  0  0  0  0  0  0  0
    4.9915   -0.9412    7.8174 C   0  0  0  0  0  0  0  0  0  0  0  0
    4.9037   -2.3148    7.7100 C   0  0  0  0  0  0  0  0  0  0  0  0
    5.1774   -2.8969    6.4862 C   0  0  0  0  0  0  0  0  0  0  0  0
    5.6827   -2.2195    5.4382 N   0  0  0  0  0  0  0  0  0  0  0  0
   10.9942    2.9421   -8.8801 H   0  0  0  0  0  0  0  0  0  0  0  0
   12.4354    2.9799   -7.8454 H   0  0  0  0  0  0  0  0  0  0  0  0
   11.2776    4.4004   -7.8412 H   0  0  0  0  0  0  0  0  0  0  0  0
   10.5259    1.8813   -5.5348 H   0  0  0  0  0  0  0  0  0  0  0  0
    7.9037    3.6723   -2.2246 H   0  0  0  0  0  0  0  0  0  0  0  0
    8.0471    4.0779   -3.4439 H   0  0  0  0  0  0  0  0  0  0  0  0
    7.9483    5.4548   -2.2773 H   0  0  0  0  0  0  0  0  0  0  0  0
    9.6769    4.2342   -0.2315 H   0  0  0  0  0  0  0  0  0  0  0  0
   10.3734    5.7083   -0.4238 H   0  0  0  0  0  0  0  0  0  0  0  0
   11.4351    4.2581   -0.4758 H   0  0  0  0  0  0  0  0  0  0  0  0
   10.9331    5.3544   -5.1291 H   0  0  0  0  0  0  0  0  0  0  0  0
   12.3648    5.4456   -4.3064 H   0  0  0  0  0  0  0  0  0  0  0  0
   11.3598    6.6878   -4.1906 H   0  0  0  0  0  0  0  0  0  0  0  0
   10.6337    2.5896    0.0087 H   0  0  0  0  0  0  0  0  0  0  0  0
    8.0922   -0.4577    0.5051 H   0  0  0  0  0  0  0  0  0  0  0  0
    9.8660   -0.4041    0.2611 H   0  0  0  0  0  0  0  0  0  0  0  0
    7.8129    0.7842   -3.6049 H   0  0  0  0  0  0  0  0  0  0  0  0
   10.9470   -0.8633   -3.8777 H   0  0  0  0  0  0  0  0  0  0  0  0
   13.3247    2.4790   -4.3904 H   0  0  0  0  0  0  0  0  0  0  0  0
   13.0960    2.0380   -2.6277 H   0  0  0  0  0  0  0  0  0  0  0  0
    8.0773    5.5896   -4.4146 H   0  0  0  0  0  0  0  0  0  0  0  0
    9.1130    7.2797   -2.4363 H   0  0  0  0  0  0  0  0  0  0  0  0
   11.7986    7.3283   -1.6476 H   0  0  0  0  0  0  0  0  0  0  0  0
   13.4890    5.0336   -2.1432 H   0  0  0  0  0  0  0  0  0  0  0  0
    6.3323   -0.7417   -0.9012 H   0  0  0  0  0  0  0  0  0  0  0  0
    6.5632   -0.2664   -2.5586 H   0  0  0  0  0  0  0  0  0  0  0  0
    4.3623    0.9097   -0.4936 H   0  0  0  0  0  0  0  0  0  0  0  0
    3.5609    3.3457   -0.6071 H   0  0  0  0  0  0  0  0  0  0  0  0
    5.2445    5.2617   -0.9970 H   0  0  0  0  0  0  0  0  0  0  0  0
    7.5069    4.5759   -0.4645 H   0  0  0  0  0  0  0  0  0  0  0  0
    7.9559    2.6887   -0.7325 H   0  0  0  0  0  0  0  0  0  0  0  0
    8.5361   -2.0238   -2.5323 H   0  0  0  0  0  0  0  0  0  0  0  0
    8.9539    2.9293    1.8149 H   0  0  0  0  0  0  0  0  0  0  0  0
   10.0937    1.6084    2.0716 H   0  0  0  0  0  0  0  0  0  0  0  0
    7.4762    3.0146    3.6558 H   0  0  0  0  0  0  0  0  0  0  0  0
    6.4255    1.8123    5.4577 H   0  0  0  0  0  0  0  0  0  0  0  0
    6.6828   -1.8466    3.1689 H   0  0  0  0  0  0  0  0  0  0  0  0
    8.5108   -0.8678    2.0888 H   0  0  0  0  0  0  0  0  0  0  0  0
    5.2955    0.8665    6.7520 H   0  0  0  0  0  0  0  0  0  0  0  0
    4.7665   -0.4279    8.7430 H   0  0  0  0  0  0  0  0  0  0  0  0
    4.5857   -2.9042    8.5571 H   0  0  0  0  0  0  0  0  0  0  0  0
    4.9654   -3.9456    6.3088 H   0  0  0  0  0  0  0  0  0  0  0  0
  1  2  1  0  0  0  0
  1 54  1  0  0  0  0
  1 55  1  0  0  0  0
  1 56  1  0  0  0  0
  2  3  1  0  0  0  0
  3  4  2  0  0  0  0
  3  5  1  0  0  0  0
  5  6  1  0  0  0  0
  5 57  1  0  0  0  0
  6  7  1  1  0  0  0
  6  8  1  0  0  0  0
  6 12  1  0  0  0  0
  8  9  1  0  0  0  0
  8 10  1  0  0  0  0
  8 11  1  0  0  0  0
  9 58  1  0  0  0  0
  9 59  1  0  0  0  0
  9 60  1  0  0  0  0
 10 61  1  0  0  0  0
 10 62  1  0  0  0  0
 10 63  1  0  0  0  0
 11 64  1  0  0  0  0
 11 65  1  0  0  0  0
 11 66  1  0  0  0  0
 12 13  2  0  0  0  0
 12 14  1  0  0  0  0
 14 15  1  0  0  0  0
 14 67  1  0  0  0  0
 15 16  1  0  0  0  0
 15 41  1  0  0  0  0
 16 68  1  0  0  0  0
 16 69  1  0  0  0  0
 17 33  1  6  0  0  0
 17 40  1  0  0  0  0
 17 18  1  0  0  0  0
 17 16  1  0  0  0  0
 18 19  2  0  0  0  0
 18 20  1  0  0  0  0
 20 21  1  0  0  0  0
 20 70  1  0  0  0  0
 21 22  1  6  0  0  0
 21 23  1  0  0  0  0
 21 28  1  0  0  0  0
 23 24  1  6  0  0  0
 23 25  1  0  0  0  0
 23 26  1  0  0  0  0
 25 71  1  0  0  0  0
 26 27  1  0  0  0  0
 26 72  1  0  0  0  0
 26 73  1  0  0  0  0
 27 28  2  0  0  0  0
 27 32  1  0  0  0  0
 28 29  1  0  0  0  0
 29 30  2  0  0  0  0
 29 74  1  0  0  0  0
 30 31  1  0  0  0  0
 30 75  1  0  0  0  0
 31 32  2  0  0  0  0
 31 76  1  0  0  0  0
 32 77  1  0  0  0  0
 33 34  1  0  0  0  0
 33 78  1  0  0  0  0
 33 79  1  0  0  0  0
 34 35  2  0  0  0  0
 34 39  1  0  0  0  0
 35 36  1  0  0  0  0
 35 80  1  0  0  0  0
 36 37  2  0  0  0  0
 36 81  1  0  0  0  0
 37 38  1  0  0  0  0
 37 82  1  0  0  0  0
 38 39  2  0  0  0  0
 38 83  1  0  0  0  0
 39 84  1  0  0  0  0
 40 85  1  0  0  0  0
 41 42  1  0  0  0  0
 41 86  1  0  0  0  0
 41 87  1  0  0  0  0
 42 43  2  0  0  0  0
 42 47  1  0  0  0  0
 43 44  1  0  0  0  0
 43 88  1  0  0  0  0
 44 45  2  0  0  0  0
 44 89  1  0  0  0  0
 45 46  1  0  0  0  0
 45 48  1  0  0  0  0
 46 47  2  0  0  0  0
 46 90  1  0  0  0  0
 47 91  1  0  0  0  0
 48 49  2  0  0  0  0
 48 53  1  0  0  0  0
 49 50  1  0  0  0  0
 49 92  1  0  0  0  0
 50 51  2  0  0  0  0
 50 93  1  0  0  0  0
 51 52  1  0  0  0  0
 51 94  1  0  0  0  0
 52 53  2  0  0  0  0
 52 95  1  0  0  0  0
M  END
$$$$
