2AL
 OpenBabel04121316043D

 15 15  0  0  0  0  0  0  0  0999 V2000
    1.0592    0.0435   -0.0351 N   0  0  0  0  0  0  0  0  0  0  0  0
    2.4053   -0.1038   -0.0501 C   0  0  0  0  0  0  0  0  0  0  0  0
    2.8526   -1.2111   -0.3177 O   0  0  0  0  0  0  0  0  0  0  0  0
    3.1273    1.0224    0.2286 N   0  0  0  0  0  0  0  0  0  0  0  0
    4.4975    1.0139    0.2073 C   0  0  0  0  0  0  0  0  0  0  0  0
    5.2855    0.0052    0.0551 N   0  0  0  0  0  0  0  0  0  0  0  0
    6.5580    0.5179    0.0010 C   0  0  0  0  0  0  0  0  0  0  0  0
    7.5852   -0.1293    0.0853 O   0  0  0  0  0  0  0  0  0  0  0  0
    6.5291    1.8716   -0.0817 N   0  0  0  0  0  0  0  0  0  0  0  0
    5.3109    2.2787    0.3056 C   0  0  0  0  0  0  0  0  0  0  0  0
    4.9225    3.3381    0.7501 O   0  0  0  0  0  0  0  0  0  0  0  0
    0.5465   -0.8101   -0.2306 H   0  0  0  0  0  0  0  0  0  0  0  0
    0.5377    0.8796    0.1640 H   0  0  0  0  0  0  0  0  0  0  0  0
    2.6443    1.8987    0.3639 H   0  0  0  0  0  0  0  0  0  0  0  0
    7.3747    2.4132   -0.0499 H   0  0  0  0  0  0  0  0  0  0  0  0
  1  2  1  0  0  0  0
  1 12  1  0  0  0  0
  1 13  1  0  0  0  0
  2  3  2  0  0  0  0
  2  4  1  0  0  0  0
  4  5  1  0  0  0  0
  4 14  1  0  0  0  0
  5  6  2  0  0  0  0
  5 10  1  0  0  0  0
  6  7  1  0  0  0  0
  7  8  2  0  0  0  0
  7  9  1  0  0  0  0
  9 10  1  0  0  0  0
  9 15  1  0  0  0  0
 10 11  2  0  0  0  0
M  END
$$$$
