2AP
 OpenBabel04121316043D

 14 14  0  0  0  0  0  0  0  0999 V2000
    0.9744   -0.1120    0.1690 N   0  0  0  0  0  0  0  0  0  0  0  0
    2.3440   -0.0481    0.0090 C   0  0  0  0  0  0  0  0  0  0  0  0
    3.0245    1.1683    0.0196 C   0  0  0  0  0  0  0  0  0  0  0  0
    4.4038    1.1899   -0.1813 C   0  0  0  0  0  0  0  0  0  0  0  0
    5.0993   -0.0080   -0.2688 C   0  0  0  0  0  0  0  0  0  0  0  0
    4.3991   -1.1978   -0.1489 C   0  0  0  0  0  0  0  0  0  0  0  0
    3.0572   -1.1799   -0.0521 N   0  3  0  0  0  0  0  0  0  0  0  0
    2.5553   -2.0594    0.0008 H   0  0  0  0  0  0  0  0  0  0  0  0
    0.4491    0.7392   -0.0222 H   0  0  0  0  0  0  0  0  0  0  0  0
    0.4491   -0.9586   -0.0053 H   0  0  0  0  0  0  0  0  0  0  0  0
    2.4874    2.1041    0.1518 H   0  0  0  0  0  0  0  0  0  0  0  0
    4.9294    2.1405   -0.2599 H   0  0  0  0  0  0  0  0  0  0  0  0
    6.1787   -0.0093   -0.4122 H   0  0  0  0  0  0  0  0  0  0  0  0
    4.8803   -2.1695   -0.1274 H   0  0  0  0  0  0  0  0  0  0  0  0
  1  2  1  0  0  0  0
  1  9  1  0  0  0  0
  1 10  1  0  0  0  0
  2  3  2  0  0  0  0
  2  7  1  0  0  0  0
  3  4  1  0  0  0  0
  3 11  1  0  0  0  0
  4  5  2  0  0  0  0
  4 12  1  0  0  0  0
  5  6  1  0  0  0  0
  5 13  1  0  0  0  0
  6  7  2  0  0  0  0
  6 14  1  0  0  0  0
  7  8  1  0  0  0  0
M  CHG  1   7   1
M  END
$$$$
