2AQ
 OpenBabel04121316043D

 19 20  0  0  0  0  0  0  0  0999 V2000
    1.0533    0.1052   -0.0593 N   0  0  0  0  0  0  0  0  0  0  0  0
    2.4273    0.0527    0.0335 C   0  0  0  0  0  0  0  0  0  0  0  0
    3.0654   -1.1746    0.0061 C   0  0  0  0  0  0  0  0  0  0  0  0
    4.4524   -1.2172    0.0138 C   0  0  0  0  0  0  0  0  0  0  0  0
    5.1651   -0.0210   -0.0098 C   0  0  0  0  0  0  0  0  0  0  0  0
    4.4489    1.1882    0.0339 C   0  0  0  0  0  0  0  0  0  0  0  0
    3.0964    1.2212    0.0761 N   0  0  0  0  0  0  0  0  0  0  0  0
    5.1855    2.3697   -0.0028 C   0  0  0  0  0  0  0  0  0  0  0  0
    6.5660    2.3603   -0.2452 C   0  0  0  0  0  0  0  0  0  0  0  0
    7.2418    1.1536   -0.3679 C   0  0  0  0  0  0  0  0  0  0  0  0
    6.5618   -0.0359   -0.1403 C   0  0  0  0  0  0  0  0  0  0  0  0
    0.4963   -0.7300    0.0091 H   0  0  0  0  0  0  0  0  0  0  0  0
    0.6289    1.0175    0.0051 H   0  0  0  0  0  0  0  0  0  0  0  0
    2.4975   -2.0962   -0.0379 H   0  0  0  0  0  0  0  0  0  0  0  0
    4.9597   -2.1745   -0.0232 H   0  0  0  0  0  0  0  0  0  0  0  0
    4.6711    3.3192    0.1125 H   0  0  0  0  0  0  0  0  0  0  0  0
    7.1072    3.2974   -0.3466 H   0  0  0  0  0  0  0  0  0  0  0  0
    8.2925    1.1312   -0.6453 H   0  0  0  0  0  0  0  0  0  0  0  0
    7.1111   -0.9717   -0.1137 H   0  0  0  0  0  0  0  0  0  0  0  0
  1  2  1  0  0  0  0
  1 12  1  0  0  0  0
  1 13  1  0  0  0  0
  2  3  2  0  0  0  0
  2  7  1  0  0  0  0
  3  4  1  0  0  0  0
  3 14  1  0  0  0  0
  4  5  2  0  0  0  0
  4 15  1  0  0  0  0
  5  6  1  0  0  0  0
  5 11  1  0  0  0  0
  6  7  2  0  0  0  0
  6  8  1  0  0  0  0
  8  9  2  0  0  0  0
  8 16  1  0  0  0  0
  9 10  1  0  0  0  0
  9 17  1  0  0  0  0
 10 11  2  0  0  0  0
 10 18  1  0  0  0  0
 11 19  1  0  0  0  0
M  END
$$$$
