2C5
 OpenBabel04121316043D

 50 53  0  0  1  0  0  0  0  0999 V2000
    7.3979    3.4499   -6.6284 N   0  0  0  0  0  0  0  0  0  0  0  0
    7.5725    2.8498   -5.6649 C   0  0  0  0  0  0  0  0  0  0  0  0
    7.7761    2.1383   -4.4441 C   0  0  0  0  0  0  0  0  0  0  0  0
    7.3764    0.8085   -4.3314 C   0  0  0  0  0  0  0  0  0  0  0  0
    7.3927    0.2244   -3.0823 C   0  0  0  0  0  0  0  0  0  0  0  0
    7.9548    0.9216   -1.9974 C   0  0  0  0  0  0  0  0  0  0  0  0
    8.5717    2.1406   -2.2001 C   0  0  0  0  0  0  0  0  0  0  0  0
    8.3734    2.8057   -3.3784 C   0  0  0  0  0  0  0  0  0  0  0  0
    7.9679    0.3274   -0.6411 C   0  0  2  0  0  0  0  0  0  0  0  0
    6.9310    0.2024   -0.3269 H   0  0  0  0  0  0  0  0  0  0  0  0
    8.4895    1.0377    0.5171 C   0  0  0  0  0  0  0  0  0  0  0  0
    8.2794    2.3562    0.8430 C   0  0  0  0  0  0  0  0  0  0  0  0
    9.0050    2.6879    1.9343 N   0  0  0  0  0  0  0  0  0  0  0  0
    9.5364    1.5589    2.3464 C   0  0  0  0  0  0  0  0  0  0  0  0
    9.1883    0.4970    1.5663 N   0  0  0  0  0  0  0  0  0  0  0  0
    9.5184   -0.8796    1.8660 C   0  0  0  0  0  0  0  0  0  0  0  0
    8.6141   -0.8913   -0.7165 O   0  0  0  0  0  0  0  0  0  0  0  0
    9.8736   -1.0963   -1.2297 C   0  0  0  0  0  0  0  0  0  0  0  0
   10.1253   -2.5861   -1.0508 C   0  0  0  0  0  0  0  0  0  0  0  0
   11.4769   -2.8185   -1.0528 N   0  0  0  0  0  0  0  0  0  0  0  0
   11.9228   -4.0845   -1.0226 C   0  0  0  0  0  0  0  0  0  0  0  0
   13.6352   -4.2035   -1.0928 Cl  0  0  0  0  0  0  0  0  0  0  0  0
   11.0903   -5.1723   -0.9726 C   0  0  0  0  0  0  0  0  0  0  0  0
    9.7098   -4.9340   -0.9084 C   0  0  0  0  0  0  0  0  0  0  0  0
    9.1401   -3.6319   -0.9215 C   0  0  0  0  0  0  0  0  0  0  0  0
    7.6033   -3.5226   -0.8832 C   0  0  0  0  0  0  0  0  0  0  0  0
    6.7379   -4.6018   -0.9742 C   0  0  0  0  0  0  0  0  0  0  0  0
    5.3357   -4.4275   -0.9736 C   0  0  0  0  0  0  0  0  0  0  0  0
    4.7526   -3.1803   -1.1355 C   0  0  0  0  0  0  0  0  0  0  0  0
    5.5469   -2.0982   -1.0196 C   0  0  0  0  0  0  0  0  0  0  0  0
    6.8555   -2.3679   -0.6220 C   0  0  0  0  0  0  0  0  0  0  0  0
    4.7892   -0.5508   -1.1208 Cl  0  0  0  0  0  0  0  0  0  0  0  0
   11.6032   -6.5079   -0.9978 C   0  0  0  0  0  0  0  0  0  0  0  0
   12.0112   -7.5872   -1.0195 N   0  0  0  0  0  0  0  0  0  0  0  0
    7.0277    0.2335   -5.1845 H   0  0  0  0  0  0  0  0  0  0  0  0
    6.9964   -0.7837   -2.9733 H   0  0  0  0  0  0  0  0  0  0  0  0
    9.1823    2.5890   -1.4255 H   0  0  0  0  0  0  0  0  0  0  0  0
    8.7028    3.8361   -3.4347 H   0  0  0  0  0  0  0  0  0  0  0  0
    7.6979    3.0688    0.2645 H   0  0  0  0  0  0  0  0  0  0  0  0
   10.1682    1.4428    3.2087 H   0  0  0  0  0  0  0  0  0  0  0  0
   10.0664   -0.9357    2.8039 H   0  0  0  0  0  0  0  0  0  0  0  0
   10.2045   -1.2939    1.1372 H   0  0  0  0  0  0  0  0  0  0  0  0
    8.6117   -1.4889    1.9041 H   0  0  0  0  0  0  0  0  0  0  0  0
   10.5802   -0.4980   -0.6435 H   0  0  0  0  0  0  0  0  0  0  0  0
    9.9708   -0.8048   -2.2737 H   0  0  0  0  0  0  0  0  0  0  0  0
    9.0794   -5.8186   -0.8721 H   0  0  0  0  0  0  0  0  0  0  0  0
    7.0989   -5.6209   -0.9807 H   0  0  0  0  0  0  0  0  0  0  0  0
    4.6860   -5.2779   -0.8394 H   0  0  0  0  0  0  0  0  0  0  0  0
    3.6892   -3.0145   -1.2233 H   0  0  0  0  0  0  0  0  0  0  0  0
    7.1824   -1.7791    0.2296 H   0  0  0  0  0  0  0  0  0  0  0  0
  1  2  3  0  0  0  0
  2  3  1  0  0  0  0
  3  4  2  0  0  0  0
  3  8  1  0  0  0  0
  4  5  1  0  0  0  0
  4 35  1  0  0  0  0
  5  6  2  0  0  0  0
  5 36  1  0  0  0  0
  6  7  1  0  0  0  0
  7  8  2  0  0  0  0
  7 37  1  0  0  0  0
  8 38  1  0  0  0  0
  9 11  1  0  0  0  0
  9 17  1  0  0  0  0
  9 10  1  1  0  0  0
  9  6  1  0  0  0  0
 11 12  2  0  0  0  0
 11 15  1  0  0  0  0
 12 13  1  0  0  0  0
 12 39  1  0  0  0  0
 13 14  2  0  0  0  0
 14 15  1  0  0  0  0
 14 40  1  0  0  0  0
 15 16  1  0  0  0  0
 16 41  1  0  0  0  0
 16 42  1  0  0  0  0
 16 43  1  0  0  0  0
 17 18  1  0  0  0  0
 18 19  1  0  0  0  0
 18 44  1  0  0  0  0
 18 45  1  0  0  0  0
 19 20  2  0  0  0  0
 19 25  1  0  0  0  0
 20 21  1  0  0  0  0
 21 22  1  0  0  0  0
 21 23  2  0  0  0  0
 23 24  1  0  0  0  0
 23 33  1  0  0  0  0
 24 25  2  0  0  0  0
 24 46  1  0  0  0  0
 25 26  1  0  0  0  0
 26 27  2  0  0  0  0
 26 31  1  0  0  0  0
 27 28  1  0  0  0  0
 27 47  1  0  0  0  0
 28 29  2  0  0  0  0
 28 48  1  0  0  0  0
 29 30  1  0  0  0  0
 29 49  1  0  0  0  0
 30 31  2  0  0  0  0
 30 32  1  0  0  0  0
 31 50  1  0  0  0  0
 33 34  3  0  0  0  0
M  END
$$$$
