2CG
 OpenBabel04121316043D

 23 23  0  0  1  0  0  0  0  0999 V2000
    3.5295   -0.6184    1.0913 N   0  0  0  0  0  0  0  0  0  0  0  0
    3.2033    0.7810    1.3948 C   0  0  1  0  0  0  0  0  0  0  0  0
    3.9980    1.2254    2.0067 H   0  0  0  0  0  0  0  0  0  0  0  0
    2.8747    1.4602    0.0968 C   0  0  2  0  0  0  0  0  0  0  0  0
    2.0705    0.8575   -0.3292 H   0  0  0  0  0  0  0  0  0  0  0  0
    3.5056    2.2130   -1.0821 C   0  0  2  0  0  0  0  0  0  0  0  0
    4.5771    2.2573   -1.2299 H   0  0  0  0  0  0  0  0  0  0  0  0
    2.9231    3.0006    0.0812 C   0  0  2  0  0  0  0  0  0  0  0  0
    1.9539    3.4752   -0.0397 H   0  0  0  0  0  0  0  0  0  0  0  0
    3.8699    3.8133    0.8978 C   0  0  0  0  0  0  0  0  0  0  0  0
    5.0761    3.8342    0.6794 O   0  0  0  0  0  0  0  0  0  0  0  0
    3.3125    4.4054    1.9785 O   0  0  0  0  0  0  0  0  0  0  0  0
    2.6883    2.2201   -2.3474 C   0  0  0  0  0  0  0  0  0  0  0  0
    1.5847    2.7444   -2.3930 O   0  0  0  0  0  0  0  0  0  0  0  0
    3.2122    1.5218   -3.3738 O   0  0  0  0  0  0  0  0  0  0  0  0
    1.8556    0.7796    2.2388 C   0  0  0  0  0  0  0  0  0  0  0  0
    1.1840   -0.2076    2.5038 O   0  0  0  0  0  0  0  0  0  0  0  0
    1.4421    2.0200    2.6053 O   0  0  0  0  0  0  0  0  0  0  0  0
    3.5186   -1.1679    1.9564 H   0  0  0  0  0  0  0  0  0  0  0  0
    4.4354   -0.7343    0.6543 H   0  0  0  0  0  0  0  0  0  0  0  0
    2.3560    4.6112    1.9532 H   0  0  0  0  0  0  0  0  0  0  0  0
    4.0745    1.1087   -3.1927 H   0  0  0  0  0  0  0  0  0  0  0  0
    2.1132    2.6952    2.4268 H   0  0  0  0  0  0  0  0  0  0  0  0
  1  2  1  0  0  0  0
  1 19  1  0  0  0  0
  1 20  1  0  0  0  0
  2  3  1  1  0  0  0
  2 16  1  0  0  0  0
  4  6  1  0  0  0  0
  4  8  1  0  0  0  0
  4  5  1  6  0  0  0
  4  2  1  0  0  0  0
  6  7  1  6  0  0  0
  6  8  1  0  0  0  0
  6 13  1  0  0  0  0
  8  9  1  6  0  0  0
  8 10  1  0  0  0  0
 10 11  2  0  0  0  0
 10 12  1  0  0  0  0
 12 21  1  0  0  0  0
 13 14  2  0  0  0  0
 13 15  1  0  0  0  0
 15 22  1  0  0  0  0
 16 17  2  0  0  0  0
 16 18  1  0  0  0  0
 18 23  1  0  0  0  0
M  END
$$$$
