2DI
 OpenBabel04121316043D

 29 31  0  0  1  0  0  0  0  0999 V2000
    3.5190   -0.9180   -3.3096 O   0  0  0  0  0  0  0  0  0  0  0  0
    2.6830   -0.5286   -2.2298 C   0  0  0  0  0  0  0  0  0  0  0  0
    2.9149   -1.1759   -0.8486 C   0  0  2  0  0  0  0  0  0  0  0  0
    2.4986   -0.4651   -0.1273 H   0  0  0  0  0  0  0  0  0  0  0  0
    4.3302   -1.5338   -0.4501 C   0  0  0  0  0  0  0  0  0  0  0  0
    4.4405   -2.9800   -0.8608 C   0  0  0  0  0  0  0  0  0  0  0  0
    3.0373   -3.5184   -0.6257 C   0  0  1  0  0  0  0  0  0  0  0  0
    2.9246   -3.9619    0.3723 H   0  0  0  0  0  0  0  0  0  0  0  0
    2.1414   -2.3873   -0.7116 O   0  0  0  0  0  0  0  0  0  0  0  0
    2.6511   -4.5056   -1.6156 N   0  0  0  0  0  0  0  0  0  0  0  0
    2.1506   -4.2225   -2.8640 C   0  0  0  0  0  0  0  0  0  0  0  0
    2.0557   -5.2938   -3.6217 N   0  0  0  0  0  0  0  0  0  0  0  0
    2.4961   -6.3105   -2.8192 C   0  0  0  0  0  0  0  0  0  0  0  0
    2.8508   -5.8591   -1.5624 C   0  0  0  0  0  0  0  0  0  0  0  0
    3.3263   -6.5856   -0.5187 N   0  0  0  0  0  0  0  0  0  0  0  0
    3.4331   -7.8510   -0.8038 C   0  0  0  0  0  0  0  0  0  0  0  0
    3.1254   -8.4297   -2.0239 N   0  0  0  0  0  0  0  0  0  0  0  0
    3.2465   -9.4191   -2.1780 H   0  0  0  0  0  0  0  0  0  0  0  0
    2.6465   -7.7173   -3.1084 C   0  0  0  0  0  0  0  0  0  0  0  0
    2.3964   -8.2630   -4.1847 O   0  0  0  0  0  0  0  0  0  0  0  0
    3.1912   -0.4005   -4.0760 H   0  0  0  0  0  0  0  0  0  0  0  0
    1.6592   -0.7406   -2.5480 H   0  0  0  0  0  0  0  0  0  0  0  0
    2.8294    0.5476   -2.1179 H   0  0  0  0  0  0  0  0  0  0  0  0
    4.4164   -1.4694    0.6438 H   0  0  0  0  0  0  0  0  0  0  0  0
    5.0962   -0.8851   -0.8811 H   0  0  0  0  0  0  0  0  0  0  0  0
    5.1978   -3.5337   -0.2980 H   0  0  0  0  0  0  0  0  0  0  0  0
    4.7088   -3.0354   -1.9213 H   0  0  0  0  0  0  0  0  0  0  0  0
    1.8988   -3.2163   -3.1696 H   0  0  0  0  0  0  0  0  0  0  0  0
    3.7943   -8.5800   -0.0598 H   0  0  0  0  0  0  0  0  0  0  0  0
  1  2  1  0  0  0  0
  1 21  1  0  0  0  0
  2 22  1  0  0  0  0
  2 23  1  0  0  0  0
  3  5  1  0  0  0  0
  3  9  1  0  0  0  0
  3  4  1  1  0  0  0
  3  2  1  0  0  0  0
  5  6  1  0  0  0  0
  5 24  1  0  0  0  0
  5 25  1  0  0  0  0
  6  7  1  0  0  0  0
  6 26  1  0  0  0  0
  6 27  1  0  0  0  0
  7  8  1  1  0  0  0
  7  9  1  0  0  0  0
  7 10  1  0  0  0  0
 10 11  1  0  0  0  0
 10 14  1  0  0  0  0
 11 12  2  0  0  0  0
 11 28  1  0  0  0  0
 12 13  1  0  0  0  0
 13 14  2  0  0  0  0
 13 19  1  0  0  0  0
 14 15  1  0  0  0  0
 15 16  2  0  0  0  0
 16 17  1  0  0  0  0
 16 29  1  0  0  0  0
 17 18  1  0  0  0  0
 17 19  1  0  0  0  0
 19 20  2  0  0  0  0
M  END
$$$$
