2E3
 OpenBabel04121316043D

 55 57  0  0  0  0  0  0  0  0999 V2000
    1.0479    0.1823   -0.2127 O   0  0  0  0  0  0  0  0  0  0  0  0
    2.3523    0.0161    0.0453 C   0  0  0  0  0  0  0  0  0  0  0  0
    2.8222   -0.9746    0.5847 O   0  0  0  0  0  0  0  0  0  0  0  0
    3.0748    1.1380   -0.5399 C   0  0  0  0  0  0  0  0  0  0  0  0
    4.4134    1.1854   -0.5145 C   0  0  0  0  0  0  0  0  0  0  0  0
    5.0811    2.3126   -1.1576 C   0  0  0  0  0  0  0  0  0  0  0  0
    4.7526    3.6236   -0.8735 C   0  0  0  0  0  0  0  0  0  0  0  0
    5.3082    4.6482   -1.6211 C   0  0  0  0  0  0  0  0  0  0  0  0
    6.0516    4.3509   -2.7615 C   0  0  0  0  0  0  0  0  0  0  0  0
    6.4397    3.0285   -3.0762 C   0  0  0  0  0  0  0  0  0  0  0  0
    6.0339    2.0655   -2.1345 C   0  0  0  0  0  0  0  0  0  0  0  0
    7.1695    2.6333   -4.3296 C   0  0  0  0  0  0  0  0  0  0  0  0
    7.7137    3.6271   -5.1637 C   0  0  0  0  0  0  0  0  0  0  0  0
    8.3645    3.4209   -6.3825 C   0  0  0  0  0  0  0  0  0  0  0  0
    8.5073    2.1087   -6.8131 C   0  0  0  0  0  0  0  0  0  0  0  0
    8.0104    1.0815   -6.0008 C   0  0  0  0  0  0  0  0  0  0  0  0
    7.3268    1.3162   -4.8031 C   0  0  0  0  0  0  0  0  0  0  0  0
    6.8258    0.0787   -4.1210 C   0  0  0  0  0  0  0  0  0  0  0  0
    9.2204    1.7576   -8.1029 C   0  0  0  0  0  0  0  0  0  0  0  0
    8.4228    0.6799   -8.8629 C   0  0  0  0  0  0  0  0  0  0  0  0
   10.6183    1.2266   -7.7393 C   0  0  0  0  0  0  0  0  0  0  0  0
    9.3534    2.9955   -9.0138 C   0  0  0  0  0  0  0  0  0  0  0  0
    9.8793    4.1980   -8.2298 C   0  0  0  0  0  0  0  0  0  0  0  0
    8.8543    4.6368   -7.1685 C   0  0  0  0  0  0  0  0  0  0  0  0
    9.5403    5.6688   -6.2395 C   0  0  0  0  0  0  0  0  0  0  0  0
    7.6547    5.3188   -7.8630 C   0  0  0  0  0  0  0  0  0  0  0  0
    6.3485    5.4115   -3.5738 O   0  0  0  0  0  0  0  0  0  0  0  0
    0.6445   -0.7033   -0.1284 H   0  0  0  0  0  0  0  0  0  0  0  0
    2.4745    1.8934   -1.0366 H   0  0  0  0  0  0  0  0  0  0  0  0
    5.0132    0.3792   -0.1018 H   0  0  0  0  0  0  0  0  0  0  0  0
    4.0599    3.8465   -0.0719 H   0  0  0  0  0  0  0  0  0  0  0  0
    5.1113    5.6747   -1.3422 H   0  0  0  0  0  0  0  0  0  0  0  0
    6.3997    1.0560   -2.1387 H   0  0  0  0  0  0  0  0  0  0  0  0
    7.6384    4.6598   -4.8822 H   0  0  0  0  0  0  0  0  0  0  0  0
    8.1485    0.0450   -6.2970 H   0  0  0  0  0  0  0  0  0  0  0  0
    6.9545   -0.8317   -4.7099 H   0  0  0  0  0  0  0  0  0  0  0  0
    5.7508    0.1692   -3.9320 H   0  0  0  0  0  0  0  0  0  0  0  0
    7.4186   -0.0842   -3.2162 H   0  0  0  0  0  0  0  0  0  0  0  0
    8.3348   -0.2540   -8.2978 H   0  0  0  0  0  0  0  0  0  0  0  0
    8.9043    0.4248   -9.8089 H   0  0  0  0  0  0  0  0  0  0  0  0
    7.4011    1.0248   -9.0680 H   0  0  0  0  0  0  0  0  0  0  0  0
   10.5630    0.3439   -7.0937 H   0  0  0  0  0  0  0  0  0  0  0  0
   11.2095    1.9673   -7.1885 H   0  0  0  0  0  0  0  0  0  0  0  0
   11.1742    0.9588   -8.6419 H   0  0  0  0  0  0  0  0  0  0  0  0
    8.3781    3.2380   -9.4538 H   0  0  0  0  0  0  0  0  0  0  0  0
   10.0144    2.7804   -9.8593 H   0  0  0  0  0  0  0  0  0  0  0  0
   10.1081    5.0246   -8.9117 H   0  0  0  0  0  0  0  0  0  0  0  0
   10.8288    3.9462   -7.7426 H   0  0  0  0  0  0  0  0  0  0  0  0
   10.3559    5.2034   -5.6732 H   0  0  0  0  0  0  0  0  0  0  0  0
    8.8512    6.1075   -5.5089 H   0  0  0  0  0  0  0  0  0  0  0  0
    9.9464    6.5104   -6.8078 H   0  0  0  0  0  0  0  0  0  0  0  0
    7.1216    4.6383   -8.5352 H   0  0  0  0  0  0  0  0  0  0  0  0
    7.9894    6.1757   -8.4589 H   0  0  0  0  0  0  0  0  0  0  0  0
    6.9147    5.6801   -7.1412 H   0  0  0  0  0  0  0  0  0  0  0  0
    6.0416    6.2502   -3.2038 H   0  0  0  0  0  0  0  0  0  0  0  0
  1  2  1  0  0  0  0
  1 28  1  0  0  0  0
  2  3  2  0  0  0  0
  2  4  1  0  0  0  0
  4  5  2  0  0  0  0
  4 29  1  0  0  0  0
  5  6  1  0  0  0  0
  5 30  1  0  0  0  0
  6  7  2  0  0  0  0
  6 11  1  0  0  0  0
  7  8  1  0  0  0  0
  7 31  1  0  0  0  0
  8  9  2  0  0  0  0
  8 32  1  0  0  0  0
  9 10  1  0  0  0  0
  9 27  1  0  0  0  0
 10 11  2  0  0  0  0
 10 12  1  0  0  0  0
 11 33  1  0  0  0  0
 12 13  2  0  0  0  0
 12 17  1  0  0  0  0
 13 14  1  0  0  0  0
 13 34  1  0  0  0  0
 14 15  2  0  0  0  0
 14 24  1  0  0  0  0
 15 16  1  0  0  0  0
 15 19  1  0  0  0  0
 16 17  2  0  0  0  0
 16 35  1  0  0  0  0
 17 18  1  0  0  0  0
 18 36  1  0  0  0  0
 18 37  1  0  0  0  0
 18 38  1  0  0  0  0
 19 20  1  0  0  0  0
 19 21  1  0  0  0  0
 19 22  1  0  0  0  0
 20 39  1  0  0  0  0
 20 40  1  0  0  0  0
 20 41  1  0  0  0  0
 21 42  1  0  0  0  0
 21 43  1  0  0  0  0
 21 44  1  0  0  0  0
 22 23  1  0  0  0  0
 22 45  1  0  0  0  0
 22 46  1  0  0  0  0
 23 24  1  0  0  0  0
 23 47  1  0  0  0  0
 23 48  1  0  0  0  0
 24 25  1  0  0  0  0
 24 26  1  0  0  0  0
 25 49  1  0  0  0  0
 25 50  1  0  0  0  0
 25 51  1  0  0  0  0
 26 52  1  0  0  0  0
 26 53  1  0  0  0  0
 26 54  1  0  0  0  0
 27 55  1  0  0  0  0
M  END
$$$$
