2EC
 OpenBabel04121316043D

 21 22  0  0  0  0  0  0  0  0999 V2000
    0.9372    0.0187   -0.0161 C   0  0  0  0  0  0  0  0  0  0  0  0
    2.4592    0.0705    0.0257 C   0  0  0  0  0  0  0  0  0  0  0  0
    2.9241    1.2230    0.7698 N   0  0  0  0  0  0  0  0  0  0  0  0
    2.6066    2.5199    0.4544 C   0  0  0  0  0  0  0  0  0  0  0  0
    3.0444    3.3698    1.3559 N   0  0  0  0  0  0  0  0  0  0  0  0
    3.7048    2.5853    2.2766 C   0  0  0  0  0  0  0  0  0  0  0  0
    3.6643    1.2429    1.9215 C   0  0  0  0  0  0  0  0  0  0  0  0
    4.2186    0.2174    2.5892 N   0  0  0  0  0  0  0  0  0  0  0  0
    4.8539    0.6576    3.7009 C   0  0  0  0  0  0  0  0  0  0  0  0
    4.9578    1.9219    4.1727 N   0  0  0  0  0  0  0  0  0  0  0  0
    4.3753    2.9130    3.4647 C   0  0  0  0  0  0  0  0  0  0  0  0
    4.4523    4.2078    3.9262 N   0  0  0  0  0  0  0  0  0  0  0  0
    0.5888   -0.8459   -0.5868 H   0  0  0  0  0  0  0  0  0  0  0  0
    0.5211    0.9159   -0.4889 H   0  0  0  0  0  0  0  0  0  0  0  0
    0.5233   -0.0377    0.9964 H   0  0  0  0  0  0  0  0  0  0  0  0
    2.8683    0.1535   -0.9878 H   0  0  0  0  0  0  0  0  0  0  0  0
    2.8612   -0.8395    0.4822 H   0  0  0  0  0  0  0  0  0  0  0  0
    2.0319    2.7796   -0.4239 H   0  0  0  0  0  0  0  0  0  0  0  0
    5.3477   -0.1022    4.3009 H   0  0  0  0  0  0  0  0  0  0  0  0
    4.9508    4.3940    4.7797 H   0  0  0  0  0  0  0  0  0  0  0  0
    4.0098    4.9363    3.3834 H   0  0  0  0  0  0  0  0  0  0  0  0
  1  2  1  0  0  0  0
  1 13  1  0  0  0  0
  1 14  1  0  0  0  0
  1 15  1  0  0  0  0
  2  3  1  0  0  0  0
  2 16  1  0  0  0  0
  2 17  1  0  0  0  0
  3  4  1  0  0  0  0
  3  7  1  0  0  0  0
  4  5  2  0  0  0  0
  4 18  1  0  0  0  0
  5  6  1  0  0  0  0
  6  7  2  0  0  0  0
  6 11  1  0  0  0  0
  7  8  1  0  0  0  0
  8  9  2  0  0  0  0
  9 10  1  0  0  0  0
  9 19  1  0  0  0  0
 10 11  2  0  0  0  0
 11 12  1  0  0  0  0
 12 20  1  0  0  0  0
 12 21  1  0  0  0  0
M  END
$$$$
