2EZ
 OpenBabel04121316043D

 15 15  0  0  0  0  0  0  0  0999 V2000
    1.0310   -0.0631   -0.0336 C   0  0  0  0  0  0  0  0  0  0  0  0
    2.5524   -0.0747   -0.0057 C   0  0  0  0  0  0  0  0  0  0  0  0
    3.0374   -0.7497    1.2279 C   0  0  0  0  0  0  0  0  0  0  0  0
    3.5638   -0.1808    2.2929 N   0  0  0  0  0  0  0  0  0  0  0  0
    3.7345   -1.1908    3.2037 C   0  0  0  0  0  0  0  0  0  0  0  0
    3.3187   -2.3923    2.6828 C   0  0  0  0  0  0  0  0  0  0  0  0
    2.9080   -2.1031    1.4140 N   0  0  0  0  0  0  0  0  0  0  0  0
    2.5166   -2.7509    0.7430 H   0  0  0  0  0  0  0  0  0  0  0  0
    0.6633    0.4406   -0.9314 H   0  0  0  0  0  0  0  0  0  0  0  0
    0.6287    0.4545    0.8445 H   0  0  0  0  0  0  0  0  0  0  0  0
    0.6295   -1.0830   -0.0279 H   0  0  0  0  0  0  0  0  0  0  0  0
    2.9297    0.9537   -0.0411 H   0  0  0  0  0  0  0  0  0  0  0  0
    2.9385   -0.5918   -0.8919 H   0  0  0  0  0  0  0  0  0  0  0  0
    4.1333   -0.9965    4.1905 H   0  0  0  0  0  0  0  0  0  0  0  0
    3.2749   -3.3908    3.0910 H   0  0  0  0  0  0  0  0  0  0  0  0
  1  2  1  0  0  0  0
  1  9  1  0  0  0  0
  1 10  1  0  0  0  0
  1 11  1  0  0  0  0
  2  3  1  0  0  0  0
  2 12  1  0  0  0  0
  2 13  1  0  0  0  0
  3  4  2  0  0  0  0
  3  7  1  0  0  0  0
  4  5  1  0  0  0  0
  5  6  2  0  0  0  0
  5 14  1  0  0  0  0
  6  7  1  0  0  0  0
  6 15  1  0  0  0  0
  7  8  1  0  0  0  0
M  END
$$$$
