2FD
 OpenBabel04121316043D

 31 33  0  0  1  0  0  0  0  0999 V2000
    0.9652   -0.0154   -0.2308 O   0  0  0  0  0  0  0  0  0  0  0  0
    2.3872    0.0132   -0.1012 C   0  0  0  0  0  0  0  0  0  0  0  0
    2.8442    1.1276    0.8531 C   0  0  1  0  0  0  0  0  0  0  0  0
    3.9000    0.9458    1.0975 H   0  0  0  0  0  0  0  0  0  0  0  0
    2.7741    2.4407    0.2488 O   0  0  0  0  0  0  0  0  0  0  0  0
    2.7194    3.3764    1.3529 C   0  0  2  0  0  0  0  0  0  0  0  0
    3.7464    3.5554    1.6956 H   0  0  0  0  0  0  0  0  0  0  0  0
    1.8752    2.6928    2.4154 C   0  0  0  0  0  0  0  0  0  0  0  0
    1.9895    1.2141    2.1151 C   0  0  2  0  0  0  0  0  0  0  0  0
    0.9892    0.7925    1.9782 H   0  0  0  0  0  0  0  0  0  0  0  0
    2.5970    0.5222    3.1982 O   0  0  0  0  0  0  0  0  0  0  0  0
    2.1757    4.6582    0.9295 N   0  0  0  0  0  0  0  0  0  0  0  0
    1.7350    4.9898   -0.3244 C   0  0  0  0  0  0  0  0  0  0  0  0
    1.2424    6.2110   -0.3724 N   0  0  0  0  0  0  0  0  0  0  0  0
    1.3777    6.6974    0.9072 C   0  0  0  0  0  0  0  0  0  0  0  0
    1.9717    5.7559    1.7364 C   0  0  0  0  0  0  0  0  0  0  0  0
    2.2492    5.9022    3.0414 N   0  0  0  0  0  0  0  0  0  0  0  0
    1.8719    7.1261    3.4901 C   0  0  0  0  0  0  0  0  0  0  0  0
    2.1025    7.3768    4.7883 F   0  0  0  0  0  0  0  0  0  0  0  0
    1.2823    8.1248    2.7952 N   0  0  0  0  0  0  0  0  0  0  0  0
    1.0235    7.9269    1.4877 C   0  0  0  0  0  0  0  0  0  0  0  0
    0.4154    8.9325    0.7686 N   0  0  0  0  0  0  0  0  0  0  0  0
    0.7370   -0.8163   -0.7345 H   0  0  0  0  0  0  0  0  0  0  0  0
    2.8059    0.1515   -1.1023 H   0  0  0  0  0  0  0  0  0  0  0  0
    2.7052   -0.9613    0.2882 H   0  0  0  0  0  0  0  0  0  0  0  0
    0.8242    2.9897    2.3111 H   0  0  0  0  0  0  0  0  0  0  0  0
    2.1965    2.9636    3.4252 H   0  0  0  0  0  0  0  0  0  0  0  0
    1.9665    0.5569    3.9409 H   0  0  0  0  0  0  0  0  0  0  0  0
    1.7879    4.3058   -1.1613 H   0  0  0  0  0  0  0  0  0  0  0  0
    0.1809    9.7963    1.2304 H   0  0  0  0  0  0  0  0  0  0  0  0
    0.2208    8.7758   -0.2106 H   0  0  0  0  0  0  0  0  0  0  0  0
  1  2  1  0  0  0  0
  1 23  1  0  0  0  0
  2  3  1  0  0  0  0
  2 24  1  0  0  0  0
  2 25  1  0  0  0  0
  3  4  1  1  0  0  0
  3  5  1  0  0  0  0
  3  9  1  0  0  0  0
  5  6  1  0  0  0  0
  6  8  1  0  0  0  0
  6 12  1  0  0  0  0
  6  7  1  1  0  0  0
  8  9  1  0  0  0  0
  8 26  1  0  0  0  0
  8 27  1  0  0  0  0
  9 10  1  6  0  0  0
  9 11  1  0  0  0  0
 11 28  1  0  0  0  0
 12 13  1  0  0  0  0
 12 16  1  0  0  0  0
 13 14  2  0  0  0  0
 13 29  1  0  0  0  0
 14 15  1  0  0  0  0
 15 16  2  0  0  0  0
 15 21  1  0  0  0  0
 16 17  1  0  0  0  0
 17 18  2  0  0  0  0
 18 19  1  0  0  0  0
 18 20  1  0  0  0  0
 20 21  2  0  0  0  0
 21 22  1  0  0  0  0
 22 30  1  0  0  0  0
 22 31  1  0  0  0  0
M  END
$$$$
