2FT
 OpenBabel04121316043D

 17 16  0  0  0  0  0  0  0  0999 V2000
    1.1005    0.0835    0.0225 O   0  0  0  0  0  0  0  0  0  0  0  0
    2.4342   -0.0736    0.0371 C   0  0  0  0  0  0  0  0  0  0  0  0
    2.9409   -1.1603    0.2685 O   0  0  0  0  0  0  0  0  0  0  0  0
    3.1565    1.2038   -0.2708 C   0  0  0  0  0  0  0  0  0  0  0  0
    4.6654    0.9812   -0.2393 C   0  0  0  0  0  0  0  0  0  0  0  0
    5.4404    2.2497   -0.5558 C   0  0  0  0  0  0  0  0  0  0  0  0
    5.0728    2.8043   -1.9389 C   0  0  0  0  0  0  0  0  0  0  0  0
    4.5271    3.8840   -2.1291 O   0  0  0  0  0  0  0  0  0  0  0  0
    5.3464    1.9690   -2.9793 O   0  0  0  0  0  0  0  0  0  0  0  0
    5.2131    3.1460    0.4468 F   0  0  0  0  0  0  0  0  0  0  0  0
    6.7706    1.9426   -0.4927 F   0  0  0  0  0  0  0  0  0  0  0  0
    0.7394   -0.7981    0.2537 H   0  0  0  0  0  0  0  0  0  0  0  0
    2.8725    1.9589    0.4694 H   0  0  0  0  0  0  0  0  0  0  0  0
    2.8402    1.5375   -1.2649 H   0  0  0  0  0  0  0  0  0  0  0  0
    4.9484    0.1826   -0.9366 H   0  0  0  0  0  0  0  0  0  0  0  0
    4.9619    0.6243    0.7559 H   0  0  0  0  0  0  0  0  0  0  0  0
    5.8084    1.1388   -2.7476 H   0  0  0  0  0  0  0  0  0  0  0  0
  1  2  1  0  0  0  0
  1 12  1  0  0  0  0
  2  3  2  0  0  0  0
  2  4  1  0  0  0  0
  4  5  1  0  0  0  0
  4 13  1  0  0  0  0
  4 14  1  0  0  0  0
  5  6  1  0  0  0  0
  5 15  1  0  0  0  0
  5 16  1  0  0  0  0
  6  7  1  0  0  0  0
  6 10  1  0  0  0  0
  6 11  1  0  0  0  0
  7  8  2  0  0  0  0
  7  9  1  0  0  0  0
  9 17  1  0  0  0  0
M  END
$$$$
