2FX
 OpenBabel04121316043D

 21 22  0  0  0  0  0  0  0  0999 V2000
    0.9680   -0.0235   -0.0804 O   0  0  0  0  0  0  0  0  0  0  0  0
    2.2974    0.0893    0.0968 C   0  0  0  0  0  0  0  0  0  0  0  0
    2.7250    1.0094    0.7798 O   0  0  0  0  0  0  0  0  0  0  0  0
    3.0604   -0.9782   -0.6435 C   0  0  0  0  0  0  0  0  0  0  0  0
    4.5320   -0.7615   -0.5325 C   0  0  0  0  0  0  0  0  0  0  0  0
    5.2522    0.4155   -0.5033 C   0  0  0  0  0  0  0  0  0  0  0  0
    6.6527    0.2068   -0.3241 C   0  0  0  0  0  0  0  0  0  0  0  0
    6.9468   -1.1555   -0.2834 C   0  0  0  0  0  0  0  0  0  0  0  0
    5.5449   -2.1251   -0.4362 S   0  0  0  0  0  0  0  0  0  0  0  0
    8.2554   -1.6283   -0.1335 C   0  0  0  0  0  0  0  0  0  0  0  0
    9.2858   -0.6993   -0.0202 C   0  0  0  0  0  0  0  0  0  0  0  0
    9.0203    0.6650   -0.0434 C   0  0  0  0  0  0  0  0  0  0  0  0
    7.7120    1.1317   -0.1913 C   0  0  0  0  0  0  0  0  0  0  0  0
    0.6315    0.7702    0.3875 H   0  0  0  0  0  0  0  0  0  0  0  0
    2.7813   -0.9616   -1.7027 H   0  0  0  0  0  0  0  0  0  0  0  0
    2.7820   -1.9502   -0.2178 H   0  0  0  0  0  0  0  0  0  0  0  0
    4.7991    1.4000   -0.5551 H   0  0  0  0  0  0  0  0  0  0  0  0
    8.4493   -2.6956   -0.1100 H   0  0  0  0  0  0  0  0  0  0  0  0
   10.3049   -1.0571    0.0877 H   0  0  0  0  0  0  0  0  0  0  0  0
    9.8356    1.3764    0.0515 H   0  0  0  0  0  0  0  0  0  0  0  0
    7.5113    2.2009   -0.2055 H   0  0  0  0  0  0  0  0  0  0  0  0
  1  2  1  0  0  0  0
  1 14  1  0  0  0  0
  2  3  2  0  0  0  0
  2  4  1  0  0  0  0
  4  5  1  0  0  0  0
  4 15  1  0  0  0  0
  4 16  1  0  0  0  0
  5  6  2  0  0  0  0
  5  9  1  0  0  0  0
  6  7  1  0  0  0  0
  6 17  1  0  0  0  0
  7  8  2  0  0  0  0
  7 13  1  0  0  0  0
  8  9  1  0  0  0  0
  8 10  1  0  0  0  0
 10 11  2  0  0  0  0
 10 18  1  0  0  0  0
 11 12  1  0  0  0  0
 11 19  1  0  0  0  0
 12 13  2  0  0  0  0
 12 20  1  0  0  0  0
 13 21  1  0  0  0  0
M  END
$$$$
