2FY
 OpenBabel04121316043D

 22 22  0  0  0  0  0  0  0  0999 V2000
    1.0890   -0.0291   -0.0376 C   0  0  0  0  0  0  0  0  0  0  0  0
    2.6068   -0.0278    0.0208 C   0  0  0  0  0  0  0  0  0  0  0  0
    3.0864   -0.0154    1.4596 C   0  0  0  0  0  0  0  0  0  0  0  0
    2.3483    0.0436    2.4420 O   0  0  0  0  0  0  0  0  0  0  0  0
    4.5410   -0.0162    1.6640 C   0  0  0  0  0  0  0  0  0  0  0  0
    5.2102    1.2057    1.7877 C   0  0  0  0  0  0  0  0  0  0  0  0
    6.6046    1.2186    1.8377 C   0  0  0  0  0  0  0  0  0  0  0  0
    7.2954    0.0088    1.8830 C   0  0  0  0  0  0  0  0  0  0  0  0
    6.6201   -1.2110    1.8880 C   0  0  0  0  0  0  0  0  0  0  0  0
    5.2397   -1.2218    1.7123 C   0  0  0  0  0  0  0  0  0  0  0  0
    4.5626   -2.3976    1.5600 O   0  0  0  0  0  0  0  0  0  0  0  0
    8.6589   -0.0259    1.9053 O   0  0  0  0  0  0  0  0  0  0  0  0
    0.7347   -0.0215   -1.0722 H   0  0  0  0  0  0  0  0  0  0  0  0
    0.6827    0.8516    0.4714 H   0  0  0  0  0  0  0  0  0  0  0  0
    0.6857   -0.9175    0.4598 H   0  0  0  0  0  0  0  0  0  0  0  0
    2.9896    0.8633   -0.4906 H   0  0  0  0  0  0  0  0  0  0  0  0
    2.9943   -0.9160   -0.4906 H   0  0  0  0  0  0  0  0  0  0  0  0
    4.6514    2.1371    1.8319 H   0  0  0  0  0  0  0  0  0  0  0  0
    7.1297    2.1692    1.8479 H   0  0  0  0  0  0  0  0  0  0  0  0
    7.1843   -2.1297    2.0088 H   0  0  0  0  0  0  0  0  0  0  0  0
    5.1874   -3.1402    1.6039 H   0  0  0  0  0  0  0  0  0  0  0  0
    9.0003    0.8735    1.7651 H   0  0  0  0  0  0  0  0  0  0  0  0
  1  2  1  0  0  0  0
  1 13  1  0  0  0  0
  1 14  1  0  0  0  0
  1 15  1  0  0  0  0
  2  3  1  0  0  0  0
  2 16  1  0  0  0  0
  2 17  1  0  0  0  0
  3  4  2  0  0  0  0
  3  5  1  0  0  0  0
  5  6  2  0  0  0  0
  5 10  1  0  0  0  0
  6  7  1  0  0  0  0
  6 18  1  0  0  0  0
  7  8  2  0  0  0  0
  7 19  1  0  0  0  0
  8  9  1  0  0  0  0
  8 12  1  0  0  0  0
  9 10  2  0  0  0  0
  9 20  1  0  0  0  0
 10 11  1  0  0  0  0
 11 21  1  0  0  0  0
 12 22  1  0  0  0  0
M  END
$$$$
