2GA
 OpenBabel04121316043D

 25 26  0  0  0  0  0  0  0  0999 V2000
    1.2300    0.1383    0.2956 C   0  0  0  0  0  0  0  0  0  0  0  0
    3.0028    0.3285    0.7002 S   0  0  0  0  0  0  0  0  0  0  0  0
    3.5366   -1.2212    1.3271 C   0  0  0  0  0  0  0  0  0  0  0  0
    3.8670   -1.4889    2.5782 N   0  0  0  0  0  0  0  0  0  0  0  0
    3.9046   -2.8867    2.7846 N   0  0  0  0  0  0  0  0  0  0  0  0
    3.6170   -3.5358    1.6629 C   0  0  0  0  0  0  0  0  0  0  0  0
    3.9872   -2.5395    0.3212 S   0  0  0  0  0  0  0  0  0  0  0  0
    3.0487   -5.1953    1.5887 S   0  0  0  0  0  0  0  0  0  0  0  0
    2.1185   -5.3918    0.0791 C   0  0  0  0  0  0  0  0  0  0  0  0
    1.8422   -6.6649   -0.5233 C   0  0  0  0  0  0  0  0  0  0  0  0
    2.2224   -8.0338   -0.1092 C   0  0  0  0  0  0  0  0  0  0  0  0
    1.1102   -6.5626   -1.6476 N   0  0  0  0  0  0  0  0  0  0  0  0
    0.9042   -5.2648   -1.7618 N   0  0  0  0  0  0  0  0  0  0  0  0
    0.3673   -4.9226   -2.5692 H   0  0  0  0  0  0  0  0  0  0  0  0
    1.4398   -4.5163   -0.7645 C   0  0  0  0  0  0  0  0  0  0  0  0
    1.2153   -3.0768   -0.8333 C   0  0  0  0  0  0  0  0  0  0  0  0
    0.8930    0.9854   -0.3168 H   0  0  0  0  0  0  0  0  0  0  0  0
    0.6246    0.1255    1.2049 H   0  0  0  0  0  0  0  0  0  0  0  0
    0.9756   -0.7335   -0.3022 H   0  0  0  0  0  0  0  0  0  0  0  0
    2.8269   -8.0322    0.7972 H   0  0  0  0  0  0  0  0  0  0  0  0
    2.7939   -8.5210   -0.9070 H   0  0  0  0  0  0  0  0  0  0  0  0
    1.3214   -8.6297    0.0758 H   0  0  0  0  0  0  0  0  0  0  0  0
    0.4074   -2.7767   -1.5081 H   0  0  0  0  0  0  0  0  0  0  0  0
    2.0923   -2.6103   -1.2830 H   0  0  0  0  0  0  0  0  0  0  0  0
    0.9890   -2.7043    0.1664 H   0  0  0  0  0  0  0  0  0  0  0  0
  1  2  1  0  0  0  0
  1 17  1  0  0  0  0
  1 18  1  0  0  0  0
  1 19  1  0  0  0  0
  2  3  1  0  0  0  0
  3  4  2  0  0  0  0
  3  7  1  0  0  0  0
  4  5  1  0  0  0  0
  5  6  2  0  0  0  0
  6  7  1  0  0  0  0
  6  8  1  0  0  0  0
  8  9  1  0  0  0  0
  9 10  1  0  0  0  0
  9 15  2  0  0  0  0
 10 11  1  0  0  0  0
 10 12  2  0  0  0  0
 11 20  1  0  0  0  0
 11 21  1  0  0  0  0
 11 22  1  0  0  0  0
 12 13  1  0  0  0  0
 13 14  1  0  0  0  0
 13 15  1  0  0  0  0
 15 16  1  0  0  0  0
 16 23  1  0  0  0  0
 16 24  1  0  0  0  0
 16 25  1  0  0  0  0
M  END
$$$$
