2HE
 OpenBabel04121316043D

 14 13  0  0  0  0  0  0  0  0999 V2000
    0.8285   -0.1055    0.1379 O   0  0  0  0  0  0  0  0  0  0  0  0
    2.2466   -0.0529    0.0864 C   0  0  0  0  0  0  0  0  0  0  0  0
    2.8523   -0.2477    1.4771 C   0  0  0  0  0  0  0  0  0  0  0  0
    4.6823   -0.2477    1.4771 P   0  0  0  0  0  0  0  0  0  0  0  0
    4.7578    0.3782    0.0883 O   0  0  0  0  0  0  0  0  0  0  0  0
    4.7133    0.9286    2.6202 O   0  0  0  0  0  0  0  0  0  0  0  0
    6.4123   -0.2477    1.4771 O   0  0  0  0  0  0  0  0  0  0  0  0
    0.5255    0.0997   -0.7666 H   0  0  0  0  0  0  0  0  0  0  0  0
    2.5213    0.9260   -0.3226 H   0  0  0  0  0  0  0  0  0  0  0  0
    2.5962   -0.8327   -0.5988 H   0  0  0  0  0  0  0  0  0  0  0  0
    2.5321   -1.2204    1.8696 H   0  0  0  0  0  0  0  0  0  0  0  0
    2.4122    0.4907    2.1562 H   0  0  0  0  0  0  0  0  0  0  0  0
    4.0113    1.5770    2.6283 H   0  0  0  0  0  0  0  0  0  0  0  0
    6.7068   -0.5578    0.6004 H   0  0  0  0  0  0  0  0  0  0  0  0
  1  2  1  0  0  0  0
  1  8  1  0  0  0  0
  2  3  1  0  0  0  0
  2  9  1  0  0  0  0
  2 10  1  0  0  0  0
  3  4  1  0  0  0  0
  3 11  1  0  0  0  0
  3 12  1  0  0  0  0
  4  5  2  0  0  0  0
  4  6  1  0  0  0  0
  4  7  1  0  0  0  0
  6 13  1  0  0  0  0
  7 14  1  0  0  0  0
M  END
$$$$
