2IC
 OpenBabel04121316043D

 57 61  0  0  1  0  0  0  0  0999 V2000
   15.8001   -2.1218    0.5313 N   0  0  0  0  0  0  0  0  0  0  0  0
   14.6928   -1.7982    0.5496 C   0  0  0  0  0  0  0  0  0  0  0  0
   13.3185   -1.4130    0.6362 C   0  0  0  0  0  0  0  0  0  0  0  0
   12.9846   -0.0914    0.9222 C   0  0  0  0  0  0  0  0  0  0  0  0
   11.6814    0.2211    1.2719 C   0  0  0  0  0  0  0  0  0  0  0  0
   10.6604   -0.7109    1.0710 C   0  0  0  0  0  0  0  0  0  0  0  0
   10.9964   -1.9867    0.5913 C   0  0  0  0  0  0  0  0  0  0  0  0
   12.3224   -2.3702    0.4832 C   0  0  0  0  0  0  0  0  0  0  0  0
    9.2408   -0.2788    1.3701 C   0  0  2  0  0  0  0  0  0  0  0  0
    9.2129   -0.0075    2.4348 H   0  0  0  0  0  0  0  0  0  0  0  0
    8.2239   -1.3828    1.1479 C   0  0  0  0  0  0  0  0  0  0  0  0
    7.9332   -1.3109   -0.2892 N   0  0  0  0  0  0  0  0  0  0  0  0
    7.8501    0.1170   -0.6088 C   0  0  0  0  0  0  0  0  0  0  0  0
    8.6758    0.8126    0.4785 C   0  0  1  0  0  0  0  0  0  0  0  0
    7.8863    1.7728    1.2391 N   0  0  0  0  0  0  0  0  0  0  0  0
    6.8316    1.4504    2.1850 C   0  0  0  0  0  0  0  0  0  0  0  0
    8.1027    3.0575    0.7839 C   0  0  0  0  0  0  0  0  0  0  0  0
    7.4830    4.0137    1.2230 O   0  0  0  0  0  0  0  0  0  0  0  0
    9.0643    3.0133   -0.2059 N   0  0  0  0  0  0  0  0  0  0  0  0
    9.6050    1.7576   -0.2816 C   0  0  0  0  0  0  0  0  0  0  0  0
   10.5947    1.4405   -0.9289 O   0  0  0  0  0  0  0  0  0  0  0  0
    9.3966    4.0750   -1.0726 C   0  0  0  0  0  0  0  0  0  0  0  0
    9.0966    5.3803   -0.6891 C   0  0  0  0  0  0  0  0  0  0  0  0
    9.2544    6.4352   -1.5732 C   0  0  0  0  0  0  0  0  0  0  0  0
    8.8192    8.0151   -1.0606 Cl  0  0  0  0  0  0  0  0  0  0  0  0
    9.7339    6.2148   -2.8553 C   0  0  0  0  0  0  0  0  0  0  0  0
   10.0795    4.9238   -3.2408 C   0  0  0  0  0  0  0  0  0  0  0  0
    9.9273    3.8528   -2.3577 C   0  0  0  0  0  0  0  0  0  0  0  0
   10.6541    4.6515   -4.8406 Cl  0  0  0  0  0  0  0  0  0  0  0  0
    6.6914   -1.9609   -0.6849 C   0  0  0  0  0  0  0  0  0  0  0  0
    6.7431   -3.4364   -0.5148 C   0  0  0  0  0  0  0  0  0  0  0  0
    5.6597   -4.4003   -1.4095 S   0  0  0  0  0  0  0  0  0  0  0  0
    6.2163   -5.8202   -0.6373 C   0  0  0  0  0  0  0  0  0  0  0  0
    7.2230   -5.5944    0.2757 C   0  0  0  0  0  0  0  0  0  0  0  0
    7.5302   -4.2164    0.2989 C   0  0  0  0  0  0  0  0  0  0  0  0
    7.9314   -6.5358    1.1347 C   0  0  0  0  0  0  0  0  0  0  0  0
    8.8024   -6.1901    1.9225 O   0  0  0  0  0  0  0  0  0  0  0  0
    7.5522   -7.8246    1.0124 O   0  0  0  0  0  0  0  0  0  0  0  0
   13.7237    0.7028    0.8829 H   0  0  0  0  0  0  0  0  0  0  0  0
   11.4489    1.2332    1.5958 H   0  0  0  0  0  0  0  0  0  0  0  0
   10.2494   -2.7179    0.2946 H   0  0  0  0  0  0  0  0  0  0  0  0
   12.5556   -3.4092    0.2644 H   0  0  0  0  0  0  0  0  0  0  0  0
    7.3096   -1.3028    1.7350 H   0  0  0  0  0  0  0  0  0  0  0  0
    8.6874   -2.2839    1.5225 H   0  0  0  0  0  0  0  0  0  0  0  0
    6.8143    0.4785   -0.5905 H   0  0  0  0  0  0  0  0  0  0  0  0
    8.2336    0.2880   -1.6234 H   0  0  0  0  0  0  0  0  0  0  0  0
    6.7346    0.3841    2.3550 H   0  0  0  0  0  0  0  0  0  0  0  0
    5.8722    1.8287    1.8232 H   0  0  0  0  0  0  0  0  0  0  0  0
    7.0745    1.9245    3.1381 H   0  0  0  0  0  0  0  0  0  0  0  0
    8.7348    5.5967    0.3107 H   0  0  0  0  0  0  0  0  0  0  0  0
    9.8334    7.0453   -3.5451 H   0  0  0  0  0  0  0  0  0  0  0  0
   10.1739    2.8535   -2.7165 H   0  0  0  0  0  0  0  0  0  0  0  0
    6.4939   -1.7308   -1.7423 H   0  0  0  0  0  0  0  0  0  0  0  0
    5.8475   -1.5601   -0.1078 H   0  0  0  0  0  0  0  0  0  0  0  0
    5.7420   -6.7407   -0.9215 H   0  0  0  0  0  0  0  0  0  0  0  0
    8.3160   -3.8851    0.9499 H   0  0  0  0  0  0  0  0  0  0  0  0
    6.8537   -7.9421    0.3494 H   0  0  0  0  0  0  0  0  0  0  0  0
  1  2  3  0  0  0  0
  2  3  1  0  0  0  0
  3  4  2  0  0  0  0
  3  8  1  0  0  0  0
  4  5  1  0  0  0  0
  4 39  1  0  0  0  0
  5  6  2  0  0  0  0
  5 40  1  0  0  0  0
  6  7  1  0  0  0  0
  6  9  1  0  0  0  0
  7  8  2  0  0  0  0
  7 41  1  0  0  0  0
  8 42  1  0  0  0  0
  9 10  1  1  0  0  0
  9 11  1  0  0  0  0
  9 14  1  0  0  0  0
 11 12  1  0  0  0  0
 11 43  1  0  0  0  0
 11 44  1  0  0  0  0
 12 13  1  0  0  0  0
 12 30  1  0  0  0  0
 13 45  1  0  0  0  0
 13 46  1  0  0  0  0
 14 13  1  6  0  0  0
 14 15  1  0  0  0  0
 14 20  1  0  0  0  0
 15 16  1  0  0  0  0
 15 17  1  0  0  0  0
 16 47  1  0  0  0  0
 16 48  1  0  0  0  0
 16 49  1  0  0  0  0
 17 18  2  0  0  0  0
 17 19  1  0  0  0  0
 19 20  1  0  0  0  0
 19 22  1  0  0  0  0
 20 21  2  0  0  0  0
 22 23  2  0  0  0  0
 22 28  1  0  0  0  0
 23 24  1  0  0  0  0
 23 50  1  0  0  0  0
 24 25  1  0  0  0  0
 24 26  2  0  0  0  0
 26 27  1  0  0  0  0
 26 51  1  0  0  0  0
 27 28  2  0  0  0  0
 27 29  1  0  0  0  0
 28 52  1  0  0  0  0
 30 31  1  0  0  0  0
 30 53  1  0  0  0  0
 30 54  1  0  0  0  0
 31 32  1  0  0  0  0
 31 35  2  0  0  0  0
 32 33  1  0  0  0  0
 33 34  2  0  0  0  0
 33 55  1  0  0  0  0
 34 35  1  0  0  0  0
 34 36  1  0  0  0  0
 35 56  1  0  0  0  0
 36 37  2  0  0  0  0
 36 38  1  0  0  0  0
 38 57  1  0  0  0  0
M  END
$$$$
