2IH
 OpenBabel04121316043D

 34 35  0  0  0  0  0  0  0  0999 V2000
    0.9336    0.0533   -0.0453 C   0  0  0  0  0  0  0  0  0  0  0  0
    0.4137    0.4374   -1.4174 C   0  0  0  0  0  0  0  0  0  0  0  0
   -1.1073    0.4388   -1.4350 C   0  0  0  0  0  0  0  0  0  0  0  0
   -1.5906    0.8534   -2.7319 N   0  0  0  0  0  0  0  0  0  0  0  0
   -2.0493    0.0410   -3.7250 C   0  0  0  0  0  0  0  0  0  0  0  0
   -2.3215    0.7290   -4.8106 N   0  0  0  0  0  0  0  0  0  0  0  0
   -2.0223    2.0319   -4.4995 C   0  0  0  0  0  0  0  0  0  0  0  0
   -1.5713    2.1335   -3.2077 C   0  0  0  0  0  0  0  0  0  0  0  0
    2.4548    0.0644   -0.0467 C   0  0  0  0  0  0  0  0  0  0  0  0
    2.9755   -0.3198    1.3251 C   0  0  0  0  0  0  0  0  0  0  0  0
    4.4967   -0.3209    1.3418 C   0  0  0  0  0  0  0  0  0  0  0  0
    4.9799   -0.7350    2.6389 N   0  0  0  0  0  0  0  0  0  0  0  0
    5.4245    0.0792    3.6370 C   0  0  0  0  0  0  0  0  0  0  0  0
    5.6847   -0.6074    4.7265 N   0  0  0  0  0  0  0  0  0  0  0  0
    5.3974   -1.9118    4.4111 C   0  0  0  0  0  0  0  0  0  0  0  0
    4.9680   -2.0163    3.1120 C   0  0  0  0  0  0  0  0  0  0  0  0
    0.5649   -0.9428    0.2277 H   0  0  0  0  0  0  0  0  0  0  0  0
    0.5570    0.7577    0.7065 H   0  0  0  0  0  0  0  0  0  0  0  0
    0.7975   -0.2588   -2.1742 H   0  0  0  0  0  0  0  0  0  0  0  0
    0.7967    1.4308   -1.6858 H   0  0  0  0  0  0  0  0  0  0  0  0
   -1.5102    1.1394   -0.6945 H   0  0  0  0  0  0  0  0  0  0  0  0
   -1.5079   -0.5568   -1.2133 H   0  0  0  0  0  0  0  0  0  0  0  0
   -2.1525   -1.0318   -3.6156 H   0  0  0  0  0  0  0  0  0  0  0  0
   -2.1382    2.8274   -5.2237 H   0  0  0  0  0  0  0  0  0  0  0  0
   -1.2260    2.9709   -2.6162 H   0  0  0  0  0  0  0  0  0  0  0  0
    2.8232    1.0606   -0.3197 H   0  0  0  0  0  0  0  0  0  0  0  0
    2.8312   -0.6398   -0.7988 H   0  0  0  0  0  0  0  0  0  0  0  0
    2.5928   -1.3132    1.5938 H   0  0  0  0  0  0  0  0  0  0  0  0
    2.5917    0.3764    2.0820 H   0  0  0  0  0  0  0  0  0  0  0  0
    4.8970    0.6748    1.1202 H   0  0  0  0  0  0  0  0  0  0  0  0
    4.8993   -1.0215    0.6012 H   0  0  0  0  0  0  0  0  0  0  0  0
    5.5253    1.1523    3.5285 H   0  0  0  0  0  0  0  0  0  0  0  0
    5.5062   -2.7066    5.1372 H   0  0  0  0  0  0  0  0  0  0  0  0
    4.6389   -2.8560    2.5147 H   0  0  0  0  0  0  0  0  0  0  0  0
  1  2  1  0  0  0  0
  1  9  1  0  0  0  0
  1 17  1  0  0  0  0
  1 18  1  0  0  0  0
  2  3  1  0  0  0  0
  2 19  1  0  0  0  0
  2 20  1  0  0  0  0
  3  4  1  0  0  0  0
  3 21  1  0  0  0  0
  3 22  1  0  0  0  0
  4  5  1  0  0  0  0
  4  8  1  0  0  0  0
  5  6  2  0  0  0  0
  5 23  1  0  0  0  0
  6  7  1  0  0  0  0
  7  8  2  0  0  0  0
  7 24  1  0  0  0  0
  8 25  1  0  0  0  0
  9 10  1  0  0  0  0
  9 26  1  0  0  0  0
  9 27  1  0  0  0  0
 10 11  1  0  0  0  0
 10 28  1  0  0  0  0
 10 29  1  0  0  0  0
 11 12  1  0  0  0  0
 11 30  1  0  0  0  0
 11 31  1  0  0  0  0
 12 13  1  0  0  0  0
 12 16  1  0  0  0  0
 13 14  2  0  0  0  0
 13 32  1  0  0  0  0
 14 15  1  0  0  0  0
 15 16  2  0  0  0  0
 15 33  1  0  0  0  0
 16 34  1  0  0  0  0
M  END
$$$$
