2IM
 OpenBabel04121316043D

 17 17  0  0  0  0  0  0  0  0999 V2000
    1.1454    0.1762    0.2057 N   0  0  0  0  0  0  0  0  0  0  0  0
    2.4193    0.0757    0.1302 C   0  0  0  0  0  0  0  0  0  0  0  0
    3.1380   -1.2552    0.0995 C   0  0  0  0  0  0  0  0  0  0  0  0
    4.0850   -1.2736   -1.0974 C   0  0  0  0  0  0  0  0  0  0  0  0
    4.9899   -0.0320   -1.1007 C   0  0  0  0  0  0  0  0  0  0  0  0
    4.1456    1.2432   -1.0677 C   0  0  0  0  0  0  0  0  0  0  0  0
    3.2547    1.1644    0.0808 N   0  0  0  0  0  0  0  0  0  0  0  0
    0.7097   -0.7579    0.2031 H   0  0  0  0  0  0  0  0  0  0  0  0
    2.4373   -2.0938    0.0780 H   0  0  0  0  0  0  0  0  0  0  0  0
    3.7141   -1.3165    1.0315 H   0  0  0  0  0  0  0  0  0  0  0  0
    3.4967   -1.2917   -2.0231 H   0  0  0  0  0  0  0  0  0  0  0  0
    4.6965   -2.1807   -1.0719 H   0  0  0  0  0  0  0  0  0  0  0  0
    5.6374   -0.0413   -1.9832 H   0  0  0  0  0  0  0  0  0  0  0  0
    5.6372   -0.0535   -0.2149 H   0  0  0  0  0  0  0  0  0  0  0  0
    3.5667    1.3289   -1.9987 H   0  0  0  0  0  0  0  0  0  0  0  0
    4.7803    2.1311   -0.9948 H   0  0  0  0  0  0  0  0  0  0  0  0
    2.8446    2.0374    0.3879 H   0  0  0  0  0  0  0  0  0  0  0  0
  1  2  2  0  0  0  0
  1  8  1  0  0  0  0
  2  3  1  0  0  0  0
  2  7  1  0  0  0  0
  3  4  1  0  0  0  0
  3  9  1  0  0  0  0
  3 10  1  0  0  0  0
  4  5  1  0  0  0  0
  4 11  1  0  0  0  0
  4 12  1  0  0  0  0
  5  6  1  0  0  0  0
  5 13  1  0  0  0  0
  5 14  1  0  0  0  0
  6  7  1  0  0  0  0
  6 15  1  0  0  0  0
  6 16  1  0  0  0  0
  7 17  1  0  0  0  0
M  END
$$$$
