2KT
 OpenBabel04121316043D

 13 12  0  0  0  0  0  0  0  0999 V2000
    1.0457    0.0783    0.0433 C   0  0  0  0  0  0  0  0  0  0  0  0
    2.5624    0.0842   -0.0045 C   0  0  0  0  0  0  0  0  0  0  0  0
    3.0682    0.2603   -1.4186 C   0  0  0  0  0  0  0  0  0  0  0  0
    2.3778    0.3857   -2.4259 O   0  0  0  0  0  0  0  0  0  0  0  0
    4.5847    0.2821   -1.5933 C   0  0  0  0  0  0  0  0  0  0  0  0
    5.3509    0.1653   -0.6554 O   0  0  0  0  0  0  0  0  0  0  0  0
    4.9423    0.4422   -2.8796 O   0  0  0  0  0  0  0  0  0  0  0  0
    0.6878   -0.0495    1.0695 H   0  0  0  0  0  0  0  0  0  0  0  0
    0.6426   -0.7376   -0.5656 H   0  0  0  0  0  0  0  0  0  0  0  0
    0.6426    1.0186   -0.3469 H   0  0  0  0  0  0  0  0  0  0  0  0
    2.9452   -0.8622    0.3929 H   0  0  0  0  0  0  0  0  0  0  0  0
    2.9452    0.9043    0.6128 H   0  0  0  0  0  0  0  0  0  0  0  0
    4.1453    0.5138   -3.4543 H   0  0  0  0  0  0  0  0  0  0  0  0
  1  2  1  0  0  0  0
  1  8  1  0  0  0  0
  1  9  1  0  0  0  0
  1 10  1  0  0  0  0
  2  3  1  0  0  0  0
  2 11  1  0  0  0  0
  2 12  1  0  0  0  0
  3  4  2  0  0  0  0
  3  5  1  0  0  0  0
  5  6  2  0  0  0  0
  5  7  1  0  0  0  0
  7 13  1  0  0  0  0
M  END
$$$$
