2KU
 OpenBabel04121316043D

 28 29  0  0  0  0  0  0  0  0999 V2000
    0.8884    0.0103    0.0210 C   0  0  0  0  0  0  0  0  0  0  0  0
    2.3098    0.0195    0.0336 O   0  0  0  0  0  0  0  0  0  0  0  0
    2.8021    1.1835    0.6901 C   0  0  0  0  0  0  0  0  0  0  0  0
    4.3234    1.1530    0.6799 C   0  0  0  0  0  0  0  0  0  0  0  0
    4.8593    2.3961    1.3647 C   0  0  0  0  0  0  0  0  0  0  0  0
    6.3140    2.4434    1.2802 N   0  0  0  0  0  0  0  0  0  0  0  0
    6.8924    3.5321    1.9327 C   0  0  0  0  0  0  0  0  0  0  0  0
    7.9516    3.3577    2.7667 N   0  0  0  0  0  0  0  0  0  0  0  0
    8.4816    4.4541    3.3713 C   0  0  0  0  0  0  0  0  0  0  0  0
    8.1209    5.7523    3.2368 N   0  0  0  0  0  0  0  0  0  0  0  0
    7.1010    5.8676    2.3782 C   0  0  0  0  0  0  0  0  0  0  0  0
    6.4445    4.8468    1.7103 C   0  0  0  0  0  0  0  0  0  0  0  0
    5.4469    5.3539    0.9046 N   0  0  0  0  0  0  0  0  0  0  0  0
    5.4971    6.6562    1.0749 C   0  0  0  0  0  0  0  0  0  0  0  0
    6.4771    7.0050    1.9581 N   0  0  0  0  0  0  0  0  0  0  0  0
    6.7112    7.9459    2.2522 H   0  0  0  0  0  0  0  0  0  0  0  0
    0.5522   -0.8935   -0.4920 H   0  0  0  0  0  0  0  0  0  0  0  0
    0.5061    0.8842   -0.5158 H   0  0  0  0  0  0  0  0  0  0  0  0
    0.5013    0.0002    1.0446 H   0  0  0  0  0  0  0  0  0  0  0  0
    2.4318    1.2034    1.7222 H   0  0  0  0  0  0  0  0  0  0  0  0
    2.4370    2.0771    0.1688 H   0  0  0  0  0  0  0  0  0  0  0  0
    4.6875    1.1051   -0.3535 H   0  0  0  0  0  0  0  0  0  0  0  0
    4.6892    0.2467    1.1760 H   0  0  0  0  0  0  0  0  0  0  0  0
    4.5108    2.4267    2.4077 H   0  0  0  0  0  0  0  0  0  0  0  0
    4.4195    3.2558    0.8508 H   0  0  0  0  0  0  0  0  0  0  0  0
    6.8349    1.5801    1.3493 H   0  0  0  0  0  0  0  0  0  0  0  0
    9.3017    4.2670    4.0606 H   0  0  0  0  0  0  0  0  0  0  0  0
    4.8506    7.3667    0.5840 H   0  0  0  0  0  0  0  0  0  0  0  0
  1  2  1  0  0  0  0
  1 17  1  0  0  0  0
  1 18  1  0  0  0  0
  1 19  1  0  0  0  0
  2  3  1  0  0  0  0
  3  4  1  0  0  0  0
  3 20  1  0  0  0  0
  3 21  1  0  0  0  0
  4  5  1  0  0  0  0
  4 22  1  0  0  0  0
  4 23  1  0  0  0  0
  5  6  1  0  0  0  0
  5 24  1  0  0  0  0
  5 25  1  0  0  0  0
  6  7  1  0  0  0  0
  6 26  1  0  0  0  0
  7  8  2  0  0  0  0
  7 12  1  0  0  0  0
  8  9  1  0  0  0  0
  9 10  2  0  0  0  0
  9 27  1  0  0  0  0
 10 11  1  0  0  0  0
 11 12  2  0  0  0  0
 11 15  1  0  0  0  0
 12 13  1  0  0  0  0
 13 14  2  0  0  0  0
 14 15  1  0  0  0  0
 14 28  1  0  0  0  0
 15 16  1  0  0  0  0
M  END
$$$$
