2LI
 OpenBabel04121316043D

 73 76  0  0  1  0  0  0  0  0999 V2000
    8.7189    2.0633   -4.5326 C   0  0  0  0  0  0  0  0  0  0  0  0
    8.1860    2.7048   -3.2781 C   0  0  0  0  0  0  0  0  0  0  0  0
    7.2894    3.5432   -3.2990 O   0  0  0  0  0  0  0  0  0  0  0  0
    8.7759    2.3634   -2.0898 N   0  0  0  0  0  0  0  0  0  0  0  0
    9.7172    1.2619   -1.8998 C   0  0  2  0  0  0  0  0  0  0  0  0
   10.2482    1.1404   -2.8514 H   0  0  0  0  0  0  0  0  0  0  0  0
    8.9388   -0.1337   -1.7474 C   0  0  1  0  0  0  0  0  0  0  0  0
    9.7191   -0.8975   -1.5774 H   0  0  0  0  0  0  0  0  0  0  0  0
    7.8810   -0.1775   -0.6624 C   0  0  0  0  0  0  0  0  0  0  0  0
    8.7629   -0.0415    0.3876 N   0  0  0  0  0  0  0  0  0  0  0  0
    8.2937    0.1763    1.7046 C   0  0  1  0  0  0  0  0  0  0  0  0
    9.0512   -1.2154    2.6525 C   0  0  0  0  0  0  0  0  0  0  0  0
   10.2583   -0.9031    4.0443 C   0  0  0  0  0  0  0  0  0  0  0  0
   11.0066    0.7808    4.2766 C   0  0  0  0  0  0  0  0  0  0  0  0
   10.5675    2.1052    3.3964 C   0  0  0  0  0  0  0  0  0  0  0  0
    9.0453    1.9051    1.9477 C   0  0  0  0  0  0  0  0  0  0  0  0
   10.8413    3.1398    4.4022 C   0  0  0  0  0  0  0  0  0  0  0  0
   11.2217    2.6706    5.5950 N   0  0  0  0  0  0  0  0  0  0  0  0
   11.2839    1.3217    5.5176 N   0  0  0  0  0  0  0  0  0  0  0  0
   11.4831    0.8237    6.3804 H   0  0  0  0  0  0  0  0  0  0  0  0
    6.8091    0.3673    1.9262 C   0  0  0  0  0  0  0  0  0  0  0  0
    6.0643   -0.7783    1.9410 C   0  0  0  0  0  0  0  0  0  0  0  0
    4.7021   -0.6956    2.0001 C   0  0  0  0  0  0  0  0  0  0  0  0
    4.0884    0.5408    1.8288 C   0  0  0  0  0  0  0  0  0  0  0  0
    4.8151    1.7239    1.8938 C   0  0  0  0  0  0  0  0  0  0  0  0
    6.1501    1.5860    2.1352 C   0  0  0  0  0  0  0  0  0  0  0  0
    4.2395    3.1132    1.6632 C   0  0  0  0  0  0  0  0  0  0  0  0
    3.6959    3.1365    0.2304 C   0  0  0  0  0  0  0  0  0  0  0  0
    3.1444    3.3079    2.7024 C   0  0  0  0  0  0  0  0  0  0  0  0
    5.2456    4.2944    1.7878 C   0  0  0  0  0  0  0  0  0  0  0  0
    8.1499   -0.5057   -2.8599 O   0  0  0  0  0  0  0  0  0  0  0  0
   10.9046    1.6841   -0.8676 C   0  0  0  0  0  0  0  0  0  0  0  0
   10.7150    2.0377    0.6863 C   0  0  0  0  0  0  0  0  0  0  0  0
   10.4195    0.6619    1.9540 C   0  0  0  0  0  0  0  0  0  0  0  0
    9.1065    0.9096    3.4117 C   0  0  0  0  0  0  0  0  0  0  0  0
    8.2890    0.0687    4.1217 F   0  0  0  0  0  0  0  0  0  0  0  0
    8.4512    2.5736    3.7123 C   0  0  0  0  0  0  0  0  0  0  0  0
    8.9189    3.9101    2.5569 C   0  0  0  0  0  0  0  0  0  0  0  0
    9.9303    3.6678    1.0327 C   0  0  0  0  0  0  0  0  0  0  0  0
    8.0597    4.9349    2.5755 F   0  0  0  0  0  0  0  0  0  0  0  0
    8.2215    2.4784   -5.4079 H   0  0  0  0  0  0  0  0  0  0  0  0
    8.5185    0.9962   -4.5406 H   0  0  0  0  0  0  0  0  0  0  0  0
    9.7948    2.2333   -4.6170 H   0  0  0  0  0  0  0  0  0  0  0  0
    8.2840    2.7401   -1.2862 H   0  0  0  0  0  0  0  0  0  0  0  0
    7.4020   -1.1382   -0.5116 H   0  0  0  0  0  0  0  0  0  0  0  0
    7.1980    0.6773   -0.6866 H   0  0  0  0  0  0  0  0  0  0  0  0
    9.1392    0.8645    0.1688 H   0  0  0  0  0  0  0  0  0  0  0  0
    9.5495   -1.8765    1.9380 H   0  0  0  0  0  0  0  0  0  0  0  0
    8.2027   -1.7670    3.0982 H   0  0  0  0  0  0  0  0  0  0  0  0
   11.0804   -1.5709    3.8506 H   0  0  0  0  0  0  0  0  0  0  0  0
    9.6586   -1.1725    4.9575 H   0  0  0  0  0  0  0  0  0  0  0  0
    9.9797    2.4303    2.1278 H   0  0  0  0  0  0  0  0  0  0  0  0
    8.2018    2.5066    1.5496 H   0  0  0  0  0  0  0  0  0  0  0  0
   10.4933    4.1684    4.3678 H   0  0  0  0  0  0  0  0  0  0  0  0
    6.5698   -1.7290    1.8691 H   0  0  0  0  0  0  0  0  0  0  0  0
    4.1538   -1.6185    2.0821 H   0  0  0  0  0  0  0  0  0  0  0  0
    3.0275    0.5681    1.6344 H   0  0  0  0  0  0  0  0  0  0  0  0
    6.6094    2.5112    2.4306 H   0  0  0  0  0  0  0  0  0  0  0  0
    2.9736    2.3319    0.0651 H   0  0  0  0  0  0  0  0  0  0  0  0
    4.5079    2.9966   -0.4974 H   0  0  0  0  0  0  0  0  0  0  0  0
    3.2012    4.0863    0.0137 H   0  0  0  0  0  0  0  0  0  0  0  0
    2.3987    2.5102    2.6405 H   0  0  0  0  0  0  0  0  0  0  0  0
    2.6356    4.2626    2.5620 H   0  0  0  0  0  0  0  0  0  0  0  0
    3.5729    3.2777    3.7127 H   0  0  0  0  0  0  0  0  0  0  0  0
    6.0768    4.1940    1.0745 H   0  0  0  0  0  0  0  0  0  0  0  0
    5.6721    4.3530    2.7975 H   0  0  0  0  0  0  0  0  0  0  0  0
    4.7738    5.2635    1.5959 H   0  0  0  0  0  0  0  0  0  0  0  0
    8.7400   -0.6621   -3.6015 H   0  0  0  0  0  0  0  0  0  0  0  0
   11.3588    2.5854   -1.3219 H   0  0  0  0  0  0  0  0  0  0  0  0
   11.6483    0.8854   -0.9155 H   0  0  0  0  0  0  0  0  0  0  0  0
   10.7938   -0.2797    1.4571 H   0  0  0  0  0  0  0  0  0  0  0  0
    7.6763    2.5067    4.4596 H   0  0  0  0  0  0  0  0  0  0  0  0
    9.6343    4.2866    0.1684 H   0  0  0  0  0  0  0  0  0  0  0  0
  1  2  1  0  0  0  0
  1 41  1  0  0  0  0
  1 42  1  0  0  0  0
  1 43  1  0  0  0  0
  2  3  2  0  0  0  0
  2  4  1  0  0  0  0
  4 44  1  0  0  0  0
  5  7  1  0  0  0  0
  5 32  1  0  0  0  0
  5  6  1  6  0  0  0
  5  4  1  0  0  0  0
  7  8  1  1  0  0  0
  7  9  1  0  0  0  0
  7 31  1  0  0  0  0
  9 10  1  0  0  0  0
  9 45  1  0  0  0  0
  9 46  1  0  0  0  0
 10 47  1  0  0  0  0
 11 12  1  0  0  0  0
 11 16  1  0  0  0  0
 11 21  1  1  0  0  0
 11 10  1  0  0  0  0
 12 13  1  0  0  0  0
 12 48  1  0  0  0  0
 12 49  1  0  0  0  0
 13 14  1  0  0  0  0
 13 50  1  0  0  0  0
 13 51  1  0  0  0  0
 14 15  2  0  0  0  0
 14 19  1  0  0  0  0
 15 16  1  0  0  0  0
 15 17  1  0  0  0  0
 16 52  1  0  0  0  0
 16 53  1  0  0  0  0
 17 18  2  0  0  0  0
 17 54  1  0  0  0  0
 18 19  1  0  0  0  0
 19 20  1  0  0  0  0
 21 22  2  0  0  0  0
 21 26  1  0  0  0  0
 22 23  1  0  0  0  0
 22 55  1  0  0  0  0
 23 24  2  0  0  0  0
 23 56  1  0  0  0  0
 24 25  1  0  0  0  0
 24 57  1  0  0  0  0
 25 26  2  0  0  0  0
 25 27  1  0  0  0  0
 26 58  1  0  0  0  0
 27 28  1  0  0  0  0
 27 29  1  0  0  0  0
 27 30  1  0  0  0  0
 28 59  1  0  0  0  0
 28 60  1  0  0  0  0
 28 61  1  0  0  0  0
 29 62  1  0  0  0  0
 29 63  1  0  0  0  0
 29 64  1  0  0  0  0
 30 65  1  0  0  0  0
 30 66  1  0  0  0  0
 30 67  1  0  0  0  0
 31 68  1  0  0  0  0
 32 33  1  0  0  0  0
 32 69  1  0  0  0  0
 32 70  1  0  0  0  0
 33 34  2  0  0  0  0
 33 39  1  0  0  0  0
 34 35  1  0  0  0  0
 34 71  1  0  0  0  0
 35 36  1  0  0  0  0
 35 37  2  0  0  0  0
 37 38  1  0  0  0  0
 37 72  1  0  0  0  0
 38 39  2  0  0  0  0
 38 40  1  0  0  0  0
 39 73  1  0  0  0  0
M  END
$$$$
