2M5
 OpenBabel04121316043D

 30 30  0  0  1  0  0  0  0  0999 V2000
    1.0104    0.3738    0.0385 C   0  0  0  0  0  0  0  0  0  0  0  0
    2.3774    0.0118    0.1231 O   0  0  0  0  0  0  0  0  0  0  0  0
    2.8960   -0.8952   -0.8569 C   0  0  1  0  0  0  0  0  0  0  0  0
    3.3492   -0.3005   -1.6600 H   0  0  0  0  0  0  0  0  0  0  0  0
    3.9878   -1.6289   -0.2451 O   0  0  0  0  0  0  0  0  0  0  0  0
    3.5427   -2.4754    0.8368 C   0  0  2  0  0  0  0  0  0  0  0  0
    3.0864   -1.8266    1.5964 H   0  0  0  0  0  0  0  0  0  0  0  0
    4.7741   -3.1444    1.4933 C   0  0  1  0  0  0  0  0  0  0  0  0
    5.3344   -3.7239    0.7513 H   0  0  0  0  0  0  0  0  0  0  0  0
    5.6643   -2.1335    1.9849 O   0  0  0  0  0  0  0  0  0  0  0  0
    4.4089   -4.0281    2.6804 C   0  0  0  0  0  0  0  0  0  0  0  0
    2.5252   -3.5183    0.3320 C   0  0  2  0  0  0  0  0  0  0  0  0
    3.0152   -4.2401   -0.3343 H   0  0  0  0  0  0  0  0  0  0  0  0
    1.3838   -2.8318   -0.4017 C   0  0  1  0  0  0  0  0  0  0  0  0
    0.7913   -2.3098    0.3496 H   0  0  0  0  0  0  0  0  0  0  0  0
    1.8856   -1.8867   -1.4823 C   0  0  2  0  0  0  0  0  0  0  0  0
    1.0422   -1.3614   -1.9406 H   0  0  0  0  0  0  0  0  0  0  0  0
    2.4860   -2.6543   -2.5390 O   0  0  0  0  0  0  0  0  0  0  0  0
    0.4938   -3.8072   -0.9579 O   0  0  0  0  0  0  0  0  0  0  0  0
    1.8919   -4.2634    1.3817 O   0  0  0  0  0  0  0  0  0  0  0  0
    0.8204    1.1705    0.7611 H   0  0  0  0  0  0  0  0  0  0  0  0
    0.3676   -0.4508    0.3458 H   0  0  0  0  0  0  0  0  0  0  0  0
    0.7298    0.7104   -0.9613 H   0  0  0  0  0  0  0  0  0  0  0  0
    5.8606   -1.5566    1.2246 H   0  0  0  0  0  0  0  0  0  0  0  0
    3.8626   -4.9221    2.3710 H   0  0  0  0  0  0  0  0  0  0  0  0
    3.7965   -3.4706    3.4000 H   0  0  0  0  0  0  0  0  0  0  0  0
    5.2996   -4.3672    3.2152 H   0  0  0  0  0  0  0  0  0  0  0  0
    1.8407   -3.3606   -2.7424 H   0  0  0  0  0  0  0  0  0  0  0  0
    0.2972   -4.4105   -0.2110 H   0  0  0  0  0  0  0  0  0  0  0  0
    1.7100   -3.6472    2.1223 H   0  0  0  0  0  0  0  0  0  0  0  0
  1  2  1  0  0  0  0
  1 21  1  0  0  0  0
  1 22  1  0  0  0  0
  1 23  1  0  0  0  0
  2  3  1  0  0  0  0
  3  4  1  6  0  0  0
  3  5  1  0  0  0  0
  3 16  1  0  0  0  0
  5  6  1  0  0  0  0
  6  7  1  1  0  0  0
  6  8  1  0  0  0  0
  6 12  1  0  0  0  0
  8  9  1  6  0  0  0
  8 10  1  0  0  0  0
  8 11  1  0  0  0  0
 10 24  1  0  0  0  0
 11 25  1  0  0  0  0
 11 26  1  0  0  0  0
 11 27  1  0  0  0  0
 12 14  1  0  0  0  0
 12 20  1  0  0  0  0
 12 13  1  6  0  0  0
 14 15  1  1  0  0  0
 14 16  1  0  0  0  0
 14 19  1  0  0  0  0
 16 17  1  6  0  0  0
 16 18  1  0  0  0  0
 18 28  1  0  0  0  0
 19 29  1  0  0  0  0
 20 30  1  0  0  0  0
M  END
$$$$
