2MZ
 OpenBabel04121316043D

 12 12  0  0  0  0  0  0  0  0999 V2000
    1.0630    0.0496   -0.0576 C   0  0  0  0  0  0  0  0  0  0  0  0
    2.5433    0.0844   -0.0593 C   0  0  0  0  0  0  0  0  0  0  0  0
    3.3101    1.1546   -0.0637 N   0  0  0  0  0  0  0  0  0  0  0  0
    4.5987    0.6886   -0.0689 C   0  0  0  0  0  0  0  0  0  0  0  0
    4.6185   -0.6848   -0.0661 C   0  0  0  0  0  0  0  0  0  0  0  0
    3.3039   -1.0583   -0.0589 N   0  0  0  0  0  0  0  0  0  0  0  0
    2.9472   -2.0039   -0.0560 H   0  0  0  0  0  0  0  0  0  0  0  0
    0.6541    1.0645   -0.0566 H   0  0  0  0  0  0  0  0  0  0  0  0
    0.6908   -0.4697    0.8308 H   0  0  0  0  0  0  0  0  0  0  0  0
    0.6899   -0.4679   -0.9468 H   0  0  0  0  0  0  0  0  0  0  0  0
    5.4416    1.3672   -0.0751 H   0  0  0  0  0  0  0  0  0  0  0  0
    5.4254   -1.4029   -0.0691 H   0  0  0  0  0  0  0  0  0  0  0  0
  1  2  1  0  0  0  0
  1  8  1  0  0  0  0
  1  9  1  0  0  0  0
  1 10  1  0  0  0  0
  2  3  2  0  0  0  0
  2  6  1  0  0  0  0
  3  4  1  0  0  0  0
  4  5  2  0  0  0  0
  4 11  1  0  0  0  0
  5  6  1  0  0  0  0
  5 12  1  0  0  0  0
  6  7  1  0  0  0  0
M  END
$$$$
