2NO
 OpenBabel04121316043D

  4  3  0  0  0  0  0  0  0  0999 V2000
    1.0223   -0.0776   -0.0686 O   0  0  0  0  0  0  0  0  0  0  0  0
    2.3969    0.0724    0.0026 N   0  0  0  0  0  0  0  0  0  0  0  0
    2.9705   -0.9144   -0.4660 O   0  0  0  0  0  0  0  0  0  0  0  0
    0.7196    0.7555    0.3271 H   0  0  0  0  0  0  0  0  0  0  0  0
  1  2  1  0  0  0  0
  1  4  1  0  0  0  0
  2  3  2  0  0  0  0
M  END
$$$$
