2NP
 OpenBabel04121316043D

 26 25  0  0  1  0  0  0  0  0999 V2000
    2.9689    0.3724    1.3511 N   0  0  0  0  0  0  0  0  0  0  0  0
    2.5219   -0.1218    0.0289 C   0  0  2  0  0  0  0  0  0  0  0  0
    1.4267   -0.1283    0.0149 H   0  0  0  0  0  0  0  0  0  0  0  0
    2.9995   -1.5754   -0.2293 C   0  0  0  0  0  0  0  0  0  0  0  0
    3.6114   -1.9555   -1.2172 O   0  0  0  0  0  0  0  0  0  0  0  0
    2.6722   -2.4439    0.7558 O   0  0  0  0  0  0  0  0  0  0  0  0
    3.0098    0.8268   -1.0886 C   0  0  0  0  0  0  0  0  0  0  0  0
    4.5305    0.8990   -1.1270 C   0  0  0  0  0  0  0  0  0  0  0  0
    5.1207    1.7527   -2.2386 C   0  0  0  0  0  0  0  0  0  0  0  0
    6.6493    1.7226   -2.2122 C   0  0  0  0  0  0  0  0  0  0  0  0
    7.3591    1.0019   -1.3175 C   0  0  0  0  0  0  0  0  0  0  0  0
    7.2807    2.5625   -3.2704 C   0  0  0  0  0  0  0  0  0  0  0  0
    6.6219    3.2098   -4.0758 O   0  0  0  0  0  0  0  0  0  0  0  0
    8.6255    2.5771   -3.2871 O   0  0  0  0  0  0  0  0  0  0  0  0
    3.9892    0.3897    1.3915 H   0  0  0  0  0  0  0  0  0  0  0  0
    2.6678   -0.2103    2.1232 H   0  0  0  0  0  0  0  0  0  0  0  0
    2.1018   -2.0597    1.4430 H   0  0  0  0  0  0  0  0  0  0  0  0
    2.6037    1.8350   -0.9379 H   0  0  0  0  0  0  0  0  0  0  0  0
    2.6364    0.4727   -2.0573 H   0  0  0  0  0  0  0  0  0  0  0  0
    4.9304   -0.1105   -1.2497 H   0  0  0  0  0  0  0  0  0  0  0  0
    4.8950    1.2862   -0.1699 H   0  0  0  0  0  0  0  0  0  0  0  0
    4.7607    2.7824   -2.1207 H   0  0  0  0  0  0  0  0  0  0  0  0
    4.7566    1.3837   -3.2065 H   0  0  0  0  0  0  0  0  0  0  0  0
    6.8768    0.3897   -0.5602 H   0  0  0  0  0  0  0  0  0  0  0  0
    8.4335    0.9426   -1.2552 H   0  0  0  0  0  0  0  0  0  0  0  0
    9.0681    2.0295   -2.6206 H   0  0  0  0  0  0  0  0  0  0  0  0
  1 15  1  0  0  0  0
  1 16  1  0  0  0  0
  2  4  1  0  0  0  0
  2  7  1  0  0  0  0
  2  3  1  6  0  0  0
  2  1  1  0  0  0  0
  4  5  2  0  0  0  0
  4  6  1  0  0  0  0
  6 17  1  0  0  0  0
  7  8  1  0  0  0  0
  7 18  1  0  0  0  0
  7 19  1  0  0  0  0
  8  9  1  0  0  0  0
  8 20  1  0  0  0  0
  8 21  1  0  0  0  0
  9 10  1  0  0  0  0
  9 22  1  0  0  0  0
  9 23  1  0  0  0  0
 10 11  2  0  0  0  0
 10 12  1  0  0  0  0
 11 24  1  0  0  0  0
 11 25  1  0  0  0  0
 12 13  2  0  0  0  0
 12 14  1  0  0  0  0
 14 26  1  0  0  0  0
M  END
$$$$
