2NQ
 OpenBabel04121316043D

 54 58  0  0  0  0  0  0  0  0999 V2000
    0.8866   -0.0333    0.0964 F   0  0  0  0  0  0  0  0  0  0  0  0
    2.2218   -0.0236    0.0228 C   0  0  0  0  0  0  0  0  0  0  0  0
    2.8998    1.1908    0.0098 C   0  0  0  0  0  0  0  0  0  0  0  0
    4.2734    1.1987   -0.2026 C   0  0  0  0  0  0  0  0  0  0  0  0
    4.9568   -0.0206   -0.2865 C   0  0  0  0  0  0  0  0  0  0  0  0
    4.2889   -1.2336   -0.1293 C   0  0  0  0  0  0  0  0  0  0  0  0
    2.9038   -1.2325   -0.0422 C   0  0  0  0  0  0  0  0  0  0  0  0
    6.6689    0.0531   -0.6624 S   0  0  0  0  0  0  0  0  0  0  0  0
    6.7776    0.5594   -2.0094 O   0  0  0  0  0  0  0  0  0  0  0  0
    7.3055    0.7416    0.4487 O   0  0  0  0  0  0  0  0  0  0  0  0
    7.2240   -1.5318   -0.6586 N   0  0  0  0  0  0  0  0  0  0  0  0
    8.5749   -1.8232   -1.0119 C   0  0  0  0  0  0  0  0  0  0  0  0
    9.4754   -0.7975   -1.1925 C   0  0  0  0  0  0  0  0  0  0  0  0
   10.7965   -1.0230   -1.5354 C   0  0  0  0  0  0  0  0  0  0  0  0
   11.1798   -2.3624   -1.6243 C   0  0  0  0  0  0  0  0  0  0  0  0
   10.3570   -3.4178   -1.4236 N   0  0  0  0  0  0  0  0  0  0  0  0
    9.0749   -3.1158   -1.1326 C   0  0  0  0  0  0  0  0  0  0  0  0
    8.0710   -4.4942   -0.9214 Cl  0  0  0  0  0  0  0  0  0  0  0  0
   11.6822    0.1316   -1.6757 C   0  0  0  0  0  0  0  0  0  0  0  0
   11.2067    1.4490   -1.7627 C   0  0  0  0  0  0  0  0  0  0  0  0
   12.0656    2.5299   -1.6119 C   0  0  0  0  0  0  0  0  0  0  0  0
   13.4298    2.3445   -1.6873 C   0  0  0  0  0  0  0  0  0  0  0  0
   13.9369    1.0276   -1.7391 C   0  0  0  0  0  0  0  0  0  0  0  0
   13.0525   -0.0421   -1.6424 C   0  0  0  0  0  0  0  0  0  0  0  0
   15.3061    0.8035   -1.9718 C   0  0  0  0  0  0  0  0  0  0  0  0
   16.0914    1.9332   -2.1561 C   0  0  0  0  0  0  0  0  0  0  0  0
   15.5150    3.1903   -2.0573 C   0  0  0  0  0  0  0  0  0  0  0  0
   14.2129    3.4174   -1.8015 N   0  0  0  0  0  0  0  0  0  0  0  0
   15.8055   -0.4749   -2.1752 N   0  0  0  0  0  0  0  0  0  0  0  0
   15.9120   -1.4649   -1.0877 C   0  0  0  0  0  0  0  0  0  0  0  0
   15.6764   -2.8647   -1.6969 C   0  0  0  0  0  0  0  0  0  0  0  0
   16.5944   -3.1346   -2.7734 O   0  0  0  0  0  0  0  0  0  0  0  0
   16.4632   -2.1469   -3.8134 C   0  0  0  0  0  0  0  0  0  0  0  0
   16.7310   -0.7295   -3.2824 C   0  0  0  0  0  0  0  0  0  0  0  0
    2.3534    2.1182    0.1421 H   0  0  0  0  0  0  0  0  0  0  0  0
    4.8056    2.1437   -0.3094 H   0  0  0  0  0  0  0  0  0  0  0  0
    4.7955   -2.1867   -0.0840 H   0  0  0  0  0  0  0  0  0  0  0  0
    2.3568   -2.1689   -0.0244 H   0  0  0  0  0  0  0  0  0  0  0  0
    6.6035   -2.3264   -0.5761 H   0  0  0  0  0  0  0  0  0  0  0  0
    9.1601    0.2238   -1.0406 H   0  0  0  0  0  0  0  0  0  0  0  0
   12.2002   -2.6539   -1.8530 H   0  0  0  0  0  0  0  0  0  0  0  0
   10.1559    1.6771   -1.9311 H   0  0  0  0  0  0  0  0  0  0  0  0
   11.6476    3.5254   -1.4914 H   0  0  0  0  0  0  0  0  0  0  0  0
   13.4535   -1.0397   -1.5755 H   0  0  0  0  0  0  0  0  0  0  0  0
   17.1446    1.8437   -2.3839 H   0  0  0  0  0  0  0  0  0  0  0  0
   16.1088    4.0838   -2.2127 H   0  0  0  0  0  0  0  0  0  0  0  0
   15.2004   -1.2906   -0.2729 H   0  0  0  0  0  0  0  0  0  0  0  0
   16.9201   -1.4184   -0.6603 H   0  0  0  0  0  0  0  0  0  0  0  0
   14.6546   -2.9590   -2.0842 H   0  0  0  0  0  0  0  0  0  0  0  0
   15.8128   -3.6386   -0.9356 H   0  0  0  0  0  0  0  0  0  0  0  0
   15.4564   -2.2169   -4.2453 H   0  0  0  0  0  0  0  0  0  0  0  0
   17.1832   -2.3889   -4.6003 H   0  0  0  0  0  0  0  0  0  0  0  0
   16.5903   -0.0130   -4.0991 H   0  0  0  0  0  0  0  0  0  0  0  0
   17.7594   -0.6515   -2.9128 H   0  0  0  0  0  0  0  0  0  0  0  0
  1  2  1  0  0  0  0
  2  3  2  0  0  0  0
  2  7  1  0  0  0  0
  3  4  1  0  0  0  0
  3 35  1  0  0  0  0
  4  5  2  0  0  0  0
  4 36  1  0  0  0  0
  5  6  1  0  0  0  0
  5  8  1  0  0  0  0
  6  7  2  0  0  0  0
  6 37  1  0  0  0  0
  7 38  1  0  0  0  0
  8  9  2  0  0  0  0
  8 10  2  0  0  0  0
  8 11  1  0  0  0  0
 11 12  1  0  0  0  0
 11 39  1  0  0  0  0
 12 13  2  0  0  0  0
 12 17  1  0  0  0  0
 13 14  1  0  0  0  0
 13 40  1  0  0  0  0
 14 15  2  0  0  0  0
 14 19  1  0  0  0  0
 15 16  1  0  0  0  0
 15 41  1  0  0  0  0
 16 17  2  0  0  0  0
 17 18  1  0  0  0  0
 19 20  2  0  0  0  0
 19 24  1  0  0  0  0
 20 21  1  0  0  0  0
 20 42  1  0  0  0  0
 21 22  2  0  0  0  0
 21 43  1  0  0  0  0
 22 23  1  0  0  0  0
 22 28  1  0  0  0  0
 23 24  2  0  0  0  0
 23 25  1  0  0  0  0
 24 44  1  0  0  0  0
 25 26  2  0  0  0  0
 25 29  1  0  0  0  0
 26 27  1  0  0  0  0
 26 45  1  0  0  0  0
 27 28  2  0  0  0  0
 27 46  1  0  0  0  0
 29 30  1  0  0  0  0
 29 34  1  0  0  0  0
 30 31  1  0  0  0  0
 30 47  1  0  0  0  0
 30 48  1  0  0  0  0
 31 32  1  0  0  0  0
 31 49  1  0  0  0  0
 31 50  1  0  0  0  0
 32 33  1  0  0  0  0
 33 34  1  0  0  0  0
 33 51  1  0  0  0  0
 33 52  1  0  0  0  0
 34 53  1  0  0  0  0
 34 54  1  0  0  0  0
M  END
$$$$
