2OP
 OpenBabel04121316043D

 12 11  0  0  1  0  0  0  0  0999 V2000
    1.0634    0.0946    0.1708 O   0  0  0  0  0  0  0  0  0  0  0  0
    2.4105   -0.0389    0.1956 C   0  0  0  0  0  0  0  0  0  0  0  0
    2.9801   -0.4886    1.1832 O   0  0  0  0  0  0  0  0  0  0  0  0
    3.1161    0.3826   -1.1069 C   0  0  1  0  0  0  0  0  0  0  0  0
    2.8296   -0.3160   -1.9028 H   0  0  0  0  0  0  0  0  0  0  0  0
    2.8021    1.7033   -1.5296 O   0  0  0  0  0  0  0  0  0  0  0  0
    4.6274    0.2962   -0.9096 C   0  0  0  0  0  0  0  0  0  0  0  0
    0.6949    0.5652   -0.5950 H   0  0  0  0  0  0  0  0  0  0  0  0
    1.8745    1.7524   -1.8019 H   0  0  0  0  0  0  0  0  0  0  0  0
    4.9314   -0.7168   -0.6230 H   0  0  0  0  0  0  0  0  0  0  0  0
    4.9508    0.9823   -0.1183 H   0  0  0  0  0  0  0  0  0  0  0  0
    5.1694    0.5776   -1.8183 H   0  0  0  0  0  0  0  0  0  0  0  0
  1  2  1  0  0  0  0
  1  8  1  0  0  0  0
  2  3  2  0  0  0  0
  2  4  1  0  0  0  0
  4  5  1  6  0  0  0
  4  6  1  0  0  0  0
  4  7  1  0  0  0  0
  6  9  1  0  0  0  0
  7 10  1  0  0  0  0
  7 11  1  0  0  0  0
  7 12  1  0  0  0  0
M  END
$$$$
