2OS
 OpenBabel04121316043D

 68 69  0  0  1  0  0  0  0  0999 V2000
    9.2355    0.9947    5.8881 C   0  0  0  0  0  0  0  0  0  0  0  0
    8.5665    2.1255    5.1329 C   0  0  0  0  0  0  0  0  0  0  0  0
    8.9174    2.0494    3.6551 C   0  0  0  0  0  0  0  0  0  0  0  0
    8.2483    3.1770    2.8927 C   0  0  0  0  0  0  0  0  0  0  0  0
    8.5873    3.0768    1.4150 C   0  0  0  0  0  0  0  0  0  0  0  0
    7.8455    4.1665    0.6693 C   0  0  0  0  0  0  0  0  0  0  0  0
    7.9917    4.0114   -0.8313 C   0  0  0  0  0  0  0  0  0  0  0  0
    7.1095    5.0978   -1.4992 C   0  0  0  0  0  0  0  0  0  0  0  0
    6.4684    5.9200   -0.8910 O   0  0  0  0  0  0  0  0  0  0  0  0
    7.2829    5.1326   -2.8755 O   0  0  0  0  0  0  0  0  0  0  0  0
    6.9264    6.3827   -3.5649 C   0  0  1  0  0  0  0  0  0  0  0  0
    5.8309    6.4619   -3.5947 H   0  0  0  0  0  0  0  0  0  0  0  0
    7.5279    7.6734   -2.8988 C   0  0  2  0  0  0  0  0  0  0  0  0
    7.2464    7.7991   -1.8563 H   0  0  0  0  0  0  0  0  0  0  0  0
    6.9780    8.8517   -3.5517 O   0  0  0  0  0  0  0  0  0  0  0  0
    9.0605    7.7543   -3.0104 C   0  0  1  0  0  0  0  0  0  0  0  0
    9.3661    8.7723   -2.7321 H   0  0  0  0  0  0  0  0  0  0  0  0
   10.0785    6.8754   -2.3270 C   0  0  0  0  0  0  0  0  0  0  0  0
    9.4936    5.6695   -2.0403 O   0  0  0  0  0  0  0  0  0  0  0  0
    9.3517    7.5639   -4.3722 O   0  0  0  0  0  0  0  0  0  0  0  0
    8.9687    6.4555   -5.1355 C   0  0  1  0  0  0  0  0  0  0  0  0
    9.4965    5.5513   -4.8151 H   0  0  0  0  0  0  0  0  0  0  0  0
    7.4328    6.2880   -5.0452 C   0  0  2  0  0  0  0  0  0  0  0  0
    7.1528    5.3388   -5.5130 H   0  0  0  0  0  0  0  0  0  0  0  0
    6.8049    7.3358   -5.8198 O   0  0  0  0  0  0  0  0  0  0  0  0
    9.3279    6.7948   -6.4944 O   0  0  0  0  0  0  0  0  0  0  0  0
   10.7478    7.0400   -6.7003 C   0  0  2  0  0  0  0  0  0  0  0  0
   11.4083    5.6498   -6.9992 C   0  0  0  0  0  0  0  0  0  0  0  0
   11.2372    5.1993   -8.3533 O   0  0  0  0  0  0  0  0  0  0  0  0
   11.3434    7.7834   -5.6084 O   0  0  0  0  0  0  0  0  0  0  0  0
   10.9780    9.1986   -5.7905 C   0  0  1  0  0  0  0  0  0  0  0  0
   11.6716    9.7772   -5.1697 H   0  0  0  0  0  0  0  0  0  0  0  0
   11.1383    9.4166   -7.2737 C   0  0  2  0  0  0  0  0  0  0  0  0
   10.4000   10.1081   -7.6851 H   0  0  0  0  0  0  0  0  0  0  0  0
   11.0127    8.0162   -7.8781 C   0  0  2  0  0  0  0  0  0  0  0  0
   11.9805    7.7926   -8.3429 H   0  0  0  0  0  0  0  0  0  0  0  0
   10.0225    7.9322   -8.8942 O   0  0  0  0  0  0  0  0  0  0  0  0
   12.4290    9.9730   -7.5473 O   0  0  0  0  0  0  0  0  0  0  0  0
    9.5392    9.6844   -5.4600 C   0  0  0  0  0  0  0  0  0  0  0  0
    9.3119   11.0529   -5.7515 O   0  0  0  0  0  0  0  0  0  0  0  0
    8.9848    1.0481    6.9503 H   0  0  0  0  0  0  0  0  0  0  0  0
   10.3237    1.0528    5.7848 H   0  0  0  0  0  0  0  0  0  0  0  0
    8.9058    0.0247    5.5021 H   0  0  0  0  0  0  0  0  0  0  0  0
    8.8906    3.0884    5.5448 H   0  0  0  0  0  0  0  0  0  0  0  0
    7.4795    2.0643    5.2628 H   0  0  0  0  0  0  0  0  0  0  0  0
    8.5930    1.0858    3.2430 H   0  0  0  0  0  0  0  0  0  0  0  0
   10.0044    2.1098    3.5225 H   0  0  0  0  0  0  0  0  0  0  0  0
    8.5722    4.1480    3.2883 H   0  0  0  0  0  0  0  0  0  0  0  0
    7.1603    3.1221    3.0239 H   0  0  0  0  0  0  0  0  0  0  0  0
    8.2868    2.0985    1.0241 H   0  0  0  0  0  0  0  0  0  0  0  0
    9.6717    3.1694    1.2677 H   0  0  0  0  0  0  0  0  0  0  0  0
    8.2286    5.1474    0.9925 H   0  0  0  0  0  0  0  0  0  0  0  0
    6.7816    4.1372    0.9142 H   0  0  0  0  0  0  0  0  0  0  0  0
    7.7431    3.0193   -1.2041 H   0  0  0  0  0  0  0  0  0  0  0  0
    9.0694    4.0941   -0.9924 H   0  0  0  0  0  0  0  0  0  0  0  0
    7.0256    8.7228   -4.5247 H   0  0  0  0  0  0  0  0  0  0  0  0
   10.8995    6.5895   -2.9928 H   0  0  0  0  0  0  0  0  0  0  0  0
   10.4962    7.2881   -1.4100 H   0  0  0  0  0  0  0  0  0  0  0  0
    8.9660    5.4130   -2.8168 H   0  0  0  0  0  0  0  0  0  0  0  0
    7.2488    7.3210   -6.6961 H   0  0  0  0  0  0  0  0  0  0  0  0
   12.4785    5.6261   -6.7756 H   0  0  0  0  0  0  0  0  0  0  0  0
   10.9378    4.8642   -6.3984 H   0  0  0  0  0  0  0  0  0  0  0  0
   11.4750    5.9167   -8.9676 H   0  0  0  0  0  0  0  0  0  0  0  0
   10.1462    8.6936   -9.4867 H   0  0  0  0  0  0  0  0  0  0  0  0
   13.0882    9.4753   -7.0310 H   0  0  0  0  0  0  0  0  0  0  0  0
    9.3596    9.6501   -4.3976 H   0  0  0  0  0  0  0  0  0  0  0  0
    8.7756    9.0995   -5.9823 H   0  0  0  0  0  0  0  0  0  0  0  0
    9.5720   11.5280   -4.9422 H   0  0  0  0  0  0  0  0  0  0  0  0
  1  2  1  0  0  0  0
  1 41  1  0  0  0  0
  1 42  1  0  0  0  0
  1 43  1  0  0  0  0
  2  3  1  0  0  0  0
  2 44  1  0  0  0  0
  2 45  1  0  0  0  0
  3  4  1  0  0  0  0
  3 46  1  0  0  0  0
  3 47  1  0  0  0  0
  4  5  1  0  0  0  0
  4 48  1  0  0  0  0
  4 49  1  0  0  0  0
  5  6  1  0  0  0  0
  5 50  1  0  0  0  0
  5 51  1  0  0  0  0
  6  7  1  0  0  0  0
  6 52  1  0  0  0  0
  6 53  1  0  0  0  0
  7  8  1  0  0  0  0
  7 54  1  0  0  0  0
  7 55  1  0  0  0  0
  8  9  2  0  0  0  0
  8 10  1  0  0  0  0
 10 11  1  0  0  0  0
 11 12  1  6  0  0  0
 11 13  1  0  0  0  0
 11 23  1  0  0  0  0
 13 16  1  0  0  0  0
 13 15  1  0  0  0  0
 13 14  1  1  0  0  0
 15 56  1  0  0  0  0
 16 20  1  0  0  0  0
 16 18  1  0  0  0  0
 16 17  1  1  0  0  0
 18 19  1  0  0  0  0
 18 57  1  0  0  0  0
 18 58  1  0  0  0  0
 19 59  1  0  0  0  0
 20 21  1  0  0  0  0
 21 22  1  1  0  0  0
 21 23  1  0  0  0  0
 21 26  1  0  0  0  0
 23 24  1  6  0  0  0
 23 25  1  0  0  0  0
 25 60  1  0  0  0  0
 27 30  1  0  0  0  0
 27 35  1  0  0  0  0
 27 28  1  6  0  0  0
 27 26  1  0  0  0  0
 28 29  1  0  0  0  0
 28 61  1  0  0  0  0
 28 62  1  0  0  0  0
 29 63  1  0  0  0  0
 30 31  1  0  0  0  0
 31 32  1  1  0  0  0
 31 33  1  0  0  0  0
 31 39  1  0  0  0  0
 33 35  1  0  0  0  0
 33 38  1  0  0  0  0
 33 34  1  6  0  0  0
 35 36  1  6  0  0  0
 35 37  1  0  0  0  0
 37 64  1  0  0  0  0
 38 65  1  0  0  0  0
 39 40  1  0  0  0  0
 39 66  1  0  0  0  0
 39 67  1  0  0  0  0
 40 68  1  0  0  0  0
M  END
$$$$
