2P0
 OpenBabel04121316043D

 33 33  0  0  1  0  0  0  0  0999 V2000
    3.5498   -0.5215   -3.3572 O   0  0  0  0  0  0  0  0  0  0  0  0
    2.6302   -0.3508   -2.3889 C   0  0  0  0  0  0  0  0  0  0  0  0
    1.5339    0.1353   -2.6649 O   0  0  0  0  0  0  0  0  0  0  0  0
    3.0344   -0.9041   -1.0137 C   0  0  2  0  0  0  0  0  0  0  0  0
    2.5345   -0.2899   -0.2589 H   0  0  0  0  0  0  0  0  0  0  0  0
    4.5463   -0.8649   -0.8027 C   0  0  0  0  0  0  0  0  0  0  0  0
    5.0158   -2.1880   -1.4026 C   0  0  0  0  0  0  0  0  0  0  0  0
    3.8824   -3.1579   -1.0785 C   0  0  0  0  0  0  0  0  0  0  0  0
    2.7050   -2.3310   -0.8532 N   0  0  0  0  0  0  0  0  0  0  0  0
    1.5097   -2.8936   -0.4197 C   0  0  0  0  0  0  0  0  0  0  0  0
    1.3222   -4.1095   -0.4213 O   0  0  0  0  0  0  0  0  0  0  0  0
    0.4155   -1.8959   -0.0201 C   0  0  0  0  0  0  0  0  0  0  0  0
   -0.8066   -2.2234    0.6107 O   0  0  0  0  0  0  0  0  0  0  0  0
   -1.9486   -1.2549    0.0294 P   0  0  1  0  0  0  0  0  0  0  0  0
   -1.5081    0.1762    0.0158 O   0  0  0  0  0  0  0  0  0  0  0  0
   -2.3273   -1.8914   -1.3764 O   0  0  0  0  0  0  0  0  0  0  0  0
   -2.0538   -3.4136   -1.7606 P   0  0  0  0  0  0  0  0  0  0  0  0
   -2.0176   -4.4185   -0.6666 O   0  0  0  0  0  0  0  0  0  0  0  0
   -3.1851   -3.6958   -2.8493 O   0  0  0  0  0  0  0  0  0  0  0  0
   -0.7260   -3.3864   -2.6569 O   0  0  0  0  0  0  0  0  0  0  0  0
   -3.2560   -1.3568    0.9446 O   0  0  0  0  0  0  0  0  0  0  0  0
    3.1370   -0.2101   -4.1895 H   0  0  0  0  0  0  0  0  0  0  0  0
    4.7698   -0.8552    0.2712 H   0  0  0  0  0  0  0  0  0  0  0  0
    5.0299    0.0052   -1.2570 H   0  0  0  0  0  0  0  0  0  0  0  0
    5.9792   -2.5096   -0.9990 H   0  0  0  0  0  0  0  0  0  0  0  0
    5.1402   -2.1019   -2.4877 H   0  0  0  0  0  0  0  0  0  0  0  0
    4.0955   -3.7164   -0.1615 H   0  0  0  0  0  0  0  0  0  0  0  0
    3.6974   -3.8669   -1.8914 H   0  0  0  0  0  0  0  0  0  0  0  0
    0.1786   -1.4375   -0.9889 H   0  0  0  0  0  0  0  0  0  0  0  0
    0.8506   -1.1392    0.6273 H   0  0  0  0  0  0  0  0  0  0  0  0
   -4.0556   -3.4404   -2.4970 H   0  0  0  0  0  0  0  0  0  0  0  0
   -0.1170   -4.1131   -2.4000 H   0  0  0  0  0  0  0  0  0  0  0  0
   -3.4028   -0.4685    1.3388 H   0  0  0  0  0  0  0  0  0  0  0  0
  1  2  1  0  0  0  0
  1 22  1  0  0  0  0
  2  3  2  0  0  0  0
  4  6  1  0  0  0  0
  4  9  1  0  0  0  0
  4  5  1  1  0  0  0
  4  2  1  0  0  0  0
  6  7  1  0  0  0  0
  6 23  1  0  0  0  0
  6 24  1  0  0  0  0
  7  8  1  0  0  0  0
  7 25  1  0  0  0  0
  7 26  1  0  0  0  0
  8  9  1  0  0  0  0
  8 27  1  0  0  0  0
  8 28  1  0  0  0  0
  9 10  1  0  0  0  0
 10 11  2  0  0  0  0
 10 12  1  0  0  0  0
 12 13  1  0  0  0  0
 12 29  1  0  0  0  0
 12 30  1  0  0  0  0
 14 13  1  1  0  0  0
 14 15  2  0  0  0  0
 14 16  1  0  0  0  0
 14 21  1  0  0  0  0
 16 17  1  0  0  0  0
 17 18  2  0  0  0  0
 17 19  1  0  0  0  0
 17 20  1  0  0  0  0
 19 31  1  0  0  0  0
 20 32  1  0  0  0  0
 21 33  1  0  0  0  0
M  END
$$$$
