2PB
 OpenBabel04121316043D

 18 18  0  0  0  0  0  0  0  0999 V2000
    1.0667    0.0376   -0.0643 O   0  5  0  0  0  0  0  0  0  0  0  0
    2.7967    0.0376   -0.0643 P   0  0  1  0  0  0  0  0  0  0  0  0
    2.9847   -0.5096    1.2049 H   0  0  0  0  0  0  0  0  0  0  0  0
    2.8886   -0.4189   -1.5462 O   0  0  0  0  0  0  0  0  0  0  0  0
    4.4937    0.0376   -0.0643 O   0  0  0  0  0  0  0  0  0  0  0  0
    5.1188   -1.2090   -0.1544 C   0  0  0  0  0  0  0  0  0  0  0  0
    6.4018   -1.1147   -0.7430 C   0  0  0  0  0  0  0  0  0  0  0  0
    7.0922   -2.2552   -1.1588 C   0  0  0  0  0  0  0  0  0  0  0  0
    6.5621   -3.5055   -0.8922 C   0  0  0  0  0  0  0  0  0  0  0  0
    5.3644   -3.6056   -0.1967 C   0  0  0  0  0  0  0  0  0  0  0  0
    4.5784   -2.4875    0.1558 C   0  0  0  0  0  0  0  0  0  0  0  0
    3.2503   -2.8627    0.8408 C   0  0  0  0  0  0  0  0  0  0  0  0
    2.8940   -4.1003    0.7643 O   0  0  0  0  0  0  0  0  0  0  0  0
    2.6774   -2.0280    1.5898 O   0  5  0  0  0  0  0  0  0  0  0  0
    6.8307   -0.1356   -0.9368 H   0  0  0  0  0  0  0  0  0  0  0  0
    8.0205   -2.1711   -1.7114 H   0  0  0  0  0  0  0  0  0  0  0  0
    7.0487   -4.4149   -1.2202 H   0  0  0  0  0  0  0  0  0  0  0  0
    4.9889   -4.5937    0.0661 H   0  0  0  0  0  0  0  0  0  0  0  0
  1  2  1  0  0  0  0
  2  3  1  1  0  0  0
  2  4  2  0  0  0  0
  2  5  1  0  0  0  0
  5  6  1  0  0  0  0
  6  7  2  0  0  0  0
  6 11  1  0  0  0  0
  7  8  1  0  0  0  0
  7 15  1  0  0  0  0
  8  9  2  0  0  0  0
  8 16  1  0  0  0  0
  9 10  1  0  0  0  0
  9 17  1  0  0  0  0
 10 11  2  0  0  0  0
 10 18  1  0  0  0  0
 11 12  1  0  0  0  0
 12 13  2  0  0  0  0
 12 14  1  0  0  0  0
M  CHG  2   1  -1  14  -1
M  END
$$$$
