2PN
 OpenBabel04121316043D

 14 13  0  0  0  0  0  0  0  0999 V2000
    1.0674    0.0587   -0.0449 O   0  0  0  0  0  0  0  0  0  0  0  0
    2.7974    0.0587   -0.0449 P   0  0  0  0  0  0  0  0  0  0  0  0
    2.8083    0.4951   -1.5014 O   0  0  0  0  0  0  0  0  0  0  0  0
    2.7974    1.4496    1.0659 N   0  0  0  0  0  0  0  0  0  0  0  0
    1.1192    1.9133    1.4361 P   0  0  0  0  0  0  0  0  0  0  0  0
    0.9994    0.8048    2.4940 O   0  0  0  0  0  0  0  0  0  0  0  0
    1.6724    3.1619    2.3407 O   0  0  0  0  0  0  0  0  0  0  0  0
   -0.5119    2.3639    1.7960 O   0  0  0  0  0  0  0  0  0  0  0  0
    4.5274    0.0587   -0.0449 O   0  0  0  0  0  0  0  0  0  0  0  0
    0.7634   -0.7532   -0.5001 H   0  0  0  0  0  0  0  0  0  0  0  0
    3.2172    2.2102    0.5519 H   0  0  0  0  0  0  0  0  0  0  0  0
    1.8228    2.8173    3.1982 H   0  0  0  0  0  0  0  0  0  0  0  0
   -1.0092    1.5242    1.8398 H   0  0  0  0  0  0  0  0  0  0  0  0
    4.8103   -0.2937   -0.9110 H   0  0  0  0  0  0  0  0  0  0  0  0
  1  2  1  0  0  0  0
  1 10  1  0  0  0  0
  2  3  2  0  0  0  0
  2  4  1  0  0  0  0
  2  9  1  0  0  0  0
  4  5  1  0  0  0  0
  4 11  1  0  0  0  0
  5  6  2  0  0  0  0
  5  7  1  0  0  0  0
  5  8  1  0  0  0  0
  7 12  1  0  0  0  0
  8 13  1  0  0  0  0
  9 14  1  0  0  0  0
M  END
$$$$
