2PO
 OpenBabel04121316043D

  5  4  0  0  0  0  0  0  0  0999 V2000
    1.4627   -1.1531    0.1825 O   0  5  0  0  0  0  0  0  0  0  0  0
    2.2698    0.0803   -0.2279 P   0  0  0  0  0  0  0  0  0  0  0  0
    2.4541    0.2615   -1.7274 O   0  0  0  0  0  0  0  0  0  0  0  0
    3.5616    0.2472    0.5694 O   0  5  0  0  0  0  0  0  0  0  0  0
    1.4106    1.1423    0.1184 H   0  0  0  0  0  0  0  0  0  0  0  0
  1  2  1  0  0  0  0
  2  3  2  0  0  0  0
  2  4  1  0  0  0  0
  2  5  1  0  0  0  0
M  CHG  2   1  -1   4  -1
M  END
$$$$
