2SA
 OpenBabel04121316043D

 49 51  0  0  1  0  0  0  0  0999 V2000
   15.3584   -3.7480  -11.3848 O   0  0  0  0  0  0  0  0  0  0  0  0
   15.2827   -4.4500  -10.2437 C   0  0  0  0  0  0  0  0  0  0  0  0
   16.0929   -5.3153   -9.9281 O   0  0  0  0  0  0  0  0  0  0  0  0
   14.0271   -4.1197   -9.5169 C   0  0  0  0  0  0  0  0  0  0  0  0
   13.8963   -4.8965   -8.2109 C   0  0  1  0  0  0  0  0  0  0  0  0
   14.0656   -5.9703   -8.3663 H   0  0  0  0  0  0  0  0  0  0  0  0
   14.9548   -4.3827   -7.2058 C   0  0  0  0  0  0  0  0  0  0  0  0
   14.6874   -3.6856   -6.2277 O   0  0  0  0  0  0  0  0  0  0  0  0
   16.2473   -4.6942   -7.4650 O   0  0  0  0  0  0  0  0  0  0  0  0
   12.4802   -4.6983   -7.7694 N   0  0  0  0  0  0  0  0  0  0  0  0
   12.2193   -5.1908   -6.4820 C   0  0  0  0  0  0  0  0  0  0  0  0
   12.3479   -6.5283   -6.2933 N   0  0  0  0  0  0  0  0  0  0  0  0
   12.0017   -7.0400   -5.1045 C   0  0  0  0  0  0  0  0  0  0  0  0
   11.5732   -6.3818   -4.0235 N   0  0  0  0  0  0  0  0  0  0  0  0
   11.4783   -5.0602   -4.2233 C   0  0  0  0  0  0  0  0  0  0  0  0
   11.7690   -4.3900   -5.3979 C   0  0  0  0  0  0  0  0  0  0  0  0
   11.5454   -3.0324   -5.2317 N   0  0  0  0  0  0  0  0  0  0  0  0
   11.1981   -2.8890   -3.9645 C   0  0  0  0  0  0  0  0  0  0  0  0
   11.0984   -4.0980   -3.3152 N   0  0  0  0  0  0  0  0  0  0  0  0
   10.6738   -4.2947   -1.9290 C   0  0  2  0  0  0  0  0  0  0  0  0
    9.6566   -3.8916   -1.8702 H   0  0  0  0  0  0  0  0  0  0  0  0
   11.4823   -3.4925   -1.0147 O   0  0  0  0  0  0  0  0  0  0  0  0
   12.5901   -4.3184   -0.5787 C   0  0  1  0  0  0  0  0  0  0  0  0
   12.9320   -3.9994    0.4130 H   0  0  0  0  0  0  0  0  0  0  0  0
   12.0711   -5.7566   -0.5695 C   0  0  2  0  0  0  0  0  0  0  0  0
   12.7903   -6.4375   -1.0385 H   0  0  0  0  0  0  0  0  0  0  0  0
   10.7563   -5.7195   -1.3574 C   0  0  1  0  0  0  0  0  0  0  0  0
   10.7581   -6.5012   -2.1010 H   0  0  0  0  0  0  0  0  0  0  0  0
    9.5984   -6.0508   -0.5773 O   0  0  0  0  0  0  0  0  0  0  0  0
   11.8798   -6.2140    0.7702 O   0  0  0  0  0  0  0  0  0  0  0  0
   13.7117   -4.1039   -1.5720 C   0  0  0  0  0  0  0  0  0  0  0  0
   14.8455   -4.9408   -1.3757 O   0  0  0  0  0  0  0  0  0  0  0  0
   16.0497   -4.7196   -2.5980 P   0  0  0  0  0  0  0  0  0  0  0  0
   15.0246   -4.4611   -3.6787 O   0  0  0  0  0  0  0  0  0  0  0  0
   16.5040   -3.3307   -1.8862 O   0  0  0  0  0  0  0  0  0  0  0  0
   17.2538   -4.4983   -3.8203 O   0  0  0  0  0  0  0  0  0  0  0  0
   15.7052   -4.3413  -12.0793 H   0  0  0  0  0  0  0  0  0  0  0  0
   13.2083   -4.3997  -10.1926 H   0  0  0  0  0  0  0  0  0  0  0  0
   13.9844   -3.0397   -9.3404 H   0  0  0  0  0  0  0  0  0  0  0  0
   16.4316   -5.1522   -8.3196 H   0  0  0  0  0  0  0  0  0  0  0  0
   12.1757   -3.7269   -7.8008 H   0  0  0  0  0  0  0  0  0  0  0  0
   12.0586   -8.1195   -5.0091 H   0  0  0  0  0  0  0  0  0  0  0  0
   11.0103   -1.9445   -3.4650 H   0  0  0  0  0  0  0  0  0  0  0  0
    9.5291   -5.4520    0.1774 H   0  0  0  0  0  0  0  0  0  0  0  0
   11.2336   -5.6336    1.2011 H   0  0  0  0  0  0  0  0  0  0  0  0
   14.0096   -3.0488   -1.5933 H   0  0  0  0  0  0  0  0  0  0  0  0
   13.3050   -4.3316   -2.5447 H   0  0  0  0  0  0  0  0  0  0  0  0
   16.2099   -3.3013   -0.9601 H   0  0  0  0  0  0  0  0  0  0  0  0
   16.9990   -5.0538   -4.5807 H   0  0  0  0  0  0  0  0  0  0  0  0
  1  2  1  0  0  0  0
  1 37  1  0  0  0  0
  2  3  2  0  0  0  0
  2  4  1  0  0  0  0
  4  5  1  0  0  0  0
  4 38  1  0  0  0  0
  4 39  1  0  0  0  0
  5  6  1  6  0  0  0
  5  7  1  0  0  0  0
  5 10  1  0  0  0  0
  7  8  2  0  0  0  0
  7  9  1  0  0  0  0
  9 40  1  0  0  0  0
 10 11  1  0  0  0  0
 10 41  1  0  0  0  0
 11 12  2  0  0  0  0
 11 16  1  0  0  0  0
 12 13  1  0  0  0  0
 13 14  2  0  0  0  0
 13 42  1  0  0  0  0
 14 15  1  0  0  0  0
 15 16  2  0  0  0  0
 15 19  1  0  0  0  0
 16 17  1  0  0  0  0
 17 18  2  0  0  0  0
 18 19  1  0  0  0  0
 18 43  1  0  0  0  0
 20 22  1  0  0  0  0
 20 27  1  0  0  0  0
 20 21  1  1  0  0  0
 20 19  1  0  0  0  0
 22 23  1  0  0  0  0
 23 24  1  1  0  0  0
 23 25  1  0  0  0  0
 23 31  1  0  0  0  0
 25 27  1  0  0  0  0
 25 30  1  0  0  0  0
 25 26  1  6  0  0  0
 27 29  1  0  0  0  0
 27 28  1  6  0  0  0
 29 44  1  0  0  0  0
 30 45  1  0  0  0  0
 31 32  1  0  0  0  0
 31 46  1  0  0  0  0
 31 47  1  0  0  0  0
 32 33  1  0  0  0  0
 33 34  2  0  0  0  0
 33 35  1  0  0  0  0
 33 36  1  0  0  0  0
 35 48  1  0  0  0  0
 36 49  1  0  0  0  0
M  END
$$$$
