2SC
 OpenBabel04121316043D

 42 45  0  0  0  0  0  0  0  0999 V2000
    0.9476   -0.0998   -0.1324 O   0  0  0  0  0  0  0  0  0  0  0  0
    2.3683   -0.0480   -0.1169 C   0  0  0  0  0  0  0  0  0  0  0  0
    2.8751   -0.2086    1.2570 C   0  0  0  0  0  0  0  0  0  0  0  0
    3.0239   -1.4095    1.9804 C   0  0  0  0  0  0  0  0  0  0  0  0
    3.5019   -1.2262    3.2115 N   0  0  0  0  0  0  0  0  0  0  0  0
    3.6414    0.1285    3.3098 N   0  0  0  0  0  0  0  0  0  0  0  0
    3.2947    0.7804    2.1212 C   0  0  0  0  0  0  0  0  0  0  0  0
    3.3853    2.1465    1.9749 N   0  0  0  0  0  0  0  0  0  0  0  0
    3.7937    2.8224    3.0156 C   0  0  0  0  0  0  0  0  0  0  0  0
    4.1543    2.2036    4.2967 C   0  0  0  0  0  0  0  0  0  0  0  0
    4.0773    0.8716    4.4175 C   0  0  0  0  0  0  0  0  0  0  0  0
    4.4178    0.2670    5.6051 N   0  0  0  0  0  0  0  0  0  0  0  0
    4.8780    0.9836    6.7798 C   0  0  0  0  0  0  0  0  0  0  0  0
    5.1417    0.0964    7.9394 C   0  0  0  0  0  0  0  0  0  0  0  0
    5.8981    0.5551    9.0199 C   0  0  0  0  0  0  0  0  0  0  0  0
    6.1137   -0.2931   10.0952 C   0  0  0  0  0  0  0  0  0  0  0  0
    5.6378   -1.5913   10.0097 C   0  0  0  0  0  0  0  0  0  0  0  0
    4.8676   -2.0489    9.0058 N   0  0  0  0  0  0  0  0  0  0  0  0
    4.5910   -1.1750    8.0246 C   0  0  0  0  0  0  0  0  0  0  0  0
    3.9093    4.3145    3.0064 C   0  0  0  0  0  0  0  0  0  0  0  0
    4.3027    5.0653    4.1349 C   0  0  0  0  0  0  0  0  0  0  0  0
    4.2239    6.4521    4.1372 C   0  0  0  0  0  0  0  0  0  0  0  0
    3.8784    7.1108    2.9684 C   0  0  0  0  0  0  0  0  0  0  0  0
    3.6157    6.3838    1.8065 C   0  0  0  0  0  0  0  0  0  0  0  0
    3.5772    4.9905    1.8362 C   0  0  0  0  0  0  0  0  0  0  0  0
    0.6728    0.0967   -1.0415 H   0  0  0  0  0  0  0  0  0  0  0  0
    2.6952    0.9062   -0.5440 H   0  0  0  0  0  0  0  0  0  0  0  0
    2.7450   -0.8531   -0.7560 H   0  0  0  0  0  0  0  0  0  0  0  0
    2.7995   -2.4157    1.6470 H   0  0  0  0  0  0  0  0  0  0  0  0
    4.4789    2.7841    5.1296 H   0  0  0  0  0  0  0  0  0  0  0  0
    4.4975   -0.7477    5.5339 H   0  0  0  0  0  0  0  0  0  0  0  0
    4.1193    1.7194    7.0822 H   0  0  0  0  0  0  0  0  0  0  0  0
    5.7957    1.5366    6.5290 H   0  0  0  0  0  0  0  0  0  0  0  0
    6.3070    1.5640    9.0323 H   0  0  0  0  0  0  0  0  0  0  0  0
    6.6409    0.0445   10.9782 H   0  0  0  0  0  0  0  0  0  0  0  0
    5.8565   -2.3238   10.7770 H   0  0  0  0  0  0  0  0  0  0  0  0
    3.8802   -1.5378    7.2873 H   0  0  0  0  0  0  0  0  0  0  0  0
    4.6724    4.6286    5.0544 H   0  0  0  0  0  0  0  0  0  0  0  0
    4.4396    7.0028    5.0494 H   0  0  0  0  0  0  0  0  0  0  0  0
    3.8240    8.1944    2.9617 H   0  0  0  0  0  0  0  0  0  0  0  0
    3.4235    6.9027    0.8733 H   0  0  0  0  0  0  0  0  0  0  0  0
    3.2853    4.4367    0.9473 H   0  0  0  0  0  0  0  0  0  0  0  0
  1  2  1  0  0  0  0
  1 26  1  0  0  0  0
  2  3  1  0  0  0  0
  2 27  1  0  0  0  0
  2 28  1  0  0  0  0
  3  4  1  0  0  0  0
  3  7  2  0  0  0  0
  4  5  2  0  0  0  0
  4 29  1  0  0  0  0
  5  6  1  0  0  0  0
  6  7  1  0  0  0  0
  6 11  1  0  0  0  0
  7  8  1  0  0  0  0
  8  9  2  0  0  0  0
  9 10  1  0  0  0  0
  9 20  1  0  0  0  0
 10 11  2  0  0  0  0
 10 30  1  0  0  0  0
 11 12  1  0  0  0  0
 12 13  1  0  0  0  0
 12 31  1  0  0  0  0
 13 14  1  0  0  0  0
 13 32  1  0  0  0  0
 13 33  1  0  0  0  0
 14 15  2  0  0  0  0
 14 19  1  0  0  0  0
 15 16  1  0  0  0  0
 15 34  1  0  0  0  0
 16 17  2  0  0  0  0
 16 35  1  0  0  0  0
 17 18  1  0  0  0  0
 17 36  1  0  0  0  0
 18 19  2  0  0  0  0
 19 37  1  0  0  0  0
 20 21  2  0  0  0  0
 20 25  1  0  0  0  0
 21 22  1  0  0  0  0
 21 38  1  0  0  0  0
 22 23  2  0  0  0  0
 22 39  1  0  0  0  0
 23 24  1  0  0  0  0
 23 40  1  0  0  0  0
 24 25  2  0  0  0  0
 24 41  1  0  0  0  0
 25 42  1  0  0  0  0
M  END
$$$$
