2SM
 OpenBabel04121316043D

 38 39  0  0  0  0  0  0  0  0999 V2000
    0.9628    0.0341    0.0612 C   0  0  0  0  0  0  0  0  0  0  0  0
    2.3952    0.0742    0.0557 O   0  0  0  0  0  0  0  0  0  0  0  0
    2.9437   -0.6091    1.0862 C   0  0  0  0  0  0  0  0  0  0  0  0
    2.3225   -1.2310    1.9335 O   0  0  0  0  0  0  0  0  0  0  0  0
    4.3888   -0.7334    0.9276 C   0  0  0  0  0  0  0  0  0  0  0  0
    5.1223    0.4629    0.9225 C   0  0  0  0  0  0  0  0  0  0  0  0
    6.4997    0.4462    0.7174 C   0  0  0  0  0  0  0  0  0  0  0  0
    7.1705   -0.7706    0.6494 C   0  0  0  0  0  0  0  0  0  0  0  0
    6.4572   -1.9690    0.7790 C   0  0  0  0  0  0  0  0  0  0  0  0
    5.0452   -1.9623    0.8531 C   0  0  0  0  0  0  0  0  0  0  0  0
    4.2422   -3.5649    0.7357 S   0  0  0  0  0  0  0  0  0  0  0  0
    4.6930   -4.0859   -0.5394 O   0  0  0  0  0  0  0  0  0  0  0  0
    4.5633   -4.2193    1.9859 O   0  0  0  0  0  0  0  0  0  0  0  0
    2.5764   -3.3876    0.6281 N   0  0  0  0  0  0  0  0  0  0  0  0
    1.7253   -4.5013    0.6324 C   0  0  0  0  0  0  0  0  0  0  0  0
    2.1970   -5.6176    0.6203 O   0  0  0  0  0  0  0  0  0  0  0  0
    0.3797   -4.1794    0.6637 N   0  0  0  0  0  0  0  0  0  0  0  0
   -0.6024   -5.1710    0.6080 C   0  0  0  0  0  0  0  0  0  0  0  0
   -0.2167   -6.4227    0.3670 N   0  0  0  0  0  0  0  0  0  0  0  0
   -1.0946   -7.4056    0.5560 C   0  0  0  0  0  0  0  0  0  0  0  0
   -2.3667   -7.1783    0.9872 C   0  0  0  0  0  0  0  0  0  0  0  0
   -2.7630   -5.8561    0.9813 C   0  0  0  0  0  0  0  0  0  0  0  0
   -1.8873   -4.8242    0.8167 N   0  0  0  0  0  0  0  0  0  0  0  0
   -4.2378   -5.5641    1.0416 C   0  0  0  0  0  0  0  0  0  0  0  0
    0.5871    0.7309   -0.6907 H   0  0  0  0  0  0  0  0  0  0  0  0
    0.5700    0.3301    1.0398 H   0  0  0  0  0  0  0  0  0  0  0  0
    0.6127   -0.9733   -0.1930 H   0  0  0  0  0  0  0  0  0  0  0  0
    4.6169    1.4126    1.0818 H   0  0  0  0  0  0  0  0  0  0  0  0
    7.0476    1.3815    0.6263 H   0  0  0  0  0  0  0  0  0  0  0  0
    8.2491   -0.7825    0.4975 H   0  0  0  0  0  0  0  0  0  0  0  0
    7.0136   -2.9076    0.8071 H   0  0  0  0  0  0  0  0  0  0  0  0
    2.1657   -2.5365    0.9730 H   0  0  0  0  0  0  0  0  0  0  0  0
    0.0394   -3.2447    0.7965 H   0  0  0  0  0  0  0  0  0  0  0  0
   -0.7286   -8.3979    0.3210 H   0  0  0  0  0  0  0  0  0  0  0  0
   -3.0256   -7.9968    1.2378 H   0  0  0  0  0  0  0  0  0  0  0  0
   -4.8168   -6.4850    1.1919 H   0  0  0  0  0  0  0  0  0  0  0  0
   -4.5689   -5.1342    0.0897 H   0  0  0  0  0  0  0  0  0  0  0  0
   -4.4694   -4.8785    1.8575 H   0  0  0  0  0  0  0  0  0  0  0  0
  1  2  1  0  0  0  0
  1 25  1  0  0  0  0
  1 26  1  0  0  0  0
  1 27  1  0  0  0  0
  2  3  1  0  0  0  0
  3  4  2  0  0  0  0
  3  5  1  0  0  0  0
  5  6  2  0  0  0  0
  5 10  1  0  0  0  0
  6  7  1  0  0  0  0
  6 28  1  0  0  0  0
  7  8  2  0  0  0  0
  7 29  1  0  0  0  0
  8  9  1  0  0  0  0
  8 30  1  0  0  0  0
  9 10  2  0  0  0  0
  9 31  1  0  0  0  0
 10 11  1  0  0  0  0
 11 12  2  0  0  0  0
 11 13  2  0  0  0  0
 11 14  1  0  0  0  0
 14 15  1  0  0  0  0
 14 32  1  0  0  0  0
 15 16  2  0  0  0  0
 15 17  1  0  0  0  0
 17 18  1  0  0  0  0
 17 33  1  0  0  0  0
 18 19  2  0  0  0  0
 18 23  1  0  0  0  0
 19 20  1  0  0  0  0
 20 21  2  0  0  0  0
 20 34  1  0  0  0  0
 21 22  1  0  0  0  0
 21 35  1  0  0  0  0
 22 23  2  0  0  0  0
 22 24  1  0  0  0  0
 24 36  1  0  0  0  0
 24 37  1  0  0  0  0
 24 38  1  0  0  0  0
M  END
$$$$
