2T0
 OpenBabel04121316043D

 30 32  0  0  0  0  0  0  0  0999 V2000
    0.9471    0.1650   -0.0579 N   0  0  0  0  0  0  0  0  0  0  0  0
    2.2892    0.1032   -0.0223 C   0  0  0  0  0  0  0  0  0  0  0  0
    2.9583   -1.4623    0.1949 S   0  0  0  0  0  0  0  0  0  0  0  0
    4.4963   -0.7748    0.1409 C   0  0  0  0  0  0  0  0  0  0  0  0
    4.4536    0.5957   -0.0571 C   0  0  0  0  0  0  0  0  0  0  0  0
    3.1515    1.0968   -0.1348 N   0  0  0  0  0  0  0  0  0  0  0  0
    5.7480    1.3165   -0.2035 C   0  0  0  0  0  0  0  0  0  0  0  0
    5.9337    2.7182   -0.1591 C   0  0  0  0  0  0  0  0  0  0  0  0
    7.2313    3.2710   -0.3421 C   0  0  0  0  0  0  0  0  0  0  0  0
    8.3250    2.4408   -0.5705 C   0  0  0  0  0  0  0  0  0  0  0  0
    8.1736    1.0685   -0.5550 C   0  0  0  0  0  0  0  0  0  0  0  0
    6.9053    0.5051   -0.3997 C   0  0  0  0  0  0  0  0  0  0  0  0
    6.8042   -0.9961   -0.5825 C   0  0  0  0  0  0  0  0  0  0  0  0
    5.7117   -1.6051    0.2758 C   0  0  0  0  0  0  0  0  0  0  0  0
    7.4338    4.6352   -0.3333 O   0  0  0  0  0  0  0  0  0  0  0  0
    8.6675    5.3842    0.3985 P   0  0  0  0  0  0  0  0  0  0  0  0
    8.2992    6.5478    1.2683 O   0  0  0  0  0  0  0  0  0  0  0  0
    9.5464    4.2759    1.1426 O   0  0  0  0  0  0  0  0  0  0  0  0
    9.6742    5.8222   -0.7699 O   0  0  0  0  0  0  0  0  0  0  0  0
    0.4095   -0.6848    0.0637 H   0  0  0  0  0  0  0  0  0  0  0  0
    0.4422    1.0310   -0.1500 H   0  0  0  0  0  0  0  0  0  0  0  0
    5.0828    3.3752    0.0153 H   0  0  0  0  0  0  0  0  0  0  0  0
    9.3155    2.8452   -0.7654 H   0  0  0  0  0  0  0  0  0  0  0  0
    9.0452    0.4358   -0.6999 H   0  0  0  0  0  0  0  0  0  0  0  0
    7.7535   -1.4835   -0.3371 H   0  0  0  0  0  0  0  0  0  0  0  0
    6.6013   -1.1806   -1.6460 H   0  0  0  0  0  0  0  0  0  0  0  0
    6.0122   -1.6161    1.3299 H   0  0  0  0  0  0  0  0  0  0  0  0
    5.5389   -2.6409   -0.0357 H   0  0  0  0  0  0  0  0  0  0  0  0
    8.9903    3.6200    1.6031 H   0  0  0  0  0  0  0  0  0  0  0  0
   10.1424    6.6407   -0.5081 H   0  0  0  0  0  0  0  0  0  0  0  0
  1  2  1  0  0  0  0
  1 20  1  0  0  0  0
  1 21  1  0  0  0  0
  2  3  1  0  0  0  0
  2  6  2  0  0  0  0
  3  4  1  0  0  0  0
  4  5  2  0  0  0  0
  4 14  1  0  0  0  0
  5  6  1  0  0  0  0
  5  7  1  0  0  0  0
  7  8  2  0  0  0  0
  7 12  1  0  0  0  0
  8  9  1  0  0  0  0
  8 22  1  0  0  0  0
  9 10  2  0  0  0  0
  9 15  1  0  0  0  0
 10 11  1  0  0  0  0
 10 23  1  0  0  0  0
 11 12  2  0  0  0  0
 11 24  1  0  0  0  0
 12 13  1  0  0  0  0
 13 14  1  0  0  0  0
 13 25  1  0  0  0  0
 13 26  1  0  0  0  0
 14 27  1  0  0  0  0
 14 28  1  0  0  0  0
 15 16  1  0  0  0  0
 16 17  2  0  0  0  0
 16 18  1  0  0  0  0
 16 19  1  0  0  0  0
 18 29  1  0  0  0  0
 19 30  1  0  0  0  0
M  END
$$$$
