2T4
 OpenBabel04121316043D

 30 32  0  0  0  0  0  0  0  0999 V2000
    1.2527   -0.0016    0.0768 N   0  0  0  0  0  0  0  0  0  0  0  0
    2.5946   -0.0974    0.0748 C   0  0  0  0  0  0  0  0  0  0  0  0
    3.6369    1.3102    0.0694 S   0  0  0  0  0  0  0  0  0  0  0  0
    4.9580    0.2760    0.0700 C   0  0  0  0  0  0  0  0  0  0  0  0
    4.5375   -1.0269    0.0746 C   0  0  0  0  0  0  0  0  0  0  0  0
    3.2006   -1.2576    0.0816 N   0  0  0  0  0  0  0  0  0  0  0  0
    5.6849   -1.8804    0.0738 C   0  0  0  0  0  0  0  0  0  0  0  0
    6.8482   -1.0453    0.0716 C   0  0  0  0  0  0  0  0  0  0  0  0
    6.4430    0.4325    0.0644 C   0  0  0  0  0  0  0  0  0  0  0  0
    8.1166   -1.5986    0.0732 C   0  0  0  0  0  0  0  0  0  0  0  0
    8.2094   -2.9910    0.0717 C   0  0  0  0  0  0  0  0  0  0  0  0
    7.0533   -3.8036    0.0660 C   0  0  0  0  0  0  0  0  0  0  0  0
    5.7555   -3.2615    0.0702 C   0  0  0  0  0  0  0  0  0  0  0  0
    4.5796   -3.9861    0.0913 O   0  0  0  0  0  0  0  0  0  0  0  0
    4.7842   -5.3878   -0.0759 C   0  0  0  0  0  0  0  0  0  0  0  0
    3.3703   -6.4309    0.2354 P   0  0  0  0  0  0  0  0  0  0  0  0
    3.6483   -7.8701   -0.0623 O   0  0  0  0  0  0  0  0  0  0  0  0
    3.0252   -6.1768    1.7844 O   0  0  0  0  0  0  0  0  0  0  0  0
    2.0414   -5.9437   -0.5094 O   0  0  0  0  0  0  0  0  0  0  0  0
    0.7504    0.8683    0.0692 H   0  0  0  0  0  0  0  0  0  0  0  0
    0.7166   -0.8614    0.0704 H   0  0  0  0  0  0  0  0  0  0  0  0
    6.8088    0.9218   -0.8434 H   0  0  0  0  0  0  0  0  0  0  0  0
    6.8168    0.9357    0.9612 H   0  0  0  0  0  0  0  0  0  0  0  0
    9.0159   -0.9906    0.0734 H   0  0  0  0  0  0  0  0  0  0  0  0
    9.1881   -3.4702    0.0743 H   0  0  0  0  0  0  0  0  0  0  0  0
    7.2286   -4.8754    0.0626 H   0  0  0  0  0  0  0  0  0  0  0  0
    5.4531   -5.7193    0.7221 H   0  0  0  0  0  0  0  0  0  0  0  0
    5.2094   -5.5989   -1.0599 H   0  0  0  0  0  0  0  0  0  0  0  0
    3.4704   -5.3888    2.1569 H   0  0  0  0  0  0  0  0  0  0  0  0
    1.4172   -6.7006   -0.5539 H   0  0  0  0  0  0  0  0  0  0  0  0
  1  2  1  0  0  0  0
  1 20  1  0  0  0  0
  1 21  1  0  0  0  0
  2  3  1  0  0  0  0
  2  6  2  0  0  0  0
  3  4  1  0  0  0  0
  4  5  2  0  0  0  0
  4  9  1  0  0  0  0
  5  6  1  0  0  0  0
  5  7  1  0  0  0  0
  7  8  2  0  0  0  0
  7 13  1  0  0  0  0
  8  9  1  0  0  0  0
  8 10  1  0  0  0  0
  9 22  1  0  0  0  0
  9 23  1  0  0  0  0
 10 11  2  0  0  0  0
 10 24  1  0  0  0  0
 11 12  1  0  0  0  0
 11 25  1  0  0  0  0
 12 13  2  0  0  0  0
 12 26  1  0  0  0  0
 13 14  1  0  0  0  0
 14 15  1  0  0  0  0
 15 16  1  0  0  0  0
 15 27  1  0  0  0  0
 15 28  1  0  0  0  0
 16 17  2  0  0  0  0
 16 18  1  0  0  0  0
 16 19  1  0  0  0  0
 18 29  1  0  0  0  0
 19 30  1  0  0  0  0
M  END
$$$$
