2UN
 OpenBabel04121316043D

 49 50  0  0  0  0  0  0  0  0999 V2000
    0.8543   -0.0823   -0.0244 C   0  0  0  0  0  0  0  0  0  0  0  0
    2.2727   -0.2026   -0.0507 O   0  0  0  0  0  0  0  0  0  0  0  0
    2.9003   -0.9024    0.9231 C   0  0  0  0  0  0  0  0  0  0  0  0
    2.3001   -1.4956    1.8099 O   0  0  0  0  0  0  0  0  0  0  0  0
    4.4217   -0.7715    0.8252 C   0  0  0  0  0  0  0  0  0  0  0  0
    5.0684   -1.3740   -0.4220 C   0  0  0  0  0  0  0  0  0  0  0  0
    5.9891   -0.8473   -1.0444 O   0  0  0  0  0  0  0  0  0  0  0  0
    4.5299   -2.5645   -0.7929 O   0  0  0  0  0  0  0  0  0  0  0  0
    5.0864   -3.0418   -2.0252 C   0  0  0  0  0  0  0  0  0  0  0  0
    4.7466    0.7395    0.8952 C   0  0  0  0  0  0  0  0  0  0  0  0
    4.3271    1.6632   -0.2121 C   0  0  0  0  0  0  0  0  0  0  0  0
    4.0167    1.1667   -1.4868 C   0  0  0  0  0  0  0  0  0  0  0  0
    3.9915    1.9691   -2.5964 C   0  0  0  0  0  0  0  0  0  0  0  0
    4.1525    3.3268   -2.4198 C   0  0  0  0  0  0  0  0  0  0  0  0
    4.3518    3.8637   -1.1420 C   0  0  0  0  0  0  0  0  0  0  0  0
    4.5089    3.0312   -0.0419 C   0  0  0  0  0  0  0  0  0  0  0  0
    5.0373   -1.5354    2.0300 C   0  0  0  0  0  0  0  0  0  0  0  0
    6.5493   -1.5602    2.0841 C   0  0  0  0  0  0  0  0  0  0  0  0
    7.3488   -0.4342    1.8605 C   0  0  0  0  0  0  0  0  0  0  0  0
    8.6718   -0.5423    1.4738 C   0  0  0  0  0  0  0  0  0  0  0  0
    9.3111   -1.7391    1.7031 C   0  0  0  0  0  0  0  0  0  0  0  0
    8.5871   -2.7967    2.2652 C   0  0  0  0  0  0  0  0  0  0  0  0
    7.2011   -2.7523    2.3450 C   0  0  0  0  0  0  0  0  0  0  0  0
   10.7147   -1.7644    1.5053 N   0  0  0  0  0  0  0  0  0  0  0  0
   11.5400   -3.1791    1.7668 S   0  0  0  0  0  0  0  0  0  0  0  0
   11.6712   -3.3189    3.2056 O   0  0  0  0  0  0  0  0  0  0  0  0
   10.9942   -4.2198    0.9420 O   0  0  0  0  0  0  0  0  0  0  0  0
   12.9988   -2.8058    1.2172 O   0  0  0  0  0  0  0  0  0  0  0  0
    0.5660    0.5813   -0.8481 H   0  0  0  0  0  0  0  0  0  0  0  0
    0.5112    0.3663    0.9117 H   0  0  0  0  0  0  0  0  0  0  0  0
    0.4174   -1.0651   -0.1958 H   0  0  0  0  0  0  0  0  0  0  0  0
    4.7382   -4.0626   -2.1893 H   0  0  0  0  0  0  0  0  0  0  0  0
    6.1838   -3.0524   -2.0045 H   0  0  0  0  0  0  0  0  0  0  0  0
    4.7342   -2.4111   -2.8493 H   0  0  0  0  0  0  0  0  0  0  0  0
    5.8087    0.8693    0.7326 H   0  0  0  0  0  0  0  0  0  0  0  0
    4.5088    1.1433    1.8900 H   0  0  0  0  0  0  0  0  0  0  0  0
    3.8259    0.1194   -1.6808 H   0  0  0  0  0  0  0  0  0  0  0  0
    3.8571    1.4998   -3.5645 H   0  0  0  0  0  0  0  0  0  0  0  0
    4.1247    3.9646   -3.2920 H   0  0  0  0  0  0  0  0  0  0  0  0
    4.4186    4.9364   -1.0112 H   0  0  0  0  0  0  0  0  0  0  0  0
    4.8200    3.4365    0.9201 H   0  0  0  0  0  0  0  0  0  0  0  0
    4.6850   -2.5783    1.9520 H   0  0  0  0  0  0  0  0  0  0  0  0
    4.6531   -1.1605    2.9842 H   0  0  0  0  0  0  0  0  0  0  0  0
    6.9837    0.5750    1.9699 H   0  0  0  0  0  0  0  0  0  0  0  0
    9.1769    0.3305    1.0694 H   0  0  0  0  0  0  0  0  0  0  0  0
    9.0688   -3.6960    2.6283 H   0  0  0  0  0  0  0  0  0  0  0  0
    6.6547   -3.6461    2.6337 H   0  0  0  0  0  0  0  0  0  0  0  0
   11.1196   -1.1007    0.8500 H   0  0  0  0  0  0  0  0  0  0  0  0
   13.4430   -2.2631    1.8964 H   0  0  0  0  0  0  0  0  0  0  0  0
  1  2  1  0  0  0  0
  1 29  1  0  0  0  0
  1 30  1  0  0  0  0
  1 31  1  0  0  0  0
  2  3  1  0  0  0  0
  3  4  2  0  0  0  0
  3  5  1  0  0  0  0
  5  6  1  0  0  0  0
  5 10  1  0  0  0  0
  5 17  1  0  0  0  0
  6  7  2  0  0  0  0
  6  8  1  0  0  0  0
  8  9  1  0  0  0  0
  9 32  1  0  0  0  0
  9 33  1  0  0  0  0
  9 34  1  0  0  0  0
 10 11  1  0  0  0  0
 10 35  1  0  0  0  0
 10 36  1  0  0  0  0
 11 12  2  0  0  0  0
 11 16  1  0  0  0  0
 12 13  1  0  0  0  0
 12 37  1  0  0  0  0
 13 14  2  0  0  0  0
 13 38  1  0  0  0  0
 14 15  1  0  0  0  0
 14 39  1  0  0  0  0
 15 16  2  0  0  0  0
 15 40  1  0  0  0  0
 16 41  1  0  0  0  0
 17 18  1  0  0  0  0
 17 42  1  0  0  0  0
 17 43  1  0  0  0  0
 18 19  2  0  0  0  0
 18 23  1  0  0  0  0
 19 20  1  0  0  0  0
 19 44  1  0  0  0  0
 20 21  2  0  0  0  0
 20 45  1  0  0  0  0
 21 22  1  0  0  0  0
 21 24  1  0  0  0  0
 22 23  2  0  0  0  0
 22 46  1  0  0  0  0
 23 47  1  0  0  0  0
 24 25  1  0  0  0  0
 24 48  1  0  0  0  0
 25 26  2  0  0  0  0
 25 27  2  0  0  0  0
 25 28  1  0  0  0  0
 28 49  1  0  0  0  0
M  END
$$$$
