303
 OpenBabel04121316043D

 55 58  0  0  1  0  0  0  0  0999 V2000
    0.8361   -0.1175   -0.1966 O   0  0  0  0  0  0  0  0  0  0  0  0
    2.0700   -0.0758   -0.1532 C   0  0  0  0  0  0  0  0  0  0  0  0
    2.7015    0.7075    0.9150 C   0  0  0  0  0  0  0  0  0  0  0  0
    2.4841    2.0844    0.9063 C   0  0  0  0  0  0  0  0  0  0  0  0
    3.0747    2.8723    1.8789 C   0  0  0  0  0  0  0  0  0  0  0  0
    3.9019    2.2846    2.8384 C   0  0  0  0  0  0  0  0  0  0  0  0
    4.1550    0.8920    2.8221 C   0  0  0  0  0  0  0  0  0  0  0  0
    3.5230    0.0967    1.8703 C   0  0  0  0  0  0  0  0  0  0  0  0
    5.0729    0.3464    3.7185 C   0  0  0  0  0  0  0  0  0  0  0  0
    5.8217    1.1949    4.5261 C   0  0  0  0  0  0  0  0  0  0  0  0
    5.4734    2.5467    4.6500 C   0  0  0  0  0  0  0  0  0  0  0  0
    4.4948    3.0803    3.8114 C   0  0  0  0  0  0  0  0  0  0  0  0
    6.1100    3.3873    5.7046 C   0  0  0  0  0  0  0  0  0  0  0  0
    5.7523    4.6048    5.9710 N   0  0  0  0  0  0  0  0  0  0  0  0
    7.1114    2.8924    6.4737 N   0  0  0  0  0  0  0  0  0  0  0  0
    2.8524   -0.7801   -1.0346 N   0  0  0  0  0  0  0  0  0  0  0  0
    4.2518   -0.7462   -1.1174 C   0  0  0  0  0  0  0  0  0  0  0  0
    4.9582    0.4554   -1.1066 C   0  0  0  0  0  0  0  0  0  0  0  0
    6.3480    0.4529   -1.0874 C   0  0  0  0  0  0  0  0  0  0  0  0
    7.0445   -0.7557   -1.0417 C   0  0  0  0  0  0  0  0  0  0  0  0
    6.3398   -1.9752   -1.0635 C   0  0  0  0  0  0  0  0  0  0  0  0
    4.9380   -1.9543   -1.1600 C   0  0  0  0  0  0  0  0  0  0  0  0
    7.0722   -3.3002   -0.9049 C   0  0  1  0  0  0  0  0  0  0  0  0
    6.6103   -4.0165   -1.5987 H   0  0  0  0  0  0  0  0  0  0  0  0
    8.4918   -3.1832   -1.3153 N   0  0  0  0  0  0  0  0  0  0  0  0
    9.1431   -2.0723   -0.6083 C   0  0  0  0  0  0  0  0  0  0  0  0
    8.5510   -0.7345   -1.0406 C   0  0  0  0  0  0  0  0  0  0  0  0
    6.9717   -3.8881    0.5401 C   0  0  0  0  0  0  0  0  0  0  0  0
    5.5350   -4.0787    1.0344 C   0  0  0  0  0  0  0  0  0  0  0  0
    7.6941   -5.2384    0.6189 C   0  0  0  0  0  0  0  0  0  0  0  0
    1.8787    2.5357    0.1264 H   0  0  0  0  0  0  0  0  0  0  0  0
    2.9140    3.9476    1.8607 H   0  0  0  0  0  0  0  0  0  0  0  0
    3.7177   -0.9724    1.8311 H   0  0  0  0  0  0  0  0  0  0  0  0
    5.2401   -0.7267    3.7766 H   0  0  0  0  0  0  0  0  0  0  0  0
    6.6666    0.7678    5.0526 H   0  0  0  0  0  0  0  0  0  0  0  0
    4.1900    4.1182    3.8743 H   0  0  0  0  0  0  0  0  0  0  0  0
    4.9928    4.9377    5.3790 H   0  0  0  0  0  0  0  0  0  0  0  0
    7.3636    1.9183    6.5018 H   0  0  0  0  0  0  0  0  0  0  0  0
    7.3790    3.4632    7.2645 H   0  0  0  0  0  0  0  0  0  0  0  0
    2.3501   -1.4932   -1.5477 H   0  0  0  0  0  0  0  0  0  0  0  0
    4.4398    1.4082   -1.1337 H   0  0  0  0  0  0  0  0  0  0  0  0
    6.8840    1.3983   -1.0938 H   0  0  0  0  0  0  0  0  0  0  0  0
    4.3779   -2.8868   -1.1347 H   0  0  0  0  0  0  0  0  0  0  0  0
    8.5106   -2.9853   -2.3165 H   0  0  0  0  0  0  0  0  0  0  0  0
   10.2180   -2.0857   -0.8150 H   0  0  0  0  0  0  0  0  0  0  0  0
    9.0561   -2.1862    0.4778 H   0  0  0  0  0  0  0  0  0  0  0  0
    8.8856   -0.4999   -2.0585 H   0  0  0  0  0  0  0  0  0  0  0  0
    8.9139    0.0537   -0.3714 H   0  0  0  0  0  0  0  0  0  0  0  0
    7.4433   -3.2041    1.2556 H   0  0  0  0  0  0  0  0  0  0  0  0
    4.9747   -4.7413    0.3674 H   0  0  0  0  0  0  0  0  0  0  0  0
    5.0080   -3.1247    1.1147 H   0  0  0  0  0  0  0  0  0  0  0  0
    5.5230   -4.5076    2.0407 H   0  0  0  0  0  0  0  0  0  0  0  0
    7.2203   -5.9684   -0.0463 H   0  0  0  0  0  0  0  0  0  0  0  0
    7.6642   -5.6324    1.6390 H   0  0  0  0  0  0  0  0  0  0  0  0
    8.7475   -5.1542    0.3343 H   0  0  0  0  0  0  0  0  0  0  0  0
  1  2  2  0  0  0  0
  2  3  1  0  0  0  0
  2 16  1  0  0  0  0
  3  4  2  0  0  0  0
  3  8  1  0  0  0  0
  4  5  1  0  0  0  0
  4 31  1  0  0  0  0
  5  6  2  0  0  0  0
  5 32  1  0  0  0  0
  6  7  1  0  0  0  0
  6 12  1  0  0  0  0
  7  8  2  0  0  0  0
  7  9  1  0  0  0  0
  8 33  1  0  0  0  0
  9 10  2  0  0  0  0
  9 34  1  0  0  0  0
 10 11  1  0  0  0  0
 10 35  1  0  0  0  0
 11 12  2  0  0  0  0
 11 13  1  0  0  0  0
 12 36  1  0  0  0  0
 13 14  2  0  0  0  0
 13 15  1  0  0  0  0
 14 37  1  0  0  0  0
 15 38  1  0  0  0  0
 15 39  1  0  0  0  0
 16 17  1  0  0  0  0
 16 40  1  0  0  0  0
 17 18  2  0  0  0  0
 17 22  1  0  0  0  0
 18 19  1  0  0  0  0
 18 41  1  0  0  0  0
 19 20  2  0  0  0  0
 19 42  1  0  0  0  0
 20 21  1  0  0  0  0
 20 27  1  0  0  0  0
 21 22  2  0  0  0  0
 21 23  1  0  0  0  0
 22 43  1  0  0  0  0
 23 24  1  6  0  0  0
 23 25  1  0  0  0  0
 23 28  1  0  0  0  0
 25 26  1  0  0  0  0
 25 44  1  0  0  0  0
 26 27  1  0  0  0  0
 26 45  1  0  0  0  0
 26 46  1  0  0  0  0
 27 47  1  0  0  0  0
 27 48  1  0  0  0  0
 28 29  1  0  0  0  0
 28 30  1  0  0  0  0
 28 49  1  0  0  0  0
 29 50  1  0  0  0  0
 29 51  1  0  0  0  0
 29 52  1  0  0  0  0
 30 53  1  0  0  0  0
 30 54  1  0  0  0  0
 30 55  1  0  0  0  0
M  END
$$$$
