30E
 OpenBabel04121316053D

 58 60  0  0  1  0  0  0  0  0999 V2000
    0.9613   -0.0069   -0.3667 C   0  0  0  0  0  0  0  0  0  0  0  0
    2.4602   -0.0515   -0.5712 C   0  0  0  0  0  0  0  0  0  0  0  0
    3.2380   -1.3637   -0.6413 C   0  0  1  0  0  0  0  0  0  0  0  0
    3.6604   -1.3676   -1.6545 H   0  0  0  0  0  0  0  0  0  0  0  0
    4.3704   -1.2171    0.4454 C   0  0  0  0  0  0  0  0  0  0  0  0
    3.7559   -1.4128    1.7762 N   0  0  0  0  0  0  0  0  0  0  0  0
    3.2969   -2.7791    2.0031 C   0  0  0  0  0  0  0  0  0  0  0  0
    2.1411   -3.0345    1.0255 C   0  0  0  0  0  0  0  0  0  0  0  0
    2.5214   -2.7234   -0.4427 C   0  0  1  0  0  0  0  0  0  0  0  0
    3.2452   -3.5042   -0.7244 H   0  0  0  0  0  0  0  0  0  0  0  0
    1.3266   -2.9162   -1.3588 C   0  0  0  0  0  0  0  0  0  0  0  0
    0.1498   -2.7635   -1.0109 O   0  0  0  0  0  0  0  0  0  0  0  0
    1.6290   -3.2959   -2.6147 O   0  0  0  0  0  0  0  0  0  0  0  0
    3.7894   -0.4909    2.8274 C   0  0  0  0  0  0  0  0  0  0  0  0
    4.3954   -0.8684    3.9767 N   0  0  0  0  0  0  0  0  0  0  0  0
    4.4159    0.0443    5.0036 C   0  0  0  0  0  0  0  0  0  0  0  0
    3.7896    1.2790    4.9281 C   0  0  0  0  0  0  0  0  0  0  0  0
    3.1662    1.6965    3.8399 N   0  0  0  0  0  0  0  0  0  0  0  0
    3.1652    0.8193    2.8239 C   0  0  0  0  0  0  0  0  0  0  0  0
    2.3437    1.3260    1.8489 N   0  0  0  0  0  0  0  0  0  0  0  0
    5.1035   -0.3213    6.2345 C   0  0  0  0  0  0  0  0  0  0  0  0
    5.6902    0.6534    7.0620 C   0  0  0  0  0  0  0  0  0  0  0  0
    6.2714    0.3200    8.2820 C   0  0  0  0  0  0  0  0  0  0  0  0
    6.7653    1.4127    8.9563 O   0  0  0  0  0  0  0  0  0  0  0  0
    7.3984    1.1629   10.2051 C   0  0  0  0  0  0  0  0  0  0  0  0
    6.2857   -1.0266    8.6846 C   0  0  0  0  0  0  0  0  0  0  0  0
    5.7151   -2.0109    7.8530 C   0  0  0  0  0  0  0  0  0  0  0  0
    5.1353   -1.6513    6.6418 C   0  0  0  0  0  0  0  0  0  0  0  0
    5.7471   -3.3010    8.2910 O   0  0  0  0  0  0  0  0  0  0  0  0
    5.1850   -4.3167    7.4893 C   0  0  0  0  0  0  0  0  0  0  0  0
    6.8699   -1.2774    9.8934 O   0  0  0  0  0  0  0  0  0  0  0  0
    6.9581   -2.5927   10.3916 C   0  0  0  0  0  0  0  0  0  0  0  0
    0.6414    0.9946   -0.0488 H   0  0  0  0  0  0  0  0  0  0  0  0
    0.6213   -0.6819    0.4237 H   0  0  0  0  0  0  0  0  0  0  0  0
    0.4436   -0.2201   -1.2963 H   0  0  0  0  0  0  0  0  0  0  0  0
    2.9298    0.4028    0.2650 H   0  0  0  0  0  0  0  0  0  0  0  0
    2.7883    0.6889   -1.3063 H   0  0  0  0  0  0  0  0  0  0  0  0
    4.8899   -0.2529    0.3741 H   0  0  0  0  0  0  0  0  0  0  0  0
    5.1401   -1.9806    0.2548 H   0  0  0  0  0  0  0  0  0  0  0  0
    2.9593   -2.9613    3.0289 H   0  0  0  0  0  0  0  0  0  0  0  0
    4.1027   -3.4987    1.7964 H   0  0  0  0  0  0  0  0  0  0  0  0
    1.2853   -2.4290    1.3379 H   0  0  0  0  0  0  0  0  0  0  0  0
    1.8083   -4.0779    1.1009 H   0  0  0  0  0  0  0  0  0  0  0  0
    2.5756   -3.4405   -2.7994 H   0  0  0  0  0  0  0  0  0  0  0  0
    3.7527    1.9745    5.7572 H   0  0  0  0  0  0  0  0  0  0  0  0
    2.0104    2.2595    2.0411 H   0  0  0  0  0  0  0  0  0  0  0  0
    1.5917    0.6621    1.7354 H   0  0  0  0  0  0  0  0  0  0  0  0
    5.6989    1.7033    6.7683 H   0  0  0  0  0  0  0  0  0  0  0  0
    7.7567    2.1048   10.6233 H   0  0  0  0  0  0  0  0  0  0  0  0
    8.2774    0.5220   10.0690 H   0  0  0  0  0  0  0  0  0  0  0  0
    6.6813    0.7505   10.9247 H   0  0  0  0  0  0  0  0  0  0  0  0
    4.6730   -2.3907    5.9942 H   0  0  0  0  0  0  0  0  0  0  0  0
    5.3364   -5.2572    8.0240 H   0  0  0  0  0  0  0  0  0  0  0  0
    5.7026   -4.3820    6.5286 H   0  0  0  0  0  0  0  0  0  0  0  0
    4.1096   -4.1604    7.3695 H   0  0  0  0  0  0  0  0  0  0  0  0
    7.4735   -2.5447   11.3516 H   0  0  0  0  0  0  0  0  0  0  0  0
    7.5641   -3.2157    9.7271 H   0  0  0  0  0  0  0  0  0  0  0  0
    5.9589   -2.9972   10.5778 H   0  0  0  0  0  0  0  0  0  0  0  0
  1  2  1  0  0  0  0
  1 33  1  0  0  0  0
  1 34  1  0  0  0  0
  1 35  1  0  0  0  0
  2  3  1  0  0  0  0
  2 36  1  0  0  0  0
  2 37  1  0  0  0  0
  3  4  1  6  0  0  0
  3  5  1  0  0  0  0
  3  9  1  0  0  0  0
  5  6  1  0  0  0  0
  5 38  1  0  0  0  0
  5 39  1  0  0  0  0
  6  7  1  0  0  0  0
  6 14  1  0  0  0  0
  7  8  1  0  0  0  0
  7 40  1  0  0  0  0
  7 41  1  0  0  0  0
  8  9  1  0  0  0  0
  8 42  1  0  0  0  0
  8 43  1  0  0  0  0
  9 11  1  0  0  0  0
  9 10  1  6  0  0  0
 11 12  2  0  0  0  0
 11 13  1  0  0  0  0
 13 44  1  0  0  0  0
 14 15  2  0  0  0  0
 14 19  1  0  0  0  0
 15 16  1  0  0  0  0
 16 17  2  0  0  0  0
 16 21  1  0  0  0  0
 17 18  1  0  0  0  0
 17 45  1  0  0  0  0
 18 19  2  0  0  0  0
 19 20  1  0  0  0  0
 20 46  1  0  0  0  0
 20 47  1  0  0  0  0
 21 22  2  0  0  0  0
 21 28  1  0  0  0  0
 22 23  1  0  0  0  0
 22 48  1  0  0  0  0
 23 24  1  0  0  0  0
 23 26  2  0  0  0  0
 24 25  1  0  0  0  0
 25 49  1  0  0  0  0
 25 50  1  0  0  0  0
 25 51  1  0  0  0  0
 26 27  1  0  0  0  0
 26 31  1  0  0  0  0
 27 28  2  0  0  0  0
 27 29  1  0  0  0  0
 28 52  1  0  0  0  0
 29 30  1  0  0  0  0
 30 53  1  0  0  0  0
 30 54  1  0  0  0  0
 30 55  1  0  0  0  0
 31 32  1  0  0  0  0
 32 56  1  0  0  0  0
 32 57  1  0  0  0  0
 32 58  1  0  0  0  0
M  END
$$$$
