316
 OpenBabel04121316053D

 87 90  0  0  1  0  0  0  0  0999 V2000
   -6.9330   -2.3989   -5.0918 C   0  0  0  0  0  0  0  0  0  0  0  0
   -6.6425   -3.8297   -4.7918 C   0  0  0  0  0  0  0  0  0  0  0  0
   -6.4063   -4.2984   -3.3834 C   0  0  0  0  0  0  0  0  0  0  0  0
   -5.8494   -5.6832   -3.2700 N   0  0  0  0  0  0  0  0  0  0  0  0
   -5.3906   -6.5584   -4.3001 C   0  0  0  0  0  0  0  0  0  0  0  0
   -4.9810   -7.7106   -4.1655 O   0  0  0  0  0  0  0  0  0  0  0  0
   -5.3176   -6.2089   -5.7088 C   0  0  0  0  0  0  0  0  0  0  0  0
   -6.0444   -6.8911   -6.6483 C   0  0  0  0  0  0  0  0  0  0  0  0
   -5.9780   -6.4792   -7.9779 C   0  0  0  0  0  0  0  0  0  0  0  0
   -6.6292   -7.2947   -9.0259 C   0  0  0  0  0  0  0  0  0  0  0  0
   -5.2873   -5.3245   -8.3390 C   0  0  0  0  0  0  0  0  0  0  0  0
   -4.5491   -4.6717   -7.3713 C   0  0  0  0  0  0  0  0  0  0  0  0
   -4.4496   -5.2334   -6.1158 C   0  0  0  0  0  0  0  0  0  0  0  0
   -4.1060   -3.3133   -7.6460 C   0  0  0  0  0  0  0  0  0  0  0  0
   -4.1378   -2.9062   -8.8069 O   0  0  0  0  0  0  0  0  0  0  0  0
   -3.7673   -2.4638   -6.6410 N   0  0  0  0  0  0  0  0  0  0  0  0
   -3.3449   -2.4703   -5.2167 C   0  0  2  0  0  0  0  0  0  0  0  0
   -4.2169   -2.8227   -4.6814 H   0  0  0  0  0  0  0  0  0  0  0  0
   -3.2665   -0.9757   -4.7214 C   0  0  1  0  0  0  0  0  0  0  0  0
   -3.1040   -1.0626   -3.6311 H   0  0  0  0  0  0  0  0  0  0  0  0
   -2.2067   -0.0609   -5.4030 C   0  0  2  0  0  0  0  0  0  0  0  0
   -1.4211   -0.1445   -4.6448 H   0  0  0  0  0  0  0  0  0  0  0  0
   -2.3368    1.3972   -5.3402 N   0  0  0  0  0  0  0  0  0  0  0  0
   -1.0234    1.9311   -5.7768 C   0  0  0  0  0  0  0  0  0  0  0  0
   -0.5043    1.3956   -7.1811 C   0  0  0  0  0  0  0  0  0  0  0  0
   -0.4025   -0.0672   -7.2497 N   0  0  0  0  0  0  0  0  0  0  0  0
   -1.6809   -0.4695   -6.9643 C   0  0  0  0  0  0  0  0  0  0  0  0
   -2.3154   -1.0870   -7.8265 O   0  0  0  0  0  0  0  0  0  0  0  0
    0.7882   -0.8962   -7.9142 C   0  0  0  0  0  0  0  0  0  0  0  0
    0.9001   -2.5004   -7.8356 C   0  0  0  0  0  0  0  0  0  0  0  0
    2.1277   -3.2336   -7.7479 C   0  0  0  0  0  0  0  0  0  0  0  0
    2.1787   -4.6584   -7.5442 C   0  0  0  0  0  0  0  0  0  0  0  0
    1.0178   -5.4007   -7.3816 C   0  0  0  0  0  0  0  0  0  0  0  0
   -0.1784   -4.7182   -7.4554 C   0  0  0  0  0  0  0  0  0  0  0  0
   -0.2229   -3.3258   -7.7170 C   0  0  0  0  0  0  0  0  0  0  0  0
   -4.4801   -0.2400   -4.8970 O   0  0  0  0  0  0  0  0  0  0  0  0
   -2.1643   -3.5805   -4.7550 C   0  0  0  0  0  0  0  0  0  0  0  0
   -0.6979   -3.2606   -4.5564 C   0  0  0  0  0  0  0  0  0  0  0  0
   -0.3911   -1.9815   -4.8297 C   0  0  0  0  0  0  0  0  0  0  0  0
    0.8039   -1.2948   -4.8487 C   0  0  0  0  0  0  0  0  0  0  0  0
    0.8712   -0.0132   -5.2078 F   0  0  0  0  0  0  0  0  0  0  0  0
    1.9068   -2.0498   -4.9006 C   0  0  0  0  0  0  0  0  0  0  0  0
    1.7262   -3.4102   -4.6814 C   0  0  0  0  0  0  0  0  0  0  0  0
    0.4431   -4.0232   -4.4772 C   0  0  0  0  0  0  0  0  0  0  0  0
    2.7968   -4.1825   -4.8854 F   0  0  0  0  0  0  0  0  0  0  0  0
   -5.8498   -6.1718   -1.8783 C   0  0  0  0  0  0  0  0  0  0  0  0
   -5.4194   -7.6174   -1.7083 C   0  0  0  0  0  0  0  0  0  0  0  0
   -5.4650   -8.1358   -0.3031 C   0  0  0  0  0  0  0  0  0  0  0  0
   -6.6530   -2.1906   -6.1367 H   0  0  0  0  0  0  0  0  0  0  0  0
   -6.2939   -1.8179   -4.4498 H   0  0  0  0  0  0  0  0  0  0  0  0
   -7.9595   -2.1168   -4.9093 H   0  0  0  0  0  0  0  0  0  0  0  0
   -5.6544   -3.8428   -5.1617 H   0  0  0  0  0  0  0  0  0  0  0  0
   -7.2445   -4.5101   -5.3901 H   0  0  0  0  0  0  0  0  0  0  0  0
   -7.3488   -4.2405   -2.8291 H   0  0  0  0  0  0  0  0  0  0  0  0
   -5.6943   -3.6334   -2.8662 H   0  0  0  0  0  0  0  0  0  0  0  0
   -6.6296   -7.7455   -6.3319 H   0  0  0  0  0  0  0  0  0  0  0  0
   -7.0916   -8.1732   -8.5713 H   0  0  0  0  0  0  0  0  0  0  0  0
   -5.8509   -7.6253   -9.7182 H   0  0  0  0  0  0  0  0  0  0  0  0
   -7.3868   -6.6997   -9.5364 H   0  0  0  0  0  0  0  0  0  0  0  0
   -5.3375   -4.9272   -9.3530 H   0  0  0  0  0  0  0  0  0  0  0  0
   -3.9345   -4.7854   -5.3047 H   0  0  0  0  0  0  0  0  0  0  0  0
   -3.6115   -1.5785   -7.1305 H   0  0  0  0  0  0  0  0  0  0  0  0
   -2.5105    1.6323   -4.3576 H   0  0  0  0  0  0  0  0  0  0  0  0
   -0.2873    1.7225   -4.9926 H   0  0  0  0  0  0  0  0  0  0  0  0
   -1.1447    3.0094   -5.8175 H   0  0  0  0  0  0  0  0  0  0  0  0
    0.4313    1.8589   -7.4749 H   0  0  0  0  0  0  0  0  0  0  0  0
   -1.2909    1.6886   -7.9005 H   0  0  0  0  0  0  0  0  0  0  0  0
    1.6525   -0.5279   -7.3385 H   0  0  0  0  0  0  0  0  0  0  0  0
    0.9888   -0.5627   -8.9373 H   0  0  0  0  0  0  0  0  0  0  0  0
    3.0869   -2.7278   -7.6267 H   0  0  0  0  0  0  0  0  0  0  0  0
    3.1228   -5.1632   -7.3240 H   0  0  0  0  0  0  0  0  0  0  0  0
    1.0311   -6.4405   -7.0524 H   0  0  0  0  0  0  0  0  0  0  0  0
   -1.0880   -5.2226   -7.1355 H   0  0  0  0  0  0  0  0  0  0  0  0
   -1.2004   -2.8952   -7.6305 H   0  0  0  0  0  0  0  0  0  0  0  0
   -5.1689   -0.5789   -4.3218 H   0  0  0  0  0  0  0  0  0  0  0  0
   -2.1663   -4.3980   -5.4781 H   0  0  0  0  0  0  0  0  0  0  0  0
   -2.5121   -3.9689   -3.7911 H   0  0  0  0  0  0  0  0  0  0  0  0
   -1.1044   -1.7380   -5.5669 H   0  0  0  0  0  0  0  0  0  0  0  0
    2.7802   -1.6057   -5.3658 H   0  0  0  0  0  0  0  0  0  0  0  0
    0.3788   -5.1030   -4.5305 H   0  0  0  0  0  0  0  0  0  0  0  0
   -6.8719   -6.0497   -1.4967 H   0  0  0  0  0  0  0  0  0  0  0  0
   -5.2051   -5.5098   -1.2841 H   0  0  0  0  0  0  0  0  0  0  0  0
   -4.3840   -7.7226   -2.0539 H   0  0  0  0  0  0  0  0  0  0  0  0
   -6.0814   -8.2537   -2.3090 H   0  0  0  0  0  0  0  0  0  0  0  0
   -4.7904   -7.5629    0.3349 H   0  0  0  0  0  0  0  0  0  0  0  0
   -5.1375   -9.1806   -0.3165 H   0  0  0  0  0  0  0  0  0  0  0  0
   -6.4829   -8.0901    0.0867 H   0  0  0  0  0  0  0  0  0  0  0  0
  1  2  1  0  0  0  0
  1 49  1  0  0  0  0
  1 50  1  0  0  0  0
  1 51  1  0  0  0  0
  2  3  1  0  0  0  0
  2 52  1  0  0  0  0
  2 53  1  0  0  0  0
  3  4  1  0  0  0  0
  3 54  1  0  0  0  0
  3 55  1  0  0  0  0
  4  5  1  0  0  0  0
  4 46  1  0  0  0  0
  5  6  2  0  0  0  0
  5  7  1  0  0  0  0
  7  8  2  0  0  0  0
  7 13  1  0  0  0  0
  8  9  1  0  0  0  0
  8 56  1  0  0  0  0
  9 10  1  0  0  0  0
  9 11  2  0  0  0  0
 10 57  1  0  0  0  0
 10 58  1  0  0  0  0
 10 59  1  0  0  0  0
 11 12  1  0  0  0  0
 11 60  1  0  0  0  0
 12 13  2  0  0  0  0
 12 14  1  0  0  0  0
 13 61  1  0  0  0  0
 14 15  2  0  0  0  0
 14 16  1  0  0  0  0
 16 62  1  0  0  0  0
 17 19  1  0  0  0  0
 17 37  1  0  0  0  0
 17 18  1  1  0  0  0
 17 16  1  0  0  0  0
 19 20  1  1  0  0  0
 19 36  1  0  0  0  0
 21 23  1  0  0  0  0
 21 27  1  0  0  0  0
 21 22  1  1  0  0  0
 21 19  1  0  0  0  0
 23 24  1  0  0  0  0
 23 63  1  0  0  0  0
 24 25  1  0  0  0  0
 24 64  1  0  0  0  0
 24 65  1  0  0  0  0
 25 26  1  0  0  0  0
 25 66  1  0  0  0  0
 25 67  1  0  0  0  0
 26 27  1  0  0  0  0
 26 29  1  0  0  0  0
 27 28  2  0  0  0  0
 29 30  1  0  0  0  0
 29 68  1  0  0  0  0
 29 69  1  0  0  0  0
 30 31  2  0  0  0  0
 30 35  1  0  0  0  0
 31 32  1  0  0  0  0
 31 70  1  0  0  0  0
 32 33  2  0  0  0  0
 32 71  1  0  0  0  0
 33 34  1  0  0  0  0
 33 72  1  0  0  0  0
 34 35  2  0  0  0  0
 34 73  1  0  0  0  0
 35 74  1  0  0  0  0
 36 75  1  0  0  0  0
 37 38  1  0  0  0  0
 37 76  1  0  0  0  0
 37 77  1  0  0  0  0
 38 39  2  0  0  0  0
 38 44  1  0  0  0  0
 39 40  1  0  0  0  0
 39 78  1  0  0  0  0
 40 41  1  0  0  0  0
 40 42  2  0  0  0  0
 42 43  1  0  0  0  0
 42 79  1  0  0  0  0
 43 44  2  0  0  0  0
 43 45  1  0  0  0  0
 44 80  1  0  0  0  0
 46 47  1  0  0  0  0
 46 81  1  0  0  0  0
 46 82  1  0  0  0  0
 47 48  1  0  0  0  0
 47 83  1  0  0  0  0
 47 84  1  0  0  0  0
 48 85  1  0  0  0  0
 48 86  1  0  0  0  0
 48 87  1  0  0  0  0
M  END
$$$$
