320
 OpenBabel04121316053D

 47 50  0  0  0  0  0  0  0  0999 V2000
    1.0089   -0.2194   -0.0348 O   0  0  0  0  0  0  0  0  0  0  0  0
    2.2417   -0.0737    0.0114 C   0  0  0  0  0  0  0  0  0  0  0  0
    2.9493    1.1171    0.2009 N   0  0  0  0  0  0  0  0  0  0  0  0
    2.4772    2.4082    0.4234 C   0  0  0  0  0  0  0  0  0  0  0  0
    1.2076    2.5229    0.8521 C   0  0  0  0  0  0  0  0  0  0  0  0
    0.8074    3.7432    1.3417 C   0  0  0  0  0  0  0  0  0  0  0  0
    1.2202    4.8874    0.7523 C   0  0  0  0  0  0  0  0  0  0  0  0
    2.5627    4.8362    0.4326 C   0  0  0  0  0  0  0  0  0  0  0  0
    3.2362    3.5832    0.4079 C   0  0  0  0  0  0  0  0  0  0  0  0
    3.2670    5.9666    0.2784 F   0  0  0  0  0  0  0  0  0  0  0  0
    0.3887    5.9734    0.7116 O   0  0  0  0  0  0  0  0  0  0  0  0
   -1.0489    5.8109    0.8204 C   0  0  0  0  0  0  0  0  0  0  0  0
   -1.7205    7.0426    0.8679 C   0  0  0  0  0  0  0  0  0  0  0  0
   -3.0980    7.0596    1.0671 C   0  0  0  0  0  0  0  0  0  0  0  0
   -3.9034    5.9860    1.2424 N   0  0  0  0  0  0  0  0  0  0  0  0
   -3.2573    4.8173    1.1142 C   0  0  0  0  0  0  0  0  0  0  0  0
   -1.8914    4.6353    0.8855 C   0  0  0  0  0  0  0  0  0  0  0  0
   -1.8111    3.2133    0.8900 C   0  0  0  0  0  0  0  0  0  0  0  0
   -3.0213    2.5955    0.9087 C   0  0  0  0  0  0  0  0  0  0  0  0
   -3.8696    3.5858    1.2516 N   0  0  0  0  0  0  0  0  0  0  0  0
   -4.7925    3.4322    1.6173 H   0  0  0  0  0  0  0  0  0  0  0  0
    3.0001   -1.2078   -0.1883 N   0  0  0  0  0  0  0  0  0  0  0  0
    4.3575   -1.1756   -0.1150 C   0  0  0  0  0  0  0  0  0  0  0  0
    4.8839   -0.1274    0.2259 O   0  0  0  0  0  0  0  0  0  0  0  0
    5.1607   -2.4225   -0.4181 C   0  0  0  0  0  0  0  0  0  0  0  0
    6.6710   -2.1752   -0.3998 C   0  0  0  0  0  0  0  0  0  0  0  0
    7.2512   -0.8847   -0.3830 C   0  0  0  0  0  0  0  0  0  0  0  0
    8.6012   -0.6496   -0.5366 C   0  0  0  0  0  0  0  0  0  0  0  0
    9.4385   -1.7300   -0.5927 C   0  0  0  0  0  0  0  0  0  0  0  0
    8.9352   -3.0251   -0.4861 C   0  0  0  0  0  0  0  0  0  0  0  0
    7.5525   -3.2565   -0.4476 C   0  0  0  0  0  0  0  0  0  0  0  0
   10.7484   -1.5173   -0.7480 F   0  0  0  0  0  0  0  0  0  0  0  0
    3.9641    1.0361    0.1982 H   0  0  0  0  0  0  0  0  0  0  0  0
    0.5996    1.6400    0.9804 H   0  0  0  0  0  0  0  0  0  0  0  0
    0.0525    3.8052    2.1054 H   0  0  0  0  0  0  0  0  0  0  0  0
    4.3186    3.5601    0.3909 H   0  0  0  0  0  0  0  0  0  0  0  0
   -1.1829    7.9810    0.7583 H   0  0  0  0  0  0  0  0  0  0  0  0
   -3.6279    8.0088    1.0945 H   0  0  0  0  0  0  0  0  0  0  0  0
   -1.0091    2.5305    0.9490 H   0  0  0  0  0  0  0  0  0  0  0  0
   -3.2194    1.5307    0.8727 H   0  0  0  0  0  0  0  0  0  0  0  0
    2.4828   -2.0523   -0.3736 H   0  0  0  0  0  0  0  0  0  0  0  0
    4.8751   -2.8003   -1.4092 H   0  0  0  0  0  0  0  0  0  0  0  0
    4.8915   -3.1813    0.3274 H   0  0  0  0  0  0  0  0  0  0  0  0
    6.7179    0.0438   -0.2462 H   0  0  0  0  0  0  0  0  0  0  0  0
    8.9555    0.3736   -0.5950 H   0  0  0  0  0  0  0  0  0  0  0  0
    9.6346   -3.8505   -0.4433 H   0  0  0  0  0  0  0  0  0  0  0  0
    7.1816   -4.2790   -0.4549 H   0  0  0  0  0  0  0  0  0  0  0  0
  1  2  2  0  0  0  0
  2  3  1  0  0  0  0
  2 22  1  0  0  0  0
  3  4  1  0  0  0  0
  3 33  1  0  0  0  0
  4  5  2  0  0  0  0
  4  9  1  0  0  0  0
  5  6  1  0  0  0  0
  5 34  1  0  0  0  0
  6  7  2  0  0  0  0
  6 35  1  0  0  0  0
  7  8  1  0  0  0  0
  7 11  1  0  0  0  0
  8  9  2  0  0  0  0
  8 10  1  0  0  0  0
  9 36  1  0  0  0  0
 11 12  1  0  0  0  0
 12 13  2  0  0  0  0
 12 17  1  0  0  0  0
 13 14  1  0  0  0  0
 13 37  1  0  0  0  0
 14 15  2  0  0  0  0
 14 38  1  0  0  0  0
 15 16  1  0  0  0  0
 16 17  2  0  0  0  0
 16 20  1  0  0  0  0
 17 18  1  0  0  0  0
 18 19  2  0  0  0  0
 18 39  1  0  0  0  0
 19 20  1  0  0  0  0
 19 40  1  0  0  0  0
 20 21  1  0  0  0  0
 22 23  1  0  0  0  0
 22 41  1  0  0  0  0
 23 24  2  0  0  0  0
 23 25  1  0  0  0  0
 25 26  1  0  0  0  0
 25 42  1  0  0  0  0
 25 43  1  0  0  0  0
 26 27  2  0  0  0  0
 26 31  1  0  0  0  0
 27 28  1  0  0  0  0
 27 44  1  0  0  0  0
 28 29  2  0  0  0  0
 28 45  1  0  0  0  0
 29 30  1  0  0  0  0
 29 32  1  0  0  0  0
 30 31  2  0  0  0  0
 30 46  1  0  0  0  0
 31 47  1  0  0  0  0
M  END
$$$$
