322
 OpenBabel04121316053D

 37 38  0  0  1  0  0  0  0  0999 V2000
    1.0267    0.0188   -0.0908 C   0  0  0  0  0  0  0  0  0  0  0  0
    2.5344    0.0080   -0.0773 C   0  0  0  0  0  0  0  0  0  0  0  0
    2.9858    1.0351    0.8117 O   0  0  0  0  0  0  0  0  0  0  0  0
    4.3508    1.1248    0.8622 C   0  0  0  0  0  0  0  0  0  0  0  0
    4.8769    2.4142    0.8782 C   0  0  0  0  0  0  0  0  0  0  0  0
    6.2667    2.6176    0.7927 C   0  0  0  0  0  0  0  0  0  0  0  0
    6.7218    4.0441    1.1143 C   0  0  0  0  0  0  0  0  0  0  0  0
    8.1662    4.1185    1.5535 C   0  0  1  0  0  0  0  0  0  0  0  0
    8.7771    4.0387    0.6494 H   0  0  0  0  0  0  0  0  0  0  0  0
    8.8240    5.5968    2.3399 S   0  0  0  0  0  0  0  0  0  0  0  0
   10.1934    4.6049    2.9383 C   0  0  0  0  0  0  0  0  0  0  0  0
   11.6440    5.3145    3.3307 S   0  0  0  0  0  0  0  0  0  0  0  0
    9.8555    3.2645    2.9895 N   0  0  0  0  0  0  0  0  0  0  0  0
    8.5400    3.1009    2.6423 C   0  0  0  0  0  0  0  0  0  0  0  0
    7.7648    2.3409    3.2054 O   0  0  0  0  0  0  0  0  0  0  0  0
   10.5414    2.2365    3.8255 C   0  0  0  0  0  0  0  0  0  0  0  0
   10.1499    0.7467    3.6799 C   0  0  0  0  0  0  0  0  0  0  0  0
    9.3582    0.2991    2.8541 O   0  0  0  0  0  0  0  0  0  0  0  0
   10.7834   -0.1226    4.4990 O   0  0  0  0  0  0  0  0  0  0  0  0
    7.1060    1.4769    0.5880 C   0  0  0  0  0  0  0  0  0  0  0  0
    6.5903    0.1984    0.8170 C   0  0  0  0  0  0  0  0  0  0  0  0
    5.2157    0.0318    0.9371 C   0  0  0  0  0  0  0  0  0  0  0  0
    4.7236   -1.2375    1.0936 O   0  0  0  0  0  0  0  0  0  0  0  0
    7.6629   -1.3828    0.9846 Br  0  0  0  0  0  0  0  0  0  0  0  0
    8.8985    1.5631   -0.1182 Br  0  0  0  0  0  0  0  0  0  0  0  0
    0.6531   -0.7898   -0.7249 H   0  0  0  0  0  0  0  0  0  0  0  0
    0.6487    0.9772   -0.4514 H   0  0  0  0  0  0  0  0  0  0  0  0
    0.6514   -0.1290    0.9272 H   0  0  0  0  0  0  0  0  0  0  0  0
    2.9371    0.1649   -1.0866 H   0  0  0  0  0  0  0  0  0  0  0  0
    2.8023   -0.9876    0.2718 H   0  0  0  0  0  0  0  0  0  0  0  0
    4.1983    3.2646    0.9595 H   0  0  0  0  0  0  0  0  0  0  0  0
    6.1070    4.4455    1.9361 H   0  0  0  0  0  0  0  0  0  0  0  0
    6.5264    4.6813    0.2419 H   0  0  0  0  0  0  0  0  0  0  0  0
   10.4295    2.5271    4.8740 H   0  0  0  0  0  0  0  0  0  0  0  0
   11.6025    2.2785    3.5543 H   0  0  0  0  0  0  0  0  0  0  0  0
   11.4730    0.2109    5.0984 H   0  0  0  0  0  0  0  0  0  0  0  0
    5.4857   -1.8444    1.0585 H   0  0  0  0  0  0  0  0  0  0  0  0
  1  2  1  0  0  0  0
  1 26  1  0  0  0  0
  1 27  1  0  0  0  0
  1 28  1  0  0  0  0
  2  3  1  0  0  0  0
  2 29  1  0  0  0  0
  2 30  1  0  0  0  0
  3  4  1  0  0  0  0
  4  5  2  0  0  0  0
  4 22  1  0  0  0  0
  5  6  1  0  0  0  0
  5 31  1  0  0  0  0
  6  7  1  0  0  0  0
  6 20  2  0  0  0  0
  7  8  1  0  0  0  0
  7 32  1  0  0  0  0
  7 33  1  0  0  0  0
  8  9  1  6  0  0  0
  8 10  1  0  0  0  0
  8 14  1  0  0  0  0
 10 11  1  0  0  0  0
 11 12  2  0  0  0  0
 11 13  1  0  0  0  0
 13 14  1  0  0  0  0
 13 16  1  0  0  0  0
 14 15  2  0  0  0  0
 16 17  1  0  0  0  0
 16 34  1  0  0  0  0
 16 35  1  0  0  0  0
 17 18  2  0  0  0  0
 17 19  1  0  0  0  0
 19 36  1  0  0  0  0
 20 21  1  0  0  0  0
 20 25  1  0  0  0  0
 21 22  2  0  0  0  0
 21 24  1  0  0  0  0
 22 23  1  0  0  0  0
 23 37  1  0  0  0  0
M  END
$$$$
