328
 OpenBabel04121316053D

 45 47  0  0  0  0  0  0  0  0999 V2000
    0.9701   -0.0104    0.0425 C   0  0  0  0  0  0  0  0  0  0  0  0
    2.4049    0.0322    0.0942 O   0  0  0  0  0  0  0  0  0  0  0  0
    3.0536   -1.1709    0.0907 C   0  0  0  0  0  0  0  0  0  0  0  0
    4.3817   -1.2203   -0.2472 C   0  0  0  0  0  0  0  0  0  0  0  0
    4.9890   -2.4711   -0.2544 C   0  0  0  0  0  0  0  0  0  0  0  0
    4.3208   -3.6555   -0.1615 N   0  0  0  0  0  0  0  0  0  0  0  0
    3.0348   -3.5863    0.1938 C   0  0  0  0  0  0  0  0  0  0  0  0
    2.5054   -2.3533    0.5317 C   0  0  0  0  0  0  0  0  0  0  0  0
    2.2541   -4.7275    0.1791 N   0  0  0  0  0  0  0  0  0  0  0  0
    0.7810   -4.7722    0.2908 C   0  0  0  0  0  0  0  0  0  0  0  0
    0.0138   -3.5184   -0.1900 C   0  0  0  0  0  0  0  0  0  0  0  0
    0.3361   -3.2314   -1.6476 C   0  0  0  0  0  0  0  0  0  0  0  0
   -0.1851   -4.3308   -2.4151 N   0  0  0  0  0  0  0  0  0  0  0  0
    0.4603   -5.6099   -2.0463 C   0  0  0  0  0  0  0  0  0  0  0  0
    0.2090   -5.9195   -0.5612 C   0  0  0  0  0  0  0  0  0  0  0  0
   -1.2274   -4.0356   -3.2952 C   0  0  0  0  0  0  0  0  0  0  0  0
   -1.6243   -2.8883   -3.5006 O   0  0  0  0  0  0  0  0  0  0  0  0
   -1.8505   -5.1281   -4.0702 C   0  0  0  0  0  0  0  0  0  0  0  0
   -1.8390   -6.4324   -3.5960 C   0  0  0  0  0  0  0  0  0  0  0  0
   -1.8947   -7.4901   -4.4808 C   0  0  0  0  0  0  0  0  0  0  0  0
   -2.3841   -7.2574   -5.7568 C   0  0  0  0  0  0  0  0  0  0  0  0
   -2.7649   -5.9610   -6.1256 C   0  0  0  0  0  0  0  0  0  0  0  0
   -2.4032   -4.8774   -5.3230 C   0  0  0  0  0  0  0  0  0  0  0  0
   -2.5109   -8.3556   -6.6532 C   0  0  0  0  0  0  0  0  0  0  0  0
   -2.5852   -9.2801   -7.3617 N   0  0  0  0  0  0  0  0  0  0  0  0
    0.5895    1.0149    0.0017 H   0  0  0  0  0  0  0  0  0  0  0  0
    0.5446   -0.4679    0.9417 H   0  0  0  0  0  0  0  0  0  0  0  0
    0.6069   -0.5160   -0.8581 H   0  0  0  0  0  0  0  0  0  0  0  0
    4.9377   -0.3073   -0.4120 H   0  0  0  0  0  0  0  0  0  0  0  0
    6.0699   -2.5532   -0.3055 H   0  0  0  0  0  0  0  0  0  0  0  0
    1.6650   -2.3096    1.1926 H   0  0  0  0  0  0  0  0  0  0  0  0
    2.7547   -5.5600   -0.1239 H   0  0  0  0  0  0  0  0  0  0  0  0
    0.5555   -4.9620    1.3455 H   0  0  0  0  0  0  0  0  0  0  0  0
    0.1624   -2.6285    0.3965 H   0  0  0  0  0  0  0  0  0  0  0  0
   -1.0636   -3.6675   -0.0479 H   0  0  0  0  0  0  0  0  0  0  0  0
    1.4085   -3.1846   -1.8679 H   0  0  0  0  0  0  0  0  0  0  0  0
   -0.0769   -2.2659   -1.9407 H   0  0  0  0  0  0  0  0  0  0  0  0
    1.5293   -5.5113   -2.2489 H   0  0  0  0  0  0  0  0  0  0  0  0
    0.1874   -6.4566   -2.6603 H   0  0  0  0  0  0  0  0  0  0  0  0
    0.6316   -6.8908   -0.2900 H   0  0  0  0  0  0  0  0  0  0  0  0
   -0.8752   -5.9839   -0.3656 H   0  0  0  0  0  0  0  0  0  0  0  0
   -1.6887   -6.6393   -2.5450 H   0  0  0  0  0  0  0  0  0  0  0  0
   -1.5718   -8.4760   -4.1545 H   0  0  0  0  0  0  0  0  0  0  0  0
   -3.3014   -5.7882   -7.0530 H   0  0  0  0  0  0  0  0  0  0  0  0
   -2.5427   -3.8556   -5.6730 H   0  0  0  0  0  0  0  0  0  0  0  0
  1  2  1  0  0  0  0
  1 26  1  0  0  0  0
  1 27  1  0  0  0  0
  1 28  1  0  0  0  0
  2  3  1  0  0  0  0
  3  4  2  0  0  0  0
  3  8  1  0  0  0  0
  4  5  1  0  0  0  0
  4 29  1  0  0  0  0
  5  6  2  0  0  0  0
  5 30  1  0  0  0  0
  6  7  1  0  0  0  0
  7  8  2  0  0  0  0
  7  9  1  0  0  0  0
  8 31  1  0  0  0  0
  9 10  1  0  0  0  0
  9 32  1  0  0  0  0
 10 11  1  0  0  0  0
 10 15  1  0  0  0  0
 10 33  1  0  0  0  0
 11 12  1  0  0  0  0
 11 34  1  0  0  0  0
 11 35  1  0  0  0  0
 12 13  1  0  0  0  0
 12 36  1  0  0  0  0
 12 37  1  0  0  0  0
 13 14  1  0  0  0  0
 13 16  1  0  0  0  0
 14 15  1  0  0  0  0
 14 38  1  0  0  0  0
 14 39  1  0  0  0  0
 15 40  1  0  0  0  0
 15 41  1  0  0  0  0
 16 17  2  0  0  0  0
 16 18  1  0  0  0  0
 18 19  2  0  0  0  0
 18 23  1  0  0  0  0
 19 20  1  0  0  0  0
 19 42  1  0  0  0  0
 20 21  2  0  0  0  0
 20 43  1  0  0  0  0
 21 22  1  0  0  0  0
 21 24  1  0  0  0  0
 22 23  2  0  0  0  0
 22 44  1  0  0  0  0
 23 45  1  0  0  0  0
 24 25  3  0  0  0  0
M  END
$$$$
