32U
 OpenBabel04121316053D

 57 59  0  0  1  0  0  0  0  0999 V2000
    2.8073   -0.1279   -4.1456 O   0  0  0  0  0  0  0  0  0  0  0  0
    2.4603    0.0560   -2.8998 C   0  0  0  0  0  0  0  0  0  0  0  0
    3.1933   -0.5903   -0.9542 C   0  0  2  0  0  0  0  0  0  0  0  0
    2.7430   -0.1053   -0.0081 H   0  0  0  0  0  0  0  0  0  0  0  0
    4.6343   -0.9325   -0.3381 C   0  0  0  0  0  0  0  0  0  0  0  0
    4.9620   -2.4134   -0.7199 C   0  0  0  0  0  0  0  0  0  0  0  0
    3.7186   -3.2429   -0.4253 C   0  0  0  0  0  0  0  0  0  0  0  0
    2.6457   -2.2601   -0.2464 N   0  0  0  0  0  0  0  0  0  0  0  0
    1.3051   -2.8776   -0.0835 C   0  0  0  0  0  0  0  0  0  0  0  0
    1.0813   -4.0928   -0.0765 O   0  0  0  0  0  0  0  0  0  0  0  0
    0.1080   -1.9543   -0.1756 C   0  0  1  0  0  0  0  0  0  0  0  0
    0.2516   -1.0931    0.4909 H   0  0  0  0  0  0  0  0  0  0  0  0
    0.1178   -1.6188   -1.6145 C   0  0  0  0  0  0  0  0  0  0  0  0
    1.4495   -0.8385   -1.5879 C   0  0  0  0  0  0  0  0  0  0  0  0
    1.9101    0.9901   -1.2118 C   0  0  0  0  0  0  0  0  0  0  0  0
    3.2091    1.8027   -1.8449 C   0  0  0  0  0  0  0  0  0  0  0  0
    4.3670    0.9480   -2.5114 C   0  0  0  0  0  0  0  0  0  0  0  0
    4.2928   -0.8067   -2.7707 C   0  0  0  0  0  0  0  0  0  0  0  0
    2.7722   -1.7804   -2.4786 C   0  0  0  0  0  0  0  0  0  0  0  0
   -1.2578   -2.4603    0.0653 N   0  0  0  0  0  0  0  0  0  0  0  0
    1.0632    0.4502   -3.1572 N   0  0  0  0  0  0  0  0  0  0  0  0
   -0.1056    0.7836   -1.9739 C   0  0  0  0  0  0  0  0  0  0  0  0
   -1.0839    1.2835   -2.7683 C   0  0  0  0  0  0  0  0  0  0  0  0
   -0.5289    2.2768   -3.5427 C   0  0  0  0  0  0  0  0  0  0  0  0
   -1.4345    2.9315   -4.1987 C   0  0  0  0  0  0  0  0  0  0  0  0
   -2.7292    2.3890   -4.1775 C   0  0  0  0  0  0  0  0  0  0  0  0
   -3.0967    1.1595   -3.5714 C   0  0  0  0  0  0  0  0  0  0  0  0
   -2.2710    0.6394   -2.6966 C   0  0  0  0  0  0  0  0  0  0  0  0
   -3.7586    3.1842   -4.7289 C   0  0  0  0  0  0  0  0  0  0  0  0
   -3.4359    4.3447   -5.2330 N   0  3  0  0  0  0  0  0  0  0  0  0
   -4.1219    4.9399   -5.6413 H   0  0  0  0  0  0  0  0  0  0  0  0
   -2.4800    4.6789   -5.2255 H   0  0  0  0  0  0  0  0  0  0  0  0
   -4.9832    2.7403   -4.6697 N   0  0  0  0  0  0  0  0  0  0  0  0
    4.5759   -0.8957    0.7651 H   0  0  0  0  0  0  0  0  0  0  0  0
    5.3652   -0.1835   -0.6182 H   0  0  0  0  0  0  0  0  0  0  0  0
    5.8516   -2.7850   -0.2281 H   0  0  0  0  0  0  0  0  0  0  0  0
    5.2089   -2.5676   -1.7770 H   0  0  0  0  0  0  0  0  0  0  0  0
    3.8138   -3.8588    0.4617 H   0  0  0  0  0  0  0  0  0  0  0  0
    3.4946   -3.9389   -1.2628 H   0  0  0  0  0  0  0  0  0  0  0  0
   -0.8851   -1.2043   -1.7562 H   0  0  0  0  0  0  0  0  0  0  0  0
    0.0094   -2.2205   -2.5276 H   0  0  0  0  0  0  0  0  0  0  0  0
    1.3357    1.9565   -1.1070 H   0  0  0  0  0  0  0  0  0  0  0  0
    2.8973    2.7948   -2.3387 H   0  0  0  0  0  0  0  0  0  0  0  0
    4.9194    1.5314   -3.2693 H   0  0  0  0  0  0  0  0  0  0  0  0
    5.2238   -1.1883   -3.1593 H   0  0  0  0  0  0  0  0  0  0  0  0
    2.5818   -2.8094   -2.7599 H   0  0  0  0  0  0  0  0  0  0  0  0
   -1.2510   -2.9567    0.9462 H   0  0  0  0  0  0  0  0  0  0  0  0
   -1.4825   -3.1400   -0.6632 H   0  0  0  0  0  0  0  0  0  0  0  0
    1.0397    0.5882   -4.1729 H   0  0  0  0  0  0  0  0  0  0  0  0
   -0.0344    1.3568   -1.0256 H   0  0  0  0  0  0  0  0  0  0  0  0
   -0.4245    0.1579   -1.1498 H   0  0  0  0  0  0  0  0  0  0  0  0
    0.5411    2.5113   -3.5799 H   0  0  0  0  0  0  0  0  0  0  0  0
   -1.0357    3.8292   -4.6278 H   0  0  0  0  0  0  0  0  0  0  0  0
   -4.0186    0.6159   -3.6392 H   0  0  0  0  0  0  0  0  0  0  0  0
   -2.4920   -0.2127   -2.0594 H   0  0  0  0  0  0  0  0  0  0  0  0
   -5.2030    1.8573   -4.2246 H   0  0  0  0  0  0  0  0  0  0  0  0
   -5.7392    3.2621   -5.0561 H   0  0  0  0  0  0  0  0  0  0  0  0
  1  2  2  0  0  0  0
  2 21  1  0  0  0  0
  3  5  1  0  0  0  0
  3  8  1  0  0  0  0
  3  4  1  1  0  0  0
  3  2  1  0  0  0  0
  5  6  1  0  0  0  0
  5 34  1  0  0  0  0
  5 35  1  0  0  0  0
  6  7  1  0  0  0  0
  6 36  1  0  0  0  0
  6 37  1  0  0  0  0
  7  8  1  0  0  0  0
  7 38  1  0  0  0  0
  7 39  1  0  0  0  0
  8  9  1  0  0  0  0
  9 10  2  0  0  0  0
  9 11  1  0  0  0  0
 11 12  1  1  0  0  0
 11 13  1  0  0  0  0
 11 20  1  0  0  0  0
 13 14  1  0  0  0  0
 13 40  1  0  0  0  0
 13 41  1  0  0  0  0
 14 15  2  0  0  0  0
 14 19  1  0  0  0  0
 15 16  1  0  0  0  0
 15 42  1  0  0  0  0
 16 17  2  0  0  0  0
 16 43  1  0  0  0  0
 17 18  1  0  0  0  0
 17 44  1  0  0  0  0
 18 19  2  0  0  0  0
 18 45  1  0  0  0  0
 19 46  1  0  0  0  0
 20 47  1  0  0  0  0
 20 48  1  0  0  0  0
 21 22  1  0  0  0  0
 21 49  1  0  0  0  0
 22 23  1  0  0  0  0
 22 50  1  0  0  0  0
 22 51  1  0  0  0  0
 23 24  2  0  0  0  0
 23 28  1  0  0  0  0
 24 25  1  0  0  0  0
 24 52  1  0  0  0  0
 25 26  2  0  0  0  0
 25 53  1  0  0  0  0
 26 27  1  0  0  0  0
 26 29  1  0  0  0  0
 27 28  2  0  0  0  0
 27 54  1  0  0  0  0
 28 55  1  0  0  0  0
 29 30  2  0  0  0  0
 29 33  1  0  0  0  0
 30 31  1  0  0  0  0
 30 32  1  0  0  0  0
 33 56  1  0  0  0  0
 33 57  1  0  0  0  0
M  CHG  1  30   1
M  END
$$$$
