332
 OpenBabel04121316053D

 42 45  0  0  1  0  0  0  0  0999 V2000
    1.0084    0.1956    0.1968 N   0  0  0  0  0  0  0  0  0  0  0  0
    2.3729    0.1204    0.1174 C   0  0  0  0  0  0  0  0  0  0  0  0
    3.0068    1.2153   -0.1350 N   0  0  0  0  0  0  0  0  0  0  0  0
    4.4830    1.2075   -0.2336 C   0  0  2  0  0  0  0  0  0  0  0  0
    4.7719    2.2594   -0.3750 H   0  0  0  0  0  0  0  0  0  0  0  0
    5.0119    0.4535   -1.4554 C   0  0  0  0  0  0  0  0  0  0  0  0
    6.4379    0.5926   -1.4982 O   0  0  0  0  0  0  0  0  0  0  0  0
    6.9876   -0.2579   -2.4146 C   0  0  0  0  0  0  0  0  0  0  0  0
    7.7823    0.3186   -3.3953 C   0  0  0  0  0  0  0  0  0  0  0  0
    8.3266   -0.4809   -4.3931 C   0  0  0  0  0  0  0  0  0  0  0  0
    8.0945   -1.8625   -4.3928 C   0  0  0  0  0  0  0  0  0  0  0  0
    7.3052   -2.4500   -3.3872 C   0  0  0  0  0  0  0  0  0  0  0  0
    6.7892   -1.6392   -2.3756 C   0  0  0  0  0  0  0  0  0  0  0  0
    7.0550   -3.9397   -3.3484 C   0  0  0  0  0  0  0  0  0  0  0  0
    7.3168   -4.6084   -4.6300 N   0  0  0  0  0  0  0  0  0  0  0  0
    8.6400   -4.2014   -5.1224 C   0  0  0  0  0  0  0  0  0  0  0  0
    8.6585   -2.7162   -5.4970 C   0  0  0  0  0  0  0  0  0  0  0  0
    5.1351    0.7633    1.0872 C   0  0  0  0  0  0  0  0  0  0  0  0
    5.1096   -0.6187    1.4782 O   0  0  0  0  0  0  0  0  0  0  0  0
    4.2536   -1.4660    0.8554 C   0  0  0  0  0  0  0  0  0  0  0  0
    3.0436   -1.1502    0.2749 C   0  0  0  0  0  0  0  0  0  0  0  0
    2.3120   -2.5175   -0.4707 S   0  0  0  0  0  0  0  0  0  0  0  0
    3.5972   -3.5340   -0.0136 C   0  0  0  0  0  0  0  0  0  0  0  0
    4.5508   -2.8598    0.7171 C   0  0  0  0  0  0  0  0  0  0  0  0
    0.5803    1.0405   -0.1539 H   0  0  0  0  0  0  0  0  0  0  0  0
    0.4871   -0.6668    0.0988 H   0  0  0  0  0  0  0  0  0  0  0  0
    4.5681    0.8457   -2.3773 H   0  0  0  0  0  0  0  0  0  0  0  0
    4.7372   -0.5965   -1.4153 H   0  0  0  0  0  0  0  0  0  0  0  0
    7.9560    1.3902   -3.3904 H   0  0  0  0  0  0  0  0  0  0  0  0
    8.9263   -0.0222   -5.1742 H   0  0  0  0  0  0  0  0  0  0  0  0
    6.2281   -2.0948   -1.5657 H   0  0  0  0  0  0  0  0  0  0  0  0
    6.0085   -4.1282   -3.0777 H   0  0  0  0  0  0  0  0  0  0  0  0
    7.6777   -4.3890   -2.5655 H   0  0  0  0  0  0  0  0  0  0  0  0
    6.6114   -4.2875   -5.2942 H   0  0  0  0  0  0  0  0  0  0  0  0
    8.9007   -4.7997   -6.0010 H   0  0  0  0  0  0  0  0  0  0  0  0
    9.4007   -4.4126   -4.3593 H   0  0  0  0  0  0  0  0  0  0  0  0
    8.0572   -2.5507   -6.3997 H   0  0  0  0  0  0  0  0  0  0  0  0
    9.6884   -2.4105   -5.7114 H   0  0  0  0  0  0  0  0  0  0  0  0
    4.7436    1.3659    1.9165 H   0  0  0  0  0  0  0  0  0  0  0  0
    6.2025    1.0190    1.0279 H   0  0  0  0  0  0  0  0  0  0  0  0
    3.5799   -4.5749   -0.3055 H   0  0  0  0  0  0  0  0  0  0  0  0
    5.4466   -3.3378    1.0936 H   0  0  0  0  0  0  0  0  0  0  0  0
  1  2  1  0  0  0  0
  1 25  1  0  0  0  0
  1 26  1  0  0  0  0
  2  3  2  0  0  0  0
  2 21  1  0  0  0  0
  3  4  1  0  0  0  0
  4  5  1  6  0  0  0
  4  6  1  0  0  0  0
  4 18  1  0  0  0  0
  6  7  1  0  0  0  0
  6 27  1  0  0  0  0
  6 28  1  0  0  0  0
  7  8  1  0  0  0  0
  8  9  2  0  0  0  0
  8 13  1  0  0  0  0
  9 10  1  0  0  0  0
  9 29  1  0  0  0  0
 10 11  2  0  0  0  0
 10 30  1  0  0  0  0
 11 12  1  0  0  0  0
 11 17  1  0  0  0  0
 12 13  2  0  0  0  0
 12 14  1  0  0  0  0
 13 31  1  0  0  0  0
 14 15  1  0  0  0  0
 14 32  1  0  0  0  0
 14 33  1  0  0  0  0
 15 16  1  0  0  0  0
 15 34  1  0  0  0  0
 16 17  1  0  0  0  0
 16 35  1  0  0  0  0
 16 36  1  0  0  0  0
 17 37  1  0  0  0  0
 17 38  1  0  0  0  0
 18 19  1  0  0  0  0
 18 39  1  0  0  0  0
 18 40  1  0  0  0  0
 19 20  1  0  0  0  0
 20 21  2  0  0  0  0
 20 24  1  0  0  0  0
 21 22  1  0  0  0  0
 22 23  1  0  0  0  0
 23 24  2  0  0  0  0
 23 41  1  0  0  0  0
 24 42  1  0  0  0  0
M  END
$$$$
