335
 OpenBabel04121316053D

 69 73  0  0  0  0  0  0  0  0999 V2000
    1.0794    0.0599    0.0107 O   0  0  0  0  0  0  0  0  0  0  0  0
    2.8094    0.0599    0.0107 P   0  0  0  0  0  0  0  0  0  0  0  0
    2.8346    1.1728   -1.0418 O   0  0  0  0  0  0  0  0  0  0  0  0
    2.8185    0.8552    1.8561 C   0  0  0  0  0  0  0  0  0  0  0  0
    3.4714   -0.1307    2.7397 C   0  0  0  0  0  0  0  0  0  0  0  0
    4.5356    0.1765    3.5941 C   0  0  0  0  0  0  0  0  0  0  0  0
    5.1962   -0.8365    4.2835 C   0  0  0  0  0  0  0  0  0  0  0  0
    4.7307   -2.1385    4.1677 C   0  0  0  0  0  0  0  0  0  0  0  0
    3.5990   -2.3791    3.3620 C   0  0  0  0  0  0  0  0  0  0  0  0
    3.0009   -1.4217    2.6176 C   0  0  0  0  0  0  0  0  0  0  0  0
    5.4416   -3.2931    4.8570 C   0  0  0  0  0  0  0  0  0  0  0  0
    4.7929   -4.6945    4.5422 C   0  0  0  0  0  0  0  0  0  0  0  0
    3.4353   -4.7244    5.3321 N   0  0  0  0  0  0  0  0  0  0  0  0
    2.8064   -3.5575    5.6664 N   0  0  0  0  0  0  0  0  0  0  0  0
    1.5214   -3.8027    5.8884 N   0  0  0  0  0  0  0  0  0  0  0  0
    1.3713   -5.1445    5.9930 C   0  0  0  0  0  0  0  0  0  0  0  0
    2.6251   -5.7355    5.8646 C   0  0  0  0  0  0  0  0  0  0  0  0
    2.7560   -7.0662    6.2462 C   0  0  0  0  0  0  0  0  0  0  0  0
    1.6454   -7.9000    6.1919 C   0  0  0  0  0  0  0  0  0  0  0  0
    0.3875   -7.3455    6.2469 C   0  0  0  0  0  0  0  0  0  0  0  0
    0.2502   -5.9526    6.2653 C   0  0  0  0  0  0  0  0  0  0  0  0
    4.7857   -4.8573    2.8600 C   0  0  0  0  0  0  0  0  0  0  0  0
    3.9124   -5.6733    2.1055 C   0  0  0  0  0  0  0  0  0  0  0  0
    4.3044   -6.2215    0.8865 C   0  0  0  0  0  0  0  0  0  0  0  0
    5.1814   -5.5079    0.1113 C   0  0  0  0  0  0  0  0  0  0  0  0
    5.7366   -4.3599    0.6486 C   0  0  0  0  0  0  0  0  0  0  0  0
    5.6744   -4.1385    2.0339 C   0  0  0  0  0  0  0  0  0  0  0  0
    5.7806   -5.7903    5.1613 C   0  0  0  0  0  0  0  0  0  0  0  0
    5.4302   -7.2266    4.8598 C   0  0  0  0  0  0  0  0  0  0  0  0
    5.8338   -8.3358    5.5857 C   0  0  0  0  0  0  0  0  0  0  0  0
    5.0935   -9.5171    5.4219 C   0  0  0  0  0  0  0  0  0  0  0  0
    4.0887   -9.6634    4.4150 C   0  0  0  0  0  0  0  0  0  0  0  0
    3.6734   -8.5701    3.7207 C   0  0  0  0  0  0  0  0  0  0  0  0
    4.3333   -7.4657    4.0371 C   0  0  0  0  0  0  0  0  0  0  0  0
    3.6187  -10.8949    3.7731 C   0  0  0  0  0  0  0  0  0  0  0  0
    4.9384  -11.6151    2.7298 P   0  0  0  0  0  0  0  0  0  0  0  0
    4.6377  -10.6510    1.5697 O   0  0  0  0  0  0  0  0  0  0  0  0
    6.2248  -10.9820    3.5378 O   0  0  0  0  0  0  0  0  0  0  0  0
    6.1860  -12.2960    1.7435 O   0  0  0  0  0  0  0  0  0  0  0  0
    3.4806  -11.9089    4.6801 F   0  0  0  0  0  0  0  0  0  0  0  0
    2.4924  -10.9071    3.0169 F   0  0  0  0  0  0  0  0  0  0  0  0
    3.3928    2.0573    1.6596 F   0  0  0  0  0  0  0  0  0  0  0  0
    1.4828    1.0038    2.0705 F   0  0  0  0  0  0  0  0  0  0  0  0
    4.5394    0.0599    0.0107 O   0  0  0  0  0  0  0  0  0  0  0  0
    0.7030    0.0685    0.9170 H   0  0  0  0  0  0  0  0  0  0  0  0
    4.8650    1.2055    3.6952 H   0  0  0  0  0  0  0  0  0  0  0  0
    6.0618   -0.6068    4.8975 H   0  0  0  0  0  0  0  0  0  0  0  0
    3.1137   -3.3419    3.2573 H   0  0  0  0  0  0  0  0  0  0  0  0
    2.1987   -1.7386    1.9557 H   0  0  0  0  0  0  0  0  0  0  0  0
    5.4767   -3.1128    5.9392 H   0  0  0  0  0  0  0  0  0  0  0  0
    6.4923   -3.2925    4.5276 H   0  0  0  0  0  0  0  0  0  0  0  0
    3.7118   -7.5152    6.4252 H   0  0  0  0  0  0  0  0  0  0  0  0
    1.7860   -8.9775    6.1364 H   0  0  0  0  0  0  0  0  0  0  0  0
   -0.4661   -8.0066    6.3539 H   0  0  0  0  0  0  0  0  0  0  0  0
   -0.7141   -5.5048    6.4682 H   0  0  0  0  0  0  0  0  0  0  0  0
    2.9594   -6.0524    2.4671 H   0  0  0  0  0  0  0  0  0  0  0  0
    3.8801   -7.1643    0.5444 H   0  0  0  0  0  0  0  0  0  0  0  0
    5.3709   -5.8155   -0.9103 H   0  0  0  0  0  0  0  0  0  0  0  0
    6.2504   -3.6541    0.0054 H   0  0  0  0  0  0  0  0  0  0  0  0
    6.2687   -3.3087    2.4018 H   0  0  0  0  0  0  0  0  0  0  0  0
    5.7775   -5.6675    6.2530 H   0  0  0  0  0  0  0  0  0  0  0  0
    6.8069   -5.6134    4.8143 H   0  0  0  0  0  0  0  0  0  0  0  0
    6.5901   -8.2394    6.3571 H   0  0  0  0  0  0  0  0  0  0  0  0
    5.3536  -10.3684    6.0569 H   0  0  0  0  0  0  0  0  0  0  0  0
    2.7806   -8.5773    3.0986 H   0  0  0  0  0  0  0  0  0  0  0  0
    3.6585   -6.6434    3.9237 H   0  0  0  0  0  0  0  0  0  0  0  0
    6.3098  -11.1639    4.4852 H   0  0  0  0  0  0  0  0  0  0  0  0
    5.8223  -12.3924    0.8430 H   0  0  0  0  0  0  0  0  0  0  0  0
    4.8308    0.0052   -0.9204 H   0  0  0  0  0  0  0  0  0  0  0  0
  1  2  1  0  0  0  0
  1 45  1  0  0  0  0
  2  3  2  0  0  0  0
  2  4  1  0  0  0  0
  2 44  1  0  0  0  0
  4  5  1  0  0  0  0
  4 42  1  0  0  0  0
  4 43  1  0  0  0  0
  5  6  2  0  0  0  0
  5 10  1  0  0  0  0
  6  7  1  0  0  0  0
  6 46  1  0  0  0  0
  7  8  2  0  0  0  0
  7 47  1  0  0  0  0
  8  9  1  0  0  0  0
  8 11  1  0  0  0  0
  9 10  2  0  0  0  0
  9 48  1  0  0  0  0
 10 49  1  0  0  0  0
 11 12  1  0  0  0  0
 11 50  1  0  0  0  0
 11 51  1  0  0  0  0
 12 13  1  0  0  0  0
 12 22  1  0  0  0  0
 12 28  1  0  0  0  0
 13 14  1  0  0  0  0
 13 17  1  0  0  0  0
 14 15  2  0  0  0  0
 15 16  1  0  0  0  0
 16 17  2  0  0  0  0
 16 21  1  0  0  0  0
 17 18  1  0  0  0  0
 18 19  2  0  0  0  0
 18 52  1  0  0  0  0
 19 20  1  0  0  0  0
 19 53  1  0  0  0  0
 20 21  2  0  0  0  0
 20 54  1  0  0  0  0
 21 55  1  0  0  0  0
 22 23  2  0  0  0  0
 22 27  1  0  0  0  0
 23 24  1  0  0  0  0
 23 56  1  0  0  0  0
 24 25  2  0  0  0  0
 24 57  1  0  0  0  0
 25 26  1  0  0  0  0
 25 58  1  0  0  0  0
 26 27  2  0  0  0  0
 26 59  1  0  0  0  0
 27 60  1  0  0  0  0
 28 29  1  0  0  0  0
 28 61  1  0  0  0  0
 28 62  1  0  0  0  0
 29 30  2  0  0  0  0
 29 34  1  0  0  0  0
 30 31  1  0  0  0  0
 30 63  1  0  0  0  0
 31 32  2  0  0  0  0
 31 64  1  0  0  0  0
 32 33  1  0  0  0  0
 32 35  1  0  0  0  0
 33 34  2  0  0  0  0
 33 65  1  0  0  0  0
 34 66  1  0  0  0  0
 35 36  1  0  0  0  0
 35 40  1  0  0  0  0
 35 41  1  0  0  0  0
 36 37  2  0  0  0  0
 36 38  1  0  0  0  0
 36 39  1  0  0  0  0
 38 67  1  0  0  0  0
 39 68  1  0  0  0  0
 44 69  1  0  0  0  0
M  END
$$$$
