33N
 OpenBabel04121316053D

 44 46  0  0  0  0  0  0  0  0999 V2000
    0.8885    0.0047   -0.0189 O   0  0  0  0  0  0  0  0  0  0  0  0
    2.1215    0.0022   -0.0606 C   0  0  0  0  0  0  0  0  0  0  0  0
    2.8175   -0.9006   -0.9843 C   0  0  0  0  0  0  0  0  0  0  0  0
    3.5427   -0.4312   -2.0809 C   0  0  0  0  0  0  0  0  0  0  0  0
    4.0739   -1.3522   -2.9776 C   0  0  0  0  0  0  0  0  0  0  0  0
    3.7953   -2.6959   -2.7760 C   0  0  0  0  0  0  0  0  0  0  0  0
    3.1583   -3.1792   -1.6851 N   0  0  0  0  0  0  0  0  0  0  0  0
    2.7006   -2.2665   -0.7961 C   0  0  0  0  0  0  0  0  0  0  0  0
    2.8559    0.8163    0.7477 N   0  0  0  0  0  0  0  0  0  0  0  0
    4.2958    0.8452    0.7924 C   0  0  0  0  0  0  0  0  0  0  0  0
    4.7992    1.8630    1.7831 C   0  0  0  0  0  0  0  0  0  0  0  0
    6.3419    1.9594    1.8014 C   0  0  0  0  0  0  0  0  0  0  0  0
    6.8886    2.3213    0.4105 C   0  0  0  0  0  0  0  0  0  0  0  0
    6.9513    3.6519   -0.0371 C   0  0  0  0  0  0  0  0  0  0  0  0
    7.1113    3.9732   -1.3758 C   0  0  0  0  0  0  0  0  0  0  0  0
    7.3648    2.9654   -2.2876 C   0  0  0  0  0  0  0  0  0  0  0  0
    7.4740    1.6461   -1.8488 C   0  0  0  0  0  0  0  0  0  0  0  0
    7.1978    1.3162   -0.5176 C   0  0  0  0  0  0  0  0  0  0  0  0
    6.7231    2.9669    2.8752 C   0  0  0  0  0  0  0  0  0  0  0  0
    6.1571    4.2571    2.8504 C   0  0  0  0  0  0  0  0  0  0  0  0
    6.6676    5.2793    3.6254 C   0  0  0  0  0  0  0  0  0  0  0  0
    7.6079    4.9749    4.5945 C   0  0  0  0  0  0  0  0  0  0  0  0
    8.0519    3.6595    4.7570 C   0  0  0  0  0  0  0  0  0  0  0  0
    7.6670    2.6666    3.8562 C   0  0  0  0  0  0  0  0  0  0  0  0
    3.6772    0.6337   -2.2485 H   0  0  0  0  0  0  0  0  0  0  0  0
    4.6617   -1.0305   -3.8301 H   0  0  0  0  0  0  0  0  0  0  0  0
    4.0751   -3.4412   -3.5153 H   0  0  0  0  0  0  0  0  0  0  0  0
    2.2372   -2.6728    0.0983 H   0  0  0  0  0  0  0  0  0  0  0  0
    2.3145    1.4403    1.3370 H   0  0  0  0  0  0  0  0  0  0  0  0
    4.6194    1.1176   -0.2113 H   0  0  0  0  0  0  0  0  0  0  0  0
    4.6643   -0.1574    1.0293 H   0  0  0  0  0  0  0  0  0  0  0  0
    4.4238    1.6229    2.7874 H   0  0  0  0  0  0  0  0  0  0  0  0
    4.3440    2.8235    1.5116 H   0  0  0  0  0  0  0  0  0  0  0  0
    6.7404    0.9727    2.0840 H   0  0  0  0  0  0  0  0  0  0  0  0
    6.8585    4.4950    0.6317 H   0  0  0  0  0  0  0  0  0  0  0  0
    7.0347    5.0129   -1.6813 H   0  0  0  0  0  0  0  0  0  0  0  0
    7.4944    3.2183   -3.3342 H   0  0  0  0  0  0  0  0  0  0  0  0
    7.7491    0.8690   -2.5552 H   0  0  0  0  0  0  0  0  0  0  0  0
    7.1746    0.2665   -0.2305 H   0  0  0  0  0  0  0  0  0  0  0  0
    5.3793    4.5104    2.1326 H   0  0  0  0  0  0  0  0  0  0  0  0
    6.3317    6.2965    3.4506 H   0  0  0  0  0  0  0  0  0  0  0  0
    7.9902    5.7679    5.2271 H   0  0  0  0  0  0  0  0  0  0  0  0
    8.7224    3.4166    5.5752 H   0  0  0  0  0  0  0  0  0  0  0  0
    8.1093    1.6751    3.9239 H   0  0  0  0  0  0  0  0  0  0  0  0
  1  2  2  0  0  0  0
  2  3  1  0  0  0  0
  2  9  1  0  0  0  0
  3  4  2  0  0  0  0
  3  8  1  0  0  0  0
  4  5  1  0  0  0  0
  4 25  1  0  0  0  0
  5  6  2  0  0  0  0
  5 26  1  0  0  0  0
  6  7  1  0  0  0  0
  6 27  1  0  0  0  0
  7  8  2  0  0  0  0
  8 28  1  0  0  0  0
  9 10  1  0  0  0  0
  9 29  1  0  0  0  0
 10 11  1  0  0  0  0
 10 30  1  0  0  0  0
 10 31  1  0  0  0  0
 11 12  1  0  0  0  0
 11 32  1  0  0  0  0
 11 33  1  0  0  0  0
 12 13  1  0  0  0  0
 12 19  1  0  0  0  0
 12 34  1  0  0  0  0
 13 14  2  0  0  0  0
 13 18  1  0  0  0  0
 14 15  1  0  0  0  0
 14 35  1  0  0  0  0
 15 16  2  0  0  0  0
 15 36  1  0  0  0  0
 16 17  1  0  0  0  0
 16 37  1  0  0  0  0
 17 18  2  0  0  0  0
 17 38  1  0  0  0  0
 18 39  1  0  0  0  0
 19 20  2  0  0  0  0
 19 24  1  0  0  0  0
 20 21  1  0  0  0  0
 20 40  1  0  0  0  0
 21 22  2  0  0  0  0
 21 41  1  0  0  0  0
 22 23  1  0  0  0  0
 22 42  1  0  0  0  0
 23 24  2  0  0  0  0
 23 43  1  0  0  0  0
 24 44  1  0  0  0  0
M  END
$$$$
