33P
 OpenBabel04121316053D

 44 44  0  0  1  0  0  0  0  0999 V2000
    0.8269   -0.0886   -0.1795 C   0  0  0  0  0  0  0  0  0  0  0  0
    2.3491   -0.0303   -0.1315 C   0  0  1  0  0  0  0  0  0  0  0  0
    2.6531    0.9924    0.1231 H   0  0  0  0  0  0  0  0  0  0  0  0
    2.9526   -0.9449    0.8154 O   0  0  0  0  0  0  0  0  0  0  0  0
    2.3760   -0.6533    2.4202 P   0  0  0  0  0  0  0  0  0  0  0  0
    3.6431   -1.2159    3.0580 O   0  0  0  0  0  0  0  0  0  0  0  0
    2.5745    0.9621    2.3289 O   0  0  0  0  0  0  0  0  0  0  0  0
    1.7993   -0.3617    4.0250 O   0  0  0  0  0  0  0  0  0  0  0  0
    2.9171   -0.3078   -1.4984 C   0  0  0  0  0  0  0  0  0  0  0  0
    4.3518   -0.1333   -1.3440 N   0  0  0  0  0  0  0  0  0  0  0  0
    4.9784   -0.4030   -2.6051 C   0  0  0  0  0  0  0  0  0  0  0  0
    6.4810   -0.4574   -2.6394 C   0  0  0  0  0  0  0  0  0  0  0  0
    7.1276   -0.4145   -3.8956 C   0  0  0  0  0  0  0  0  0  0  0  0
    8.5196   -0.3909   -3.9040 C   0  0  0  0  0  0  0  0  0  0  0  0
    9.2906   -0.4034   -2.7992 N   0  0  0  0  0  0  0  0  0  0  0  0
    8.6527   -0.4938   -1.6037 C   0  0  0  0  0  0  0  0  0  0  0  0
    7.2667   -0.5616   -1.4942 C   0  0  0  0  0  0  0  0  0  0  0  0
    6.6572   -0.7862   -0.2878 O   0  0  0  0  0  0  0  0  0  0  0  0
    9.5121   -0.5126   -0.3795 C   0  0  0  0  0  0  0  0  0  0  0  0
    6.4020   -0.4073   -5.2149 C   0  0  0  0  0  0  0  0  0  0  0  0
    4.9900   -0.3599   -5.0388 O   0  0  0  0  0  0  0  0  0  0  0  0
    4.1258   -0.3140   -6.5368 P   0  0  0  0  0  0  0  0  0  0  0  0
    2.7984   -0.2008   -5.7962 O   0  0  0  0  0  0  0  0  0  0  0  0
    4.6527    1.2047   -6.7786 O   0  0  0  0  0  0  0  0  0  0  0  0
    3.2616   -0.2680   -8.0348 O   0  0  0  0  0  0  0  0  0  0  0  0
    0.3762    0.0627    0.8043 H   0  0  0  0  0  0  0  0  0  0  0  0
    0.4786   -1.0545   -0.5545 H   0  0  0  0  0  0  0  0  0  0  0  0
    0.4451    0.6987   -0.8410 H   0  0  0  0  0  0  0  0  0  0  0  0
    1.7304    1.4178    2.1565 H   0  0  0  0  0  0  0  0  0  0  0  0
    2.6328   -0.4477    4.5378 H   0  0  0  0  0  0  0  0  0  0  0  0
    2.5131    0.4071   -2.2271 H   0  0  0  0  0  0  0  0  0  0  0  0
    2.6656   -1.3244   -1.8235 H   0  0  0  0  0  0  0  0  0  0  0  0
    4.7111   -0.7874   -0.6400 H   0  0  0  0  0  0  0  0  0  0  0  0
    4.6659    0.4674   -3.1910 H   0  0  0  0  0  0  0  0  0  0  0  0
    4.5990   -1.3491   -3.0131 H   0  0  0  0  0  0  0  0  0  0  0  0
    9.0762   -0.3546   -4.8396 H   0  0  0  0  0  0  0  0  0  0  0  0
    7.1807   -0.4087    0.4322 H   0  0  0  0  0  0  0  0  0  0  0  0
   10.5724   -0.4909   -0.6407 H   0  0  0  0  0  0  0  0  0  0  0  0
    9.3141   -1.4183    0.2018 H   0  0  0  0  0  0  0  0  0  0  0  0
    9.2920    0.3670    0.2354 H   0  0  0  0  0  0  0  0  0  0  0  0
    6.6469   -1.3149   -5.7784 H   0  0  0  0  0  0  0  0  0  0  0  0
    6.7287    0.4667   -5.7885 H   0  0  0  0  0  0  0  0  0  0  0  0
    4.1151    1.8034   -6.2277 H   0  0  0  0  0  0  0  0  0  0  0  0
    2.7716   -1.1032   -8.1367 H   0  0  0  0  0  0  0  0  0  0  0  0
  1  2  1  0  0  0  0
  1 26  1  0  0  0  0
  1 27  1  0  0  0  0
  1 28  1  0  0  0  0
  2  3  1  1  0  0  0
  2  4  1  0  0  0  0
  2  9  1  0  0  0  0
  4  5  1  0  0  0  0
  5  6  2  0  0  0  0
  5  7  1  0  0  0  0
  5  8  1  0  0  0  0
  7 29  1  0  0  0  0
  8 30  1  0  0  0  0
  9 10  1  0  0  0  0
  9 31  1  0  0  0  0
  9 32  1  0  0  0  0
 10 11  1  0  0  0  0
 10 33  1  0  0  0  0
 11 12  1  0  0  0  0
 11 34  1  0  0  0  0
 11 35  1  0  0  0  0
 12 13  2  0  0  0  0
 12 17  1  0  0  0  0
 13 14  1  0  0  0  0
 13 20  1  0  0  0  0
 14 15  2  0  0  0  0
 14 36  1  0  0  0  0
 15 16  1  0  0  0  0
 16 17  2  0  0  0  0
 16 19  1  0  0  0  0
 17 18  1  0  0  0  0
 18 37  1  0  0  0  0
 19 38  1  0  0  0  0
 19 39  1  0  0  0  0
 19 40  1  0  0  0  0
 20 21  1  0  0  0  0
 20 41  1  0  0  0  0
 20 42  1  0  0  0  0
 21 22  1  0  0  0  0
 22 23  2  0  0  0  0
 22 24  1  0  0  0  0
 22 25  1  0  0  0  0
 24 43  1  0  0  0  0
 25 44  1  0  0  0  0
M  END
$$$$
