33T
 OpenBabel04121316053D

 49 51  0  0  1  0  0  0  0  0999 V2000
    1.0129    0.0187    0.0685 F   0  0  0  0  0  0  0  0  0  0  0  0
    2.3473   -0.0224    0.0062 C   0  0  0  0  0  0  0  0  0  0  0  0
    3.0785    1.1381   -0.0747 C   0  0  0  0  0  0  0  0  0  0  0  0
    4.4741    1.0603   -0.1527 C   0  0  0  0  0  0  0  0  0  0  0  0
    5.1788   -0.1635   -0.3199 C   0  0  0  0  0  0  0  0  0  0  0  0
    4.3781   -1.3289   -0.2154 C   0  0  0  0  0  0  0  0  0  0  0  0
    2.9897   -1.2389    0.0170 C   0  0  0  0  0  0  0  0  0  0  0  0
    4.8736   -2.7334   -0.4057 C   0  0  0  0  0  0  0  0  0  0  0  0
    5.4301   -2.9118   -1.6439 F   0  0  0  0  0  0  0  0  0  0  0  0
    5.7816   -3.1063    0.5420 F   0  0  0  0  0  0  0  0  0  0  0  0
    3.9163   -3.7004   -0.3405 F   0  0  0  0  0  0  0  0  0  0  0  0
    6.5392   -0.1576   -0.5939 N   0  0  0  0  0  0  0  0  0  0  0  0
    7.4247   -1.3507   -0.7226 C   0  0  0  0  0  0  0  0  0  0  0  0
    8.1200   -1.3905   -2.0899 C   0  0  0  0  0  0  0  0  0  0  0  0
    8.9995   -0.1782   -2.2020 N   0  0  0  0  0  0  0  0  0  0  0  0
    8.0143    0.9862   -2.2290 C   0  0  1  0  0  0  0  0  0  0  0  0
    7.2504    0.7890   -3.0002 H   0  0  0  0  0  0  0  0  0  0  0  0
    7.2816    1.1066   -0.8686 C   0  0  0  0  0  0  0  0  0  0  0  0
    8.6927    2.2469   -2.6656 C   0  0  0  0  0  0  0  0  0  0  0  0
   10.2615   -0.2796   -0.9622 S   0  0  0  0  0  0  0  0  0  0  0  0
    9.7273    0.0038    0.3428 O   0  0  0  0  0  0  0  0  0  0  0  0
   10.8998   -1.5697   -1.1783 O   0  0  0  0  0  0  0  0  0  0  0  0
   11.3958    1.0308   -1.2650 C   0  0  0  0  0  0  0  0  0  0  0  0
   11.0802    2.3092   -0.7514 C   0  0  0  0  0  0  0  0  0  0  0  0
   11.6664    3.4359   -1.3240 C   0  0  0  0  0  0  0  0  0  0  0  0
   12.8192    3.2741   -2.0778 C   0  0  0  0  0  0  0  0  0  0  0  0
   13.3267    1.9849   -2.2734 C   0  0  0  0  0  0  0  0  0  0  0  0
   12.5698    0.8578   -1.9665 C   0  0  0  0  0  0  0  0  0  0  0  0
   13.1986   -0.6376   -2.5397 Cl  0  0  0  0  0  0  0  0  0  0  0  0
   13.4683    4.4789   -2.6482 C   0  0  0  0  0  0  0  0  0  0  0  0
   12.9495    5.5845   -2.5728 O   0  0  0  0  0  0  0  0  0  0  0  0
   14.6689    4.3020   -3.2697 N   0  0  0  0  0  0  0  0  0  0  0  0
    2.5713    2.0971   -0.0659 H   0  0  0  0  0  0  0  0  0  0  0  0
    4.9812    2.0180   -0.0797 H   0  0  0  0  0  0  0  0  0  0  0  0
    2.4005   -2.1406    0.1620 H   0  0  0  0  0  0  0  0  0  0  0  0
    7.0040   -2.3252   -0.6789 H   0  0  0  0  0  0  0  0  0  0  0  0
    8.0902   -1.3951    0.1363 H   0  0  0  0  0  0  0  0  0  0  0  0
    7.3585   -1.3901   -2.8868 H   0  0  0  0  0  0  0  0  0  0  0  0
    8.6863   -2.3156   -2.2301 H   0  0  0  0  0  0  0  0  0  0  0  0
    6.6758    2.0115   -0.9031 H   0  0  0  0  0  0  0  0  0  0  0  0
    7.9760    1.2922   -0.0482 H   0  0  0  0  0  0  0  0  0  0  0  0
    9.2684    2.1403   -3.5887 H   0  0  0  0  0  0  0  0  0  0  0  0
    9.3758    2.4509   -1.8935 H   0  0  0  0  0  0  0  0  0  0  0  0
    8.0760    3.1449   -2.6631 H   0  0  0  0  0  0  0  0  0  0  0  0
   10.2139    2.4604   -0.1012 H   0  0  0  0  0  0  0  0  0  0  0  0
   11.1965    4.4162   -1.2205 H   0  0  0  0  0  0  0  0  0  0  0  0
   14.3002    1.8197   -2.7112 H   0  0  0  0  0  0  0  0  0  0  0  0
   15.1392    3.4185   -3.3787 H   0  0  0  0  0  0  0  0  0  0  0  0
   15.1297    5.1221   -3.6365 H   0  0  0  0  0  0  0  0  0  0  0  0
  1  2  1  0  0  0  0
  2  3  2  0  0  0  0
  2  7  1  0  0  0  0
  3  4  1  0  0  0  0
  3 33  1  0  0  0  0
  4  5  2  0  0  0  0
  4 34  1  0  0  0  0
  5  6  1  0  0  0  0
  5 12  1  0  0  0  0
  6  7  2  0  0  0  0
  6  8  1  0  0  0  0
  7 35  1  0  0  0  0
  8  9  1  0  0  0  0
  8 10  1  0  0  0  0
  8 11  1  0  0  0  0
 12 13  1  0  0  0  0
 12 18  1  0  0  0  0
 13 14  1  0  0  0  0
 13 36  1  0  0  0  0
 13 37  1  0  0  0  0
 14 15  1  0  0  0  0
 14 38  1  0  0  0  0
 14 39  1  0  0  0  0
 15 16  1  0  0  0  0
 15 20  1  0  0  0  0
 16 17  1  6  0  0  0
 16 18  1  0  0  0  0
 16 19  1  0  0  0  0
 18 40  1  0  0  0  0
 18 41  1  0  0  0  0
 19 42  1  0  0  0  0
 19 43  1  0  0  0  0
 19 44  1  0  0  0  0
 20 21  2  0  0  0  0
 20 22  2  0  0  0  0
 20 23  1  0  0  0  0
 23 24  2  0  0  0  0
 23 28  1  0  0  0  0
 24 25  1  0  0  0  0
 24 45  1  0  0  0  0
 25 26  2  0  0  0  0
 25 46  1  0  0  0  0
 26 27  1  0  0  0  0
 26 30  1  0  0  0  0
 27 28  2  0  0  0  0
 27 47  1  0  0  0  0
 28 29  1  0  0  0  0
 30 31  2  0  0  0  0
 30 32  1  0  0  0  0
 32 48  1  0  0  0  0
 32 49  1  0  0  0  0
M  END
$$$$
