346
 OpenBabel04121316053D

 54 56  0  0  1  0  0  0  0  0999 V2000
   10.4444    7.1722   -1.1234 C   0  0  0  0  0  0  0  0  0  0  0  0
    9.7696    5.8128   -1.0942 C   0  0  0  0  0  0  0  0  0  0  0  0
    8.3671    6.0308   -0.8864 O   0  0  0  0  0  0  0  0  0  0  0  0
    7.6797    4.8618   -0.7902 C   0  0  0  0  0  0  0  0  0  0  0  0
    7.6180    4.1923    0.3960 C   0  0  0  0  0  0  0  0  0  0  0  0
    6.8839    3.0300    0.6709 C   0  0  0  0  0  0  0  0  0  0  0  0
    7.0282    2.3029    2.0118 C   0  0  2  0  0  0  0  0  0  0  0  0
    6.5660    1.3098    1.9200 H   0  0  0  0  0  0  0  0  0  0  0  0
    6.3069    2.9567    3.2353 C   0  0  0  0  0  0  0  0  0  0  0  0
    6.7884    3.0831    4.3471 O   0  0  0  0  0  0  0  0  0  0  0  0
    5.0349    3.3704    3.0087 O   0  0  0  0  0  0  0  0  0  0  0  0
    8.4701    2.0730    2.2946 N   0  0  0  0  0  0  0  0  0  0  0  0
    9.3774    3.0554    2.6775 C   0  0  0  0  0  0  0  0  0  0  0  0
    9.0023    4.3769    2.9712 C   0  0  0  0  0  0  0  0  0  0  0  0
    9.8480    5.4553    2.7291 C   0  0  0  0  0  0  0  0  0  0  0  0
   11.1902    5.2235    2.5295 C   0  0  0  0  0  0  0  0  0  0  0  0
   11.6434    3.8952    2.5531 C   0  0  0  0  0  0  0  0  0  0  0  0
   10.7384    2.8240    2.5323 C   0  0  0  0  0  0  0  0  0  0  0  0
   12.1069    6.3661    2.2664 C   0  0  0  0  0  0  0  0  0  0  0  0
   11.7245    7.5944    2.0984 N   0  0  0  0  0  0  0  0  0  0  0  0
   13.4378    6.1534    2.1632 N   0  0  0  0  0  0  0  0  0  0  0  0
    6.0845    2.5833   -0.3731 C   0  0  0  0  0  0  0  0  0  0  0  0
    6.0962    3.2573   -1.6122 C   0  0  0  0  0  0  0  0  0  0  0  0
    6.9320    4.3789   -1.8069 C   0  0  0  0  0  0  0  0  0  0  0  0
    5.2477    2.8000   -2.6006 O   0  0  0  0  0  0  0  0  0  0  0  0
    5.1989    3.6873   -3.7164 C   0  0  1  0  0  0  0  0  0  0  0  0
    6.2072    3.8132   -4.1358 H   0  0  0  0  0  0  0  0  0  0  0  0
    4.3543    3.2064   -4.8696 C   0  0  0  0  0  0  0  0  0  0  0  0
    4.0569    4.4062   -5.6029 O   0  0  0  0  0  0  0  0  0  0  0  0
    3.8810    5.4561   -4.6435 C   0  0  0  0  0  0  0  0  0  0  0  0
    4.5158    5.0026   -3.3596 C   0  0  0  0  0  0  0  0  0  0  0  0
    5.2903    1.5180   -0.1861 F   0  0  0  0  0  0  0  0  0  0  0  0
   11.5103    7.0811   -1.3503 H   0  0  0  0  0  0  0  0  0  0  0  0
   10.3305    7.6834   -0.1633 H   0  0  0  0  0  0  0  0  0  0  0  0
    9.9724    7.8170   -1.8709 H   0  0  0  0  0  0  0  0  0  0  0  0
   10.2143    5.1989   -0.3018 H   0  0  0  0  0  0  0  0  0  0  0  0
    9.9139    5.3102   -2.0558 H   0  0  0  0  0  0  0  0  0  0  0  0
    8.2552    4.6618    1.0882 H   0  0  0  0  0  0  0  0  0  0  0  0
    4.6731    3.1501    2.1338 H   0  0  0  0  0  0  0  0  0  0  0  0
    8.7720    1.1064    2.3375 H   0  0  0  0  0  0  0  0  0  0  0  0
    7.9647    4.6692    3.1060 H   0  0  0  0  0  0  0  0  0  0  0  0
    9.3811    6.4285    2.6064 H   0  0  0  0  0  0  0  0  0  0  0  0
   12.6974    3.6560    2.5257 H   0  0  0  0  0  0  0  0  0  0  0  0
   11.1114    1.8204    2.3443 H   0  0  0  0  0  0  0  0  0  0  0  0
   10.7126    7.7181    2.1399 H   0  0  0  0  0  0  0  0  0  0  0  0
   13.8735    5.2724    2.3758 H   0  0  0  0  0  0  0  0  0  0  0  0
   14.0179    6.9797    2.1243 H   0  0  0  0  0  0  0  0  0  0  0  0
    7.0175    4.9496   -2.7204 H   0  0  0  0  0  0  0  0  0  0  0  0
    3.4225    2.7341   -4.5484 H   0  0  0  0  0  0  0  0  0  0  0  0
    4.8998    2.5081   -5.5124 H   0  0  0  0  0  0  0  0  0  0  0  0
    2.8129    5.6266   -4.4922 H   0  0  0  0  0  0  0  0  0  0  0  0
    4.3407    6.3810   -5.0070 H   0  0  0  0  0  0  0  0  0  0  0  0
    3.7766    4.8653   -2.5616 H   0  0  0  0  0  0  0  0  0  0  0  0
    5.1903    5.7838   -2.9957 H   0  0  0  0  0  0  0  0  0  0  0  0
  1  2  1  0  0  0  0
  1 33  1  0  0  0  0
  1 34  1  0  0  0  0
  1 35  1  0  0  0  0
  2  3  1  0  0  0  0
  2 36  1  0  0  0  0
  2 37  1  0  0  0  0
  3  4  1  0  0  0  0
  4  5  2  0  0  0  0
  4 24  1  0  0  0  0
  5  6  1  0  0  0  0
  5 38  1  0  0  0  0
  6 22  2  0  0  0  0
  7  9  1  0  0  0  0
  7 12  1  0  0  0  0
  7  8  1  6  0  0  0
  7  6  1  0  0  0  0
  9 10  2  0  0  0  0
  9 11  1  0  0  0  0
 11 39  1  0  0  0  0
 12 13  1  0  0  0  0
 12 40  1  0  0  0  0
 13 14  2  0  0  0  0
 13 18  1  0  0  0  0
 14 15  1  0  0  0  0
 14 41  1  0  0  0  0
 15 16  2  0  0  0  0
 15 42  1  0  0  0  0
 16 17  1  0  0  0  0
 16 19  1  0  0  0  0
 17 18  2  0  0  0  0
 17 43  1  0  0  0  0
 18 44  1  0  0  0  0
 19 20  2  0  0  0  0
 19 21  1  0  0  0  0
 20 45  1  0  0  0  0
 21 46  1  0  0  0  0
 21 47  1  0  0  0  0
 22 23  1  0  0  0  0
 22 32  1  0  0  0  0
 23 24  2  0  0  0  0
 23 25  1  0  0  0  0
 24 48  1  0  0  0  0
 25 26  1  0  0  0  0
 26 27  1  6  0  0  0
 26 28  1  0  0  0  0
 26 31  1  0  0  0  0
 28 29  1  0  0  0  0
 28 49  1  0  0  0  0
 28 50  1  0  0  0  0
 29 30  1  0  0  0  0
 30 31  1  0  0  0  0
 30 51  1  0  0  0  0
 30 52  1  0  0  0  0
 31 53  1  0  0  0  0
 31 54  1  0  0  0  0
M  END
$$$$
