34N
 OpenBabel04121316053D

 52 54  0  0  1  0  0  0  0  0999 V2000
   10.5275    0.4089  -12.1454 N   0  0  0  0  0  0  0  0  0  0  0  0
   10.7000   -0.1961  -11.1779 C   0  0  0  0  0  0  0  0  0  0  0  0
   10.8870   -0.9209   -9.9540 C   0  0  0  0  0  0  0  0  0  0  0  0
   10.4664   -2.2492   -9.8488 C   0  0  0  0  0  0  0  0  0  0  0  0
   10.4605   -2.8760   -8.6047 C   0  0  0  0  0  0  0  0  0  0  0  0
   11.0157   -2.2304   -7.4965 C   0  0  0  0  0  0  0  0  0  0  0  0
   11.6024   -0.9683   -7.6520 C   0  0  0  0  0  0  0  0  0  0  0  0
   11.4625   -0.2826   -8.8549 C   0  0  0  0  0  0  0  0  0  0  0  0
   10.9068   -2.9053   -6.1816 C   0  0  0  0  0  0  0  0  0  0  0  0
   10.3383   -3.9870   -6.0793 O   0  0  0  0  0  0  0  0  0  0  0  0
   11.4338   -2.2350   -5.1059 N   0  0  0  0  0  0  0  0  0  0  0  0
   11.3524   -2.8288   -3.8099 C   0  0  0  0  0  0  0  0  0  0  0  0
   12.0274   -1.9533   -2.7687 C   0  0  0  0  0  0  0  0  0  0  0  0
   11.8673   -2.5869   -1.3721 C   0  0  2  0  0  0  0  0  0  0  0  0
   10.7928   -2.6155   -1.1399 H   0  0  0  0  0  0  0  0  0  0  0  0
   12.5272   -1.7383   -0.3041 C   0  0  0  0  0  0  0  0  0  0  0  0
   12.1911   -0.3842   -0.1940 C   0  0  0  0  0  0  0  0  0  0  0  0
   12.9270    0.4482    0.6404 C   0  0  0  0  0  0  0  0  0  0  0  0
   13.8932   -0.1046    1.4836 C   0  0  0  0  0  0  0  0  0  0  0  0
   14.1103   -1.4753    1.5151 C   0  0  0  0  0  0  0  0  0  0  0  0
   13.4753   -2.2724    0.5811 C   0  0  0  0  0  0  0  0  0  0  0  0
   14.8538    0.9938    2.4805 S   0  0  0  0  0  0  0  0  0  0  0  0
   15.6522    1.7810    1.5600 O   0  0  0  0  0  0  0  0  0  0  0  0
   13.9284    1.6200    3.4037 O   0  0  0  0  0  0  0  0  0  0  0  0
   15.9636   -0.0255    3.4188 C   0  0  0  0  0  0  0  0  0  0  0  0
   12.4044   -4.0096   -1.4277 C   0  0  0  0  0  0  0  0  0  0  0  0
   13.7279   -4.2496   -1.8564 C   0  0  0  0  0  0  0  0  0  0  0  0
   14.1641   -5.5424   -2.0873 C   0  0  0  0  0  0  0  0  0  0  0  0
   13.3238   -6.5966   -1.7646 C   0  0  0  0  0  0  0  0  0  0  0  0
   12.0668   -6.3796   -1.2054 C   0  0  0  0  0  0  0  0  0  0  0  0
   11.5742   -5.0842   -1.0989 C   0  0  0  0  0  0  0  0  0  0  0  0
   13.7324   -7.8484   -2.0003 F   0  0  0  0  0  0  0  0  0  0  0  0
   10.1133   -2.7952  -10.7199 H   0  0  0  0  0  0  0  0  0  0  0  0
   10.0146   -3.8642   -8.4958 H   0  0  0  0  0  0  0  0  0  0  0  0
   12.1530   -0.4795   -6.8576 H   0  0  0  0  0  0  0  0  0  0  0  0
   11.8011    0.7496   -8.9200 H   0  0  0  0  0  0  0  0  0  0  0  0
   11.8968   -1.3462   -5.1908 H   0  0  0  0  0  0  0  0  0  0  0  0
   11.8251   -3.8122   -3.8934 H   0  0  0  0  0  0  0  0  0  0  0  0
   10.2959   -2.9798   -3.5640 H   0  0  0  0  0  0  0  0  0  0  0  0
   11.5876   -0.9487   -2.8051 H   0  0  0  0  0  0  0  0  0  0  0  0
   13.0873   -1.8118   -3.0268 H   0  0  0  0  0  0  0  0  0  0  0  0
   11.3759    0.0326   -0.7816 H   0  0  0  0  0  0  0  0  0  0  0  0
   12.7448    1.5197    0.6293 H   0  0  0  0  0  0  0  0  0  0  0  0
   14.7690   -1.9642    2.2213 H   0  0  0  0  0  0  0  0  0  0  0  0
   13.7564   -3.3227    0.5550 H   0  0  0  0  0  0  0  0  0  0  0  0
   16.6092   -0.5844    2.7365 H   0  0  0  0  0  0  0  0  0  0  0  0
   15.3850   -0.7026    4.0510 H   0  0  0  0  0  0  0  0  0  0  0  0
   16.5758    0.6233    4.0461 H   0  0  0  0  0  0  0  0  0  0  0  0
   14.4153   -3.4191   -2.0124 H   0  0  0  0  0  0  0  0  0  0  0  0
   15.1458   -5.7262   -2.5081 H   0  0  0  0  0  0  0  0  0  0  0  0
   11.4710   -7.2223   -0.8747 H   0  0  0  0  0  0  0  0  0  0  0  0
   10.5484   -4.9160   -0.7775 H   0  0  0  0  0  0  0  0  0  0  0  0
  1  2  3  0  0  0  0
  2  3  1  0  0  0  0
  3  4  2  0  0  0  0
  3  8  1  0  0  0  0
  4  5  1  0  0  0  0
  4 33  1  0  0  0  0
  5  6  2  0  0  0  0
  5 34  1  0  0  0  0
  6  7  1  0  0  0  0
  6  9  1  0  0  0  0
  7  8  2  0  0  0  0
  7 35  1  0  0  0  0
  8 36  1  0  0  0  0
  9 10  2  0  0  0  0
  9 11  1  0  0  0  0
 11 12  1  0  0  0  0
 11 37  1  0  0  0  0
 12 13  1  0  0  0  0
 12 38  1  0  0  0  0
 12 39  1  0  0  0  0
 13 40  1  0  0  0  0
 13 41  1  0  0  0  0
 14 16  1  0  0  0  0
 14 26  1  0  0  0  0
 14 15  1  1  0  0  0
 14 13  1  0  0  0  0
 16 17  2  0  0  0  0
 16 21  1  0  0  0  0
 17 18  1  0  0  0  0
 17 42  1  0  0  0  0
 18 19  2  0  0  0  0
 18 43  1  0  0  0  0
 19 20  1  0  0  0  0
 19 22  1  0  0  0  0
 20 21  2  0  0  0  0
 20 44  1  0  0  0  0
 21 45  1  0  0  0  0
 22 23  2  0  0  0  0
 22 24  2  0  0  0  0
 22 25  1  0  0  0  0
 25 46  1  0  0  0  0
 25 47  1  0  0  0  0
 25 48  1  0  0  0  0
 26 27  2  0  0  0  0
 26 31  1  0  0  0  0
 27 28  1  0  0  0  0
 27 49  1  0  0  0  0
 28 29  2  0  0  0  0
 28 50  1  0  0  0  0
 29 30  1  0  0  0  0
 29 32  1  0  0  0  0
 30 31  2  0  0  0  0
 30 51  1  0  0  0  0
 31 52  1  0  0  0  0
M  END
$$$$
