34Z
 OpenBabel04121316053D

 15 15  0  0  0  0  0  0  0  0999 V2000
    1.0649    0.1426   -0.1536 O   0  0  0  0  0  0  0  0  0  0  0  0
    2.3746   -0.0806    0.0422 C   0  0  0  0  0  0  0  0  0  0  0  0
    2.8784   -0.3228    1.1241 O   0  0  0  0  0  0  0  0  0  0  0  0
    3.0791    0.1754   -1.2149 C   0  0  0  0  0  0  0  0  0  0  0  0
    3.1682    1.4992   -1.6547 C   0  0  0  0  0  0  0  0  0  0  0  0
    3.7620    1.7764   -2.8826 C   0  0  0  0  0  0  0  0  0  0  0  0
    4.1603    0.7251   -3.7136 C   0  0  0  0  0  0  0  0  0  0  0  0
    4.0828   -0.5994   -3.2555 C   0  0  0  0  0  0  0  0  0  0  0  0
    3.6020   -0.8722   -1.9714 C   0  0  0  0  0  0  0  0  0  0  0  0
    4.5172   -1.9431   -4.2516 Cl  0  0  0  0  0  0  0  0  0  0  0  0
    4.6995    1.1286   -5.3042 Cl  0  0  0  0  0  0  0  0  0  0  0  0
    0.6581    0.2291    0.7326 H   0  0  0  0  0  0  0  0  0  0  0  0
    2.7675    2.3058   -1.0447 H   0  0  0  0  0  0  0  0  0  0  0  0
    3.8842    2.8098   -3.1971 H   0  0  0  0  0  0  0  0  0  0  0  0
    3.6008   -1.8869   -1.5823 H   0  0  0  0  0  0  0  0  0  0  0  0
  1  2  1  0  0  0  0
  1 12  1  0  0  0  0
  2  3  2  0  0  0  0
  2  4  1  0  0  0  0
  4  5  2  0  0  0  0
  4  9  1  0  0  0  0
  5  6  1  0  0  0  0
  5 13  1  0  0  0  0
  6  7  2  0  0  0  0
  6 14  1  0  0  0  0
  7  8  1  0  0  0  0
  7 11  1  0  0  0  0
  8  9  2  0  0  0  0
  8 10  1  0  0  0  0
  9 15  1  0  0  0  0
M  END
$$$$
