351
 OpenBabel04121316053D

 67 72  0  0  0  0  0  0  0  0999 V2000
    0.9821   -0.1110   -0.0326 N   0  0  0  0  0  0  0  0  0  0  0  0
    2.4331   -0.0891   -0.0397 C   0  0  0  0  0  0  0  0  0  0  0  0
    2.9638   -0.1759    1.3561 C   0  0  0  0  0  0  0  0  0  0  0  0
    3.2738    0.9819    2.0601 C   0  0  0  0  0  0  0  0  0  0  0  0
    3.9141    0.8842    3.2882 C   0  0  0  0  0  0  0  0  0  0  0  0
    4.1507   -0.3580    3.9144 C   0  0  0  0  0  0  0  0  0  0  0  0
    3.6577   -1.4968    3.2622 C   0  0  0  0  0  0  0  0  0  0  0  0
    3.1304   -1.4154    1.9754 C   0  0  0  0  0  0  0  0  0  0  0  0
    4.9172   -0.4462    5.1762 C   0  0  0  0  0  0  0  0  0  0  0  0
    5.2736   -1.6539    5.8008 C   0  0  0  0  0  0  0  0  0  0  0  0
    5.9992   -1.8255    6.9468 N   0  0  0  0  0  0  0  0  0  0  0  0
    6.4122   -0.6559    7.4613 C   0  0  0  0  0  0  0  0  0  0  0  0
    6.1804    0.6029    6.9434 C   0  0  0  0  0  0  0  0  0  0  0  0
    5.3971    0.7089    5.7954 C   0  0  0  0  0  0  0  0  0  0  0  0
    6.8543    1.5366    7.7574 C   0  0  0  0  0  0  0  0  0  0  0  0
    7.3882    0.8429    8.8218 C   0  0  0  0  0  0  0  0  0  0  0  0
    7.1417   -0.4934    8.6086 N   0  0  0  0  0  0  0  0  0  0  0  0
    7.4331   -1.2569    9.1988 H   0  0  0  0  0  0  0  0  0  0  0  0
    6.8425    2.9710    7.6416 C   0  0  0  0  0  0  0  0  0  0  0  0
    7.9693    3.7177    7.3526 C   0  0  0  0  0  0  0  0  0  0  0  0
    7.8714    5.1104    7.3017 C   0  0  0  0  0  0  0  0  0  0  0  0
    6.6953    5.7536    7.7145 C   0  0  0  0  0  0  0  0  0  0  0  0
    5.5792    4.9876    8.0476 C   0  0  0  0  0  0  0  0  0  0  0  0
    5.6366    3.6125    7.8486 C   0  0  0  0  0  0  0  0  0  0  0  0
    4.4798    5.5595    8.7308 N   0  0  0  0  0  0  0  0  0  0  0  0
    3.3081    4.8558    8.9542 C   0  0  0  0  0  0  0  0  0  0  0  0
    3.0210    3.8517    8.3357 O   0  0  0  0  0  0  0  0  0  0  0  0
    2.4307    5.4382    9.8683 N   0  0  0  0  0  0  0  0  0  0  0  0
    1.0931    4.9304    9.8877 C   0  0  0  0  0  0  0  0  0  0  0  0
    0.9678    3.5242    9.8967 C   0  0  0  0  0  0  0  0  0  0  0  0
   -0.2507    2.8770    9.8268 C   0  0  0  0  0  0  0  0  0  0  0  0
   -1.3988    3.6352    9.9286 C   0  0  0  0  0  0  0  0  0  0  0  0
   -1.3092    5.0387    9.9878 C   0  0  0  0  0  0  0  0  0  0  0  0
   -0.0723    5.7191    9.8600 C   0  0  0  0  0  0  0  0  0  0  0  0
   -0.2018    7.0978    9.7117 O   0  0  0  0  0  0  0  0  0  0  0  0
    0.7506    7.9041    9.1188 C   0  0  0  0  0  0  0  0  0  0  0  0
    0.7297    9.2695    9.4145 C   0  0  0  0  0  0  0  0  0  0  0  0
    1.7474   10.1155    8.9393 C   0  0  0  0  0  0  0  0  0  0  0  0
    2.8821    9.5752    8.3491 C   0  0  0  0  0  0  0  0  0  0  0  0
    2.8861    8.2330    8.0379 C   0  0  0  0  0  0  0  0  0  0  0  0
    1.7331    7.4707    8.2395 C   0  0  0  0  0  0  0  0  0  0  0  0
    0.6435    0.0204   -0.9808 H   0  0  0  0  0  0  0  0  0  0  0  0
    0.6480    0.6802    0.5160 H   0  0  0  0  0  0  0  0  0  0  0  0
    2.8030    0.8268   -0.5163 H   0  0  0  0  0  0  0  0  0  0  0  0
    2.8253   -0.9261   -0.6276 H   0  0  0  0  0  0  0  0  0  0  0  0
    3.0579    1.9664    1.6539 H   0  0  0  0  0  0  0  0  0  0  0  0
    4.2359    1.8243    3.7250 H   0  0  0  0  0  0  0  0  0  0  0  0
    3.6885   -2.4790    3.7223 H   0  0  0  0  0  0  0  0  0  0  0  0
    2.8506   -2.3279    1.4551 H   0  0  0  0  0  0  0  0  0  0  0  0
    4.9794   -2.6063    5.3677 H   0  0  0  0  0  0  0  0  0  0  0  0
    5.2142    1.7070    5.4220 H   0  0  0  0  0  0  0  0  0  0  0  0
    7.9071    1.1850    9.7061 H   0  0  0  0  0  0  0  0  0  0  0  0
    8.9067    3.2112    7.1532 H   0  0  0  0  0  0  0  0  0  0  0  0
    8.7335    5.6902    6.9863 H   0  0  0  0  0  0  0  0  0  0  0  0
    6.6809    6.8372    7.7803 H   0  0  0  0  0  0  0  0  0  0  0  0
    4.7786    2.9621    7.9557 H   0  0  0  0  0  0  0  0  0  0  0  0
    4.5771    6.5010    9.0703 H   0  0  0  0  0  0  0  0  0  0  0  0
    2.5517    6.4141   10.0892 H   0  0  0  0  0  0  0  0  0  0  0  0
    1.8554    2.8955    9.9334 H   0  0  0  0  0  0  0  0  0  0  0  0
   -0.2678    1.7947    9.7353 H   0  0  0  0  0  0  0  0  0  0  0  0
   -2.3569    3.1241    9.9710 H   0  0  0  0  0  0  0  0  0  0  0  0
   -2.2328    5.5960   10.1298 H   0  0  0  0  0  0  0  0  0  0  0  0
   -0.0824    9.6940    9.9986 H   0  0  0  0  0  0  0  0  0  0  0  0
    1.6701   11.1937    9.0396 H   0  0  0  0  0  0  0  0  0  0  0  0
    3.7347   10.1855    8.0661 H   0  0  0  0  0  0  0  0  0  0  0  0
    3.7820    7.7921    7.6133 H   0  0  0  0  0  0  0  0  0  0  0  0
    1.6854    6.4766    7.8074 H   0  0  0  0  0  0  0  0  0  0  0  0
  1  2  1  0  0  0  0
  1 42  1  0  0  0  0
  1 43  1  0  0  0  0
  2  3  1  0  0  0  0
  2 44  1  0  0  0  0
  2 45  1  0  0  0  0
  3  4  2  0  0  0  0
  3  8  1  0  0  0  0
  4  5  1  0  0  0  0
  4 46  1  0  0  0  0
  5  6  2  0  0  0  0
  5 47  1  0  0  0  0
  6  7  1  0  0  0  0
  6  9  1  0  0  0  0
  7  8  2  0  0  0  0
  7 48  1  0  0  0  0
  8 49  1  0  0  0  0
  9 10  2  0  0  0  0
  9 14  1  0  0  0  0
 10 11  1  0  0  0  0
 10 50  1  0  0  0  0
 11 12  2  0  0  0  0
 12 13  1  0  0  0  0
 12 17  1  0  0  0  0
 13 14  2  0  0  0  0
 13 15  1  0  0  0  0
 14 51  1  0  0  0  0
 15 16  2  0  0  0  0
 15 19  1  0  0  0  0
 16 17  1  0  0  0  0
 16 52  1  0  0  0  0
 17 18  1  0  0  0  0
 19 20  2  0  0  0  0
 19 24  1  0  0  0  0
 20 21  1  0  0  0  0
 20 53  1  0  0  0  0
 21 22  2  0  0  0  0
 21 54  1  0  0  0  0
 22 23  1  0  0  0  0
 22 55  1  0  0  0  0
 23 24  2  0  0  0  0
 23 25  1  0  0  0  0
 24 56  1  0  0  0  0
 25 26  1  0  0  0  0
 25 57  1  0  0  0  0
 26 27  2  0  0  0  0
 26 28  1  0  0  0  0
 28 29  1  0  0  0  0
 28 58  1  0  0  0  0
 29 30  2  0  0  0  0
 29 34  1  0  0  0  0
 30 31  1  0  0  0  0
 30 59  1  0  0  0  0
 31 32  2  0  0  0  0
 31 60  1  0  0  0  0
 32 33  1  0  0  0  0
 32 61  1  0  0  0  0
 33 34  2  0  0  0  0
 33 62  1  0  0  0  0
 34 35  1  0  0  0  0
 35 36  1  0  0  0  0
 36 37  2  0  0  0  0
 36 41  1  0  0  0  0
 37 38  1  0  0  0  0
 37 63  1  0  0  0  0
 38 39  2  0  0  0  0
 38 64  1  0  0  0  0
 39 40  1  0  0  0  0
 39 65  1  0  0  0  0
 40 41  2  0  0  0  0
 40 66  1  0  0  0  0
 41 67  1  0  0  0  0
M  END
$$$$
