352
 OpenBabel04121316053D

 40 41  0  0  1  0  0  0  0  0999 V2000
    1.0037    0.0319    0.0506 C   0  0  0  0  0  0  0  0  0  0  0  0
    2.5204    0.0343    0.0648 C   0  0  1  0  0  0  0  0  0  0  0  0
    2.8465    1.0447   -0.2138 H   0  0  0  0  0  0  0  0  0  0  0  0
    3.0290   -0.2933    1.4618 C   0  0  0  0  0  0  0  0  0  0  0  0
    3.5613    0.7147    2.2858 C   0  0  0  0  0  0  0  0  0  0  0  0
    4.1620    0.3810    3.5011 C   0  0  0  0  0  0  0  0  0  0  0  0
    4.1255   -0.9356    3.9447 C   0  0  0  0  0  0  0  0  0  0  0  0
    3.4934   -1.9231    3.2025 C   0  0  0  0  0  0  0  0  0  0  0  0
    2.9928   -1.6133    1.9417 C   0  0  0  0  0  0  0  0  0  0  0  0
    4.7146   -1.2593    5.1026 F   0  0  0  0  0  0  0  0  0  0  0  0
    3.0381   -0.9119   -0.9263 N   0  0  0  0  0  0  0  0  0  0  0  0
    4.3724   -1.1278   -1.0825 C   0  0  0  0  0  0  0  0  0  0  0  0
    4.9658   -2.2488   -1.2858 N   0  0  0  0  0  0  0  0  0  0  0  0
    6.3406   -2.0952   -1.4454 C   0  0  0  0  0  0  0  0  0  0  0  0
    7.1157   -3.0339   -1.3991 O   0  0  0  0  0  0  0  0  0  0  0  0
    6.7560   -0.6373   -1.7725 C   0  0  2  0  0  0  0  0  0  0  0  0
    5.3529    0.3000   -1.0878 S   0  0  0  0  0  0  0  0  0  0  0  0
    6.6834   -0.4605   -3.2958 C   0  0  0  0  0  0  0  0  0  0  0  0
    8.1100   -0.1142   -1.1977 C   0  0  0  0  0  0  0  0  0  0  0  0
    9.1209   -0.2689   -2.2123 O   0  0  0  0  0  0  0  0  0  0  0  0
    8.0923    1.3969   -0.8430 C   0  0  0  0  0  0  0  0  0  0  0  0
    8.5759   -0.8790    0.0409 C   0  0  0  0  0  0  0  0  0  0  0  0
    0.6184    0.7687    0.7636 H   0  0  0  0  0  0  0  0  0  0  0  0
    0.6044   -0.9492    0.3269 H   0  0  0  0  0  0  0  0  0  0  0  0
    0.6296    0.2837   -0.9459 H   0  0  0  0  0  0  0  0  0  0  0  0
    3.5358    1.7586    1.9784 H   0  0  0  0  0  0  0  0  0  0  0  0
    4.6589    1.1347    4.1041 H   0  0  0  0  0  0  0  0  0  0  0  0
    3.4126   -2.9313    3.5938 H   0  0  0  0  0  0  0  0  0  0  0  0
    2.5941   -2.4115    1.3197 H   0  0  0  0  0  0  0  0  0  0  0  0
    2.4366   -1.6857   -1.1780 H   0  0  0  0  0  0  0  0  0  0  0  0
    5.7490   -0.8410   -3.7240 H   0  0  0  0  0  0  0  0  0  0  0  0
    7.4859   -1.0189   -3.7902 H   0  0  0  0  0  0  0  0  0  0  0  0
    6.7888    0.5947   -3.5712 H   0  0  0  0  0  0  0  0  0  0  0  0
    9.9403    0.1623   -1.9216 H   0  0  0  0  0  0  0  0  0  0  0  0
    9.0840    1.7406   -0.5339 H   0  0  0  0  0  0  0  0  0  0  0  0
    7.4139    1.6294   -0.0131 H   0  0  0  0  0  0  0  0  0  0  0  0
    7.8089    2.0067   -1.7095 H   0  0  0  0  0  0  0  0  0  0  0  0
    9.5003   -0.4454    0.4363 H   0  0  0  0  0  0  0  0  0  0  0  0
    8.8298   -1.9133   -0.2044 H   0  0  0  0  0  0  0  0  0  0  0  0
    7.8181   -0.8677    0.8305 H   0  0  0  0  0  0  0  0  0  0  0  0
  1  2  1  0  0  0  0
  1 23  1  0  0  0  0
  1 24  1  0  0  0  0
  1 25  1  0  0  0  0
  2  3  1  6  0  0  0
  2  4  1  0  0  0  0
  2 11  1  0  0  0  0
  4  5  2  0  0  0  0
  4  9  1  0  0  0  0
  5  6  1  0  0  0  0
  5 26  1  0  0  0  0
  6  7  2  0  0  0  0
  6 27  1  0  0  0  0
  7  8  1  0  0  0  0
  7 10  1  0  0  0  0
  8  9  2  0  0  0  0
  8 28  1  0  0  0  0
  9 29  1  0  0  0  0
 11 12  1  0  0  0  0
 11 30  1  0  0  0  0
 12 13  2  0  0  0  0
 12 17  1  0  0  0  0
 13 14  1  0  0  0  0
 14 15  2  0  0  0  0
 14 16  1  0  0  0  0
 16 17  1  0  0  0  0
 16 19  1  1  0  0  0
 16 18  1  0  0  0  0
 18 31  1  0  0  0  0
 18 32  1  0  0  0  0
 18 33  1  0  0  0  0
 19 20  1  0  0  0  0
 19 21  1  0  0  0  0
 19 22  1  0  0  0  0
 20 34  1  0  0  0  0
 21 35  1  0  0  0  0
 21 36  1  0  0  0  0
 21 37  1  0  0  0  0
 22 38  1  0  0  0  0
 22 39  1  0  0  0  0
 22 40  1  0  0  0  0
M  END
$$$$
