35F
 OpenBabel04121316053D

 42 46  0  0  0  0  0  0  0  0999 V2000
    0.8987   -0.0364   -0.0768 O   0  0  0  0  0  0  0  0  0  0  0  0
    2.1219   -0.0138    0.0459 C   0  0  0  0  0  0  0  0  0  0  0  0
    2.7877    0.8577    0.9977 C   0  0  0  0  0  0  0  0  0  0  0  0
    2.6796    2.2269    1.1514 C   0  0  0  0  0  0  0  0  0  0  0  0
    3.4449    2.5767    2.2863 C   0  0  0  0  0  0  0  0  0  0  0  0
    3.9844    1.4030    2.7568 C   0  0  0  0  0  0  0  0  0  0  0  0
    3.5958    0.3521    1.9830 O   0  0  0  0  0  0  0  0  0  0  0  0
    2.8796   -0.7797   -0.8315 N   0  0  0  0  0  0  0  0  0  0  0  0
    4.2715   -0.7200   -0.9210 C   0  0  0  0  0  0  0  0  0  0  0  0
    5.0000   -1.5195   -0.0443 C   0  0  0  0  0  0  0  0  0  0  0  0
    6.3861   -1.4379   -0.0207 C   0  0  0  0  0  0  0  0  0  0  0  0
    7.0332   -0.4729   -0.7938 C   0  0  0  0  0  0  0  0  0  0  0  0
    6.3012    0.3311   -1.6802 C   0  0  0  0  0  0  0  0  0  0  0  0
    4.9169    0.1424   -1.8064 C   0  0  0  0  0  0  0  0  0  0  0  0
    6.9597    1.4004   -2.4228 C   0  0  0  0  0  0  0  0  0  0  0  0
    6.6105    2.6851   -2.2416 N   0  0  0  0  0  0  0  0  0  0  0  0
    7.3895    3.3627   -3.1009 N   0  0  0  0  0  0  0  0  0  0  0  0
    7.2930    4.3707   -3.1424 H   0  0  0  0  0  0  0  0  0  0  0  0
    8.2177    2.5757   -3.8522 C   0  0  0  0  0  0  0  0  0  0  0  0
    7.9821    1.2813   -3.4067 C   0  0  0  0  0  0  0  0  0  0  0  0
    8.6962    0.2226   -3.9912 C   0  0  0  0  0  0  0  0  0  0  0  0
    9.6150    0.4882   -5.0220 C   0  0  0  0  0  0  0  0  0  0  0  0
    9.8198    1.8086   -5.4476 C   0  0  0  0  0  0  0  0  0  0  0  0
    9.1255    2.8814   -4.8709 C   0  0  0  0  0  0  0  0  0  0  0  0
   10.3012   -0.6314   -5.6545 C   0  0  0  0  0  0  0  0  0  0  0  0
   11.3150   -0.5212   -6.5295 N   0  0  0  0  0  0  0  0  0  0  0  0
   11.5515   -1.8057   -6.8415 N   0  0  0  0  0  0  0  0  0  0  0  0
   12.2813   -2.0316   -7.5070 H   0  0  0  0  0  0  0  0  0  0  0  0
   10.7105   -2.6390   -6.1816 C   0  0  0  0  0  0  0  0  0  0  0  0
    9.9184   -1.9349   -5.4138 N   0  0  0  0  0  0  0  0  0  0  0  0
    2.1012    2.8777    0.5116 H   0  0  0  0  0  0  0  0  0  0  0  0
    3.5753    3.5611    2.7134 H   0  0  0  0  0  0  0  0  0  0  0  0
    4.6223    1.1625    3.5968 H   0  0  0  0  0  0  0  0  0  0  0  0
    2.3498   -1.1158   -1.6251 H   0  0  0  0  0  0  0  0  0  0  0  0
    4.4786   -2.1881    0.6363 H   0  0  0  0  0  0  0  0  0  0  0  0
    6.9503   -2.0946    0.6339 H   0  0  0  0  0  0  0  0  0  0  0  0
    8.1050   -0.3337   -0.6762 H   0  0  0  0  0  0  0  0  0  0  0  0
    4.3603    0.7220   -2.5380 H   0  0  0  0  0  0  0  0  0  0  0  0
    8.5181   -0.7974   -3.6599 H   0  0  0  0  0  0  0  0  0  0  0  0
   10.5211    2.0125   -6.2562 H   0  0  0  0  0  0  0  0  0  0  0  0
    9.2784    3.8975   -5.2199 H   0  0  0  0  0  0  0  0  0  0  0  0
   10.7110   -3.7130   -6.2937 H   0  0  0  0  0  0  0  0  0  0  0  0
  1  2  2  0  0  0  0
  2  3  1  0  0  0  0
  2  8  1  0  0  0  0
  3  4  2  0  0  0  0
  3  7  1  0  0  0  0
  4  5  1  0  0  0  0
  4 31  1  0  0  0  0
  5  6  2  0  0  0  0
  5 32  1  0  0  0  0
  6  7  1  0  0  0  0
  6 33  1  0  0  0  0
  8  9  1  0  0  0  0
  8 34  1  0  0  0  0
  9 10  2  0  0  0  0
  9 14  1  0  0  0  0
 10 11  1  0  0  0  0
 10 35  1  0  0  0  0
 11 12  2  0  0  0  0
 11 36  1  0  0  0  0
 12 13  1  0  0  0  0
 12 37  1  0  0  0  0
 13 14  2  0  0  0  0
 13 15  1  0  0  0  0
 14 38  1  0  0  0  0
 15 16  2  0  0  0  0
 15 20  1  0  0  0  0
 16 17  1  0  0  0  0
 17 18  1  0  0  0  0
 17 19  1  0  0  0  0
 19 20  2  0  0  0  0
 19 24  1  0  0  0  0
 20 21  1  0  0  0  0
 21 22  2  0  0  0  0
 21 39  1  0  0  0  0
 22 23  1  0  0  0  0
 22 25  1  0  0  0  0
 23 24  2  0  0  0  0
 23 40  1  0  0  0  0
 24 41  1  0  0  0  0
 25 26  2  0  0  0  0
 25 30  1  0  0  0  0
 26 27  1  0  0  0  0
 27 28  1  0  0  0  0
 27 29  1  0  0  0  0
 29 30  2  0  0  0  0
 29 42  1  0  0  0  0
M  END
$$$$
