36A
 OpenBabel04121316053D

 59 62  0  0  1  0  0  0  0  0999 V2000
    3.7595   -0.4313   -3.1502 O   0  0  0  0  0  0  0  0  0  0  0  0
    2.6899   -0.1098   -2.3917 C   0  0  0  0  0  0  0  0  0  0  0  0
    1.5466   -0.4187   -2.7173 O   0  0  0  0  0  0  0  0  0  0  0  0
    3.0583    0.6692   -1.1242 C   0  0  2  0  0  0  0  0  0  0  0  0
    2.5302    0.2020   -0.2860 H   0  0  0  0  0  0  0  0  0  0  0  0
    2.6677    2.1431   -1.2583 C   0  0  0  0  0  0  0  0  0  0  0  0
    1.1588    2.3535   -1.4769 C   0  0  0  0  0  0  0  0  0  0  0  0
    0.8703    4.1549   -1.5078 S   0  0  0  0  0  0  0  0  0  0  0  0
   -0.9154    4.2516   -1.9091 C   0  0  0  0  0  0  0  0  0  0  0  0
   -1.4480    5.7029   -2.0378 C   0  0  1  0  0  0  0  0  0  0  0  0
   -2.3039    5.6480   -2.7264 H   0  0  0  0  0  0  0  0  0  0  0  0
   -1.9657    6.1742   -0.7641 O   0  0  0  0  0  0  0  0  0  0  0  0
   -2.1898    7.5893   -0.9408 C   0  0  2  0  0  0  0  0  0  0  0  0
   -3.1466    7.7309   -1.4576 H   0  0  0  0  0  0  0  0  0  0  0  0
   -1.0178    8.0836   -1.8071 C   0  0  1  0  0  0  0  0  0  0  0  0
   -0.1994    8.4725   -1.1902 H   0  0  0  0  0  0  0  0  0  0  0  0
   -0.5113    6.8197   -2.5271 C   0  0  2  0  0  0  0  0  0  0  0  0
    0.5312    6.6706   -2.2347 H   0  0  0  0  0  0  0  0  0  0  0  0
   -0.5295    6.9337   -3.9464 O   0  0  0  0  0  0  0  0  0  0  0  0
   -1.3715    9.1230   -2.7177 O   0  0  0  0  0  0  0  0  0  0  0  0
   -2.2843    8.2483    0.3548 N   0  0  0  0  0  0  0  0  0  0  0  0
   -1.2690    8.3683    1.2728 C   0  0  0  0  0  0  0  0  0  0  0  0
   -1.6089    9.1167    2.3006 N   0  0  0  0  0  0  0  0  0  0  0  0
   -2.9189    9.4786    2.0553 C   0  0  0  0  0  0  0  0  0  0  0  0
   -3.3551    8.9630    0.8441 C   0  0  0  0  0  0  0  0  0  0  0  0
   -4.5671    9.1521    0.2919 N   0  0  0  0  0  0  0  0  0  0  0  0
   -5.3581    9.9010    1.0977 C   0  0  0  0  0  0  0  0  0  0  0  0
   -5.0665   10.4560    2.2915 N   0  0  0  0  0  0  0  0  0  0  0  0
   -3.8300   10.2624    2.7963 C   0  0  0  0  0  0  0  0  0  0  0  0
   -3.4617   10.8205    3.9938 N   0  0  0  0  0  0  0  0  0  0  0  0
   -4.3575   11.6040    4.8088 C   0  0  0  0  0  0  0  0  0  0  0  0
   -3.7200   12.0539    6.1147 C   0  0  0  0  0  0  0  0  0  0  0  0
   -2.4438   11.6337    6.5272 C   0  0  0  0  0  0  0  0  0  0  0  0
   -1.9173   11.9988    7.7618 C   0  0  0  0  0  0  0  0  0  0  0  0
   -2.7075   12.6922    8.6663 C   0  0  0  0  0  0  0  0  0  0  0  0
   -3.9726   13.1273    8.2801 C   0  0  0  0  0  0  0  0  0  0  0  0
   -4.4538   12.8725    6.9923 C   0  0  0  0  0  0  0  0  0  0  0  0
   -4.9663   13.9424    9.4251 Cl  0  0  0  0  0  0  0  0  0  0  0  0
    4.5117    0.5321   -0.8414 N   0  0  0  0  0  0  0  0  0  0  0  0
    3.9518   -1.3726   -2.9657 H   0  0  0  0  0  0  0  0  0  0  0  0
    3.2271    2.5942   -2.0899 H   0  0  0  0  0  0  0  0  0  0  0  0
    2.9754    2.6675   -0.3424 H   0  0  0  0  0  0  0  0  0  0  0  0
    0.5903    1.9009   -0.6583 H   0  0  0  0  0  0  0  0  0  0  0  0
    0.8330    1.9179   -2.4253 H   0  0  0  0  0  0  0  0  0  0  0  0
   -1.4673    3.7334   -1.1155 H   0  0  0  0  0  0  0  0  0  0  0  0
   -1.1000    3.7105   -2.8460 H   0  0  0  0  0  0  0  0  0  0  0  0
   -0.1567    7.8131   -4.1531 H   0  0  0  0  0  0  0  0  0  0  0  0
   -1.7510    9.8583   -2.2008 H   0  0  0  0  0  0  0  0  0  0  0  0
   -0.2972    7.9108    1.1330 H   0  0  0  0  0  0  0  0  0  0  0  0
   -6.3684   10.0904    0.7457 H   0  0  0  0  0  0  0  0  0  0  0  0
   -2.5118   10.6193    4.2604 H   0  0  0  0  0  0  0  0  0  0  0  0
   -5.2442   11.0067    5.0627 H   0  0  0  0  0  0  0  0  0  0  0  0
   -4.6882   12.4901    4.2534 H   0  0  0  0  0  0  0  0  0  0  0  0
   -1.8196   10.9922    5.9169 H   0  0  0  0  0  0  0  0  0  0  0  0
   -0.9030   11.7035    8.0145 H   0  0  0  0  0  0  0  0  0  0  0  0
   -2.3324   12.8787    9.6673 H   0  0  0  0  0  0  0  0  0  0  0  0
   -5.4144   13.2854    6.6894 H   0  0  0  0  0  0  0  0  0  0  0  0
    4.7574    1.0924   -0.0261 H   0  0  0  0  0  0  0  0  0  0  0  0
    5.0255    0.9411   -1.6272 H   0  0  0  0  0  0  0  0  0  0  0  0
  1  2  1  0  0  0  0
  1 40  1  0  0  0  0
  2  3  2  0  0  0  0
  4  6  1  0  0  0  0
  4 39  1  0  0  0  0
  4  5  1  1  0  0  0
  4  2  1  0  0  0  0
  6  7  1  0  0  0  0
  6 41  1  0  0  0  0
  6 42  1  0  0  0  0
  7  8  1  0  0  0  0
  7 43  1  0  0  0  0
  7 44  1  0  0  0  0
  8  9  1  0  0  0  0
  9 10  1  0  0  0  0
  9 45  1  0  0  0  0
  9 46  1  0  0  0  0
 10 11  1  6  0  0  0
 10 12  1  0  0  0  0
 10 17  1  0  0  0  0
 12 13  1  0  0  0  0
 13 15  1  0  0  0  0
 13 21  1  0  0  0  0
 13 14  1  6  0  0  0
 15 16  1  1  0  0  0
 15 17  1  0  0  0  0
 15 20  1  0  0  0  0
 17 18  1  1  0  0  0
 17 19  1  0  0  0  0
 19 47  1  0  0  0  0
 20 48  1  0  0  0  0
 21 22  1  0  0  0  0
 21 25  1  0  0  0  0
 22 23  2  0  0  0  0
 22 49  1  0  0  0  0
 23 24  1  0  0  0  0
 24 25  2  0  0  0  0
 24 29  1  0  0  0  0
 25 26  1  0  0  0  0
 26 27  2  0  0  0  0
 27 28  1  0  0  0  0
 27 50  1  0  0  0  0
 28 29  2  0  0  0  0
 29 30  1  0  0  0  0
 30 31  1  0  0  0  0
 30 51  1  0  0  0  0
 31 32  1  0  0  0  0
 31 52  1  0  0  0  0
 31 53  1  0  0  0  0
 32 33  2  0  0  0  0
 32 37  1  0  0  0  0
 33 34  1  0  0  0  0
 33 54  1  0  0  0  0
 34 35  2  0  0  0  0
 34 55  1  0  0  0  0
 35 36  1  0  0  0  0
 35 56  1  0  0  0  0
 36 37  2  0  0  0  0
 36 38  1  0  0  0  0
 37 57  1  0  0  0  0
 39 58  1  0  0  0  0
 39 59  1  0  0  0  0
M  END
$$$$
