37A
 OpenBabel04121316053D

 49 52  0  0  1  0  0  0  0  0999 V2000
    0.8569    0.1059    0.0064 O   0  0  0  0  0  0  0  0  0  0  0  0
    2.2579    0.2628   -0.1360 N   0  0  0  0  0  0  0  0  0  0  0  0
    2.8669    0.9247    0.9210 C   0  0  0  0  0  0  0  0  0  0  0  0
    2.2817    1.4751    1.8369 O   0  0  0  0  0  0  0  0  0  0  0  0
    4.2537    0.8667    0.8664 N   0  0  0  0  0  0  0  0  0  0  0  0
    4.9893    0.9558   -0.3925 C   0  0  0  0  0  0  0  0  0  0  0  0
    6.5098    0.9542   -0.2372 C   0  0  2  0  0  0  0  0  0  0  0  0
    6.9542    0.6637   -1.1929 H   0  0  0  0  0  0  0  0  0  0  0  0
    6.8701    0.0227    0.7969 O   0  0  0  0  0  0  0  0  0  0  0  0
    6.5372    0.7922    1.9612 C   0  0  2  0  0  0  0  0  0  0  0  0
    7.0314    0.3824    2.8478 H   0  0  0  0  0  0  0  0  0  0  0  0
    5.0008    0.7816    2.1340 C   0  0  0  0  0  0  0  0  0  0  0  0
    6.9884    2.1380    1.7333 O   0  0  0  0  0  0  0  0  0  0  0  0
    7.0310    2.2721    0.3098 C   0  0  1  0  0  0  0  0  0  0  0  0
    6.4136    3.1299    0.0180 H   0  0  0  0  0  0  0  0  0  0  0  0
    8.4403    2.5183   -0.2343 C   0  0  0  0  0  0  0  0  0  0  0  0
    9.0000    1.7872   -1.0468 O   0  0  0  0  0  0  0  0  0  0  0  0
    9.0125    3.6884    0.1866 N   0  0  0  0  0  0  0  0  0  0  0  0
   10.3362    4.0259   -0.2658 C   0  0  0  0  0  0  0  0  0  0  0  0
   10.7357    5.3605    0.2653 C   0  0  0  0  0  0  0  0  0  0  0  0
    9.9437    6.4655   -0.0439 C   0  0  0  0  0  0  0  0  0  0  0  0
   10.3571    7.7327    0.3208 C   0  0  0  0  0  0  0  0  0  0  0  0
   11.5044    7.9313    1.1061 C   0  0  0  0  0  0  0  0  0  0  0  0
   12.2209    6.7917    1.5124 C   0  0  0  0  0  0  0  0  0  0  0  0
   11.8811    5.5245    1.0432 C   0  0  0  0  0  0  0  0  0  0  0  0
   11.9641    9.3010    1.4025 C   0  0  0  0  0  0  0  0  0  0  0  0
   11.0849   10.3950    1.3029 C   0  0  0  0  0  0  0  0  0  0  0  0
   11.5508   11.7047    1.3399 C   0  0  0  0  0  0  0  0  0  0  0  0
   12.8860   11.9493    1.6301 C   0  0  0  0  0  0  0  0  0  0  0  0
   13.7504   10.8873    1.8736 C   0  0  0  0  0  0  0  0  0  0  0  0
   13.3079    9.5777    1.6992 C   0  0  0  0  0  0  0  0  0  0  0  0
    0.6370   -0.6052   -0.6204 H   0  0  0  0  0  0  0  0  0  0  0  0
    2.7513   -0.5375   -0.5168 H   0  0  0  0  0  0  0  0  0  0  0  0
    4.6493    1.8589   -0.9149 H   0  0  0  0  0  0  0  0  0  0  0  0
    4.7042    0.0965   -1.0055 H   0  0  0  0  0  0  0  0  0  0  0  0
    4.6715    1.5864    2.7985 H   0  0  0  0  0  0  0  0  0  0  0  0
    4.7013   -0.1766    2.5765 H   0  0  0  0  0  0  0  0  0  0  0  0
    8.5491    4.2712    0.8749 H   0  0  0  0  0  0  0  0  0  0  0  0
   10.3436    4.0571   -1.3633 H   0  0  0  0  0  0  0  0  0  0  0  0
   11.0267    3.2357    0.0465 H   0  0  0  0  0  0  0  0  0  0  0  0
    9.0161    6.3514   -0.5989 H   0  0  0  0  0  0  0  0  0  0  0  0
    9.7734    8.5664   -0.0578 H   0  0  0  0  0  0  0  0  0  0  0  0
   13.0737    6.8746    2.1815 H   0  0  0  0  0  0  0  0  0  0  0  0
   12.5177    4.6766    1.2874 H   0  0  0  0  0  0  0  0  0  0  0  0
   10.0177   10.2442    1.1615 H   0  0  0  0  0  0  0  0  0  0  0  0
   10.8651   12.5229    1.1417 H   0  0  0  0  0  0  0  0  0  0  0  0
   13.2516   12.9695    1.6708 H   0  0  0  0  0  0  0  0  0  0  0  0
   14.7782   11.0710    2.1708 H   0  0  0  0  0  0  0  0  0  0  0  0
   14.0432    8.7799    1.7677 H   0  0  0  0  0  0  0  0  0  0  0  0
  1  2  1  0  0  0  0
  1 32  1  0  0  0  0
  2  3  1  0  0  0  0
  2 33  1  0  0  0  0
  3  4  2  0  0  0  0
  3  5  1  0  0  0  0
  5  6  1  0  0  0  0
  5 12  1  0  0  0  0
  6  7  1  0  0  0  0
  6 34  1  0  0  0  0
  6 35  1  0  0  0  0
  7  8  1  6  0  0  0
  7  9  1  0  0  0  0
  7 14  1  0  0  0  0
  9 10  1  0  0  0  0
 10 11  1  1  0  0  0
 10 12  1  0  0  0  0
 10 13  1  0  0  0  0
 12 36  1  0  0  0  0
 12 37  1  0  0  0  0
 13 14  1  0  0  0  0
 14 15  1  6  0  0  0
 14 16  1  0  0  0  0
 16 17  2  0  0  0  0
 16 18  1  0  0  0  0
 18 19  1  0  0  0  0
 18 38  1  0  0  0  0
 19 20  1  0  0  0  0
 19 39  1  0  0  0  0
 19 40  1  0  0  0  0
 20 21  2  0  0  0  0
 20 25  1  0  0  0  0
 21 22  1  0  0  0  0
 21 41  1  0  0  0  0
 22 23  2  0  0  0  0
 22 42  1  0  0  0  0
 23 24  1  0  0  0  0
 23 26  1  0  0  0  0
 24 25  2  0  0  0  0
 24 43  1  0  0  0  0
 25 44  1  0  0  0  0
 26 27  2  0  0  0  0
 26 31  1  0  0  0  0
 27 28  1  0  0  0  0
 27 45  1  0  0  0  0
 28 29  2  0  0  0  0
 28 46  1  0  0  0  0
 29 30  1  0  0  0  0
 29 47  1  0  0  0  0
 30 31  2  0  0  0  0
 30 48  1  0  0  0  0
 31 49  1  0  0  0  0
M  END
$$$$
