393
 OpenBabel04121316053D

 38 39  0  0  0  0  0  0  0  0999 V2000
    1.2070    0.2875   -0.2460 O   0  0  0  0  0  0  0  0  0  0  0  0
    2.5369    0.4501   -0.3658 C   0  0  0  0  0  0  0  0  0  0  0  0
    3.2618    0.7499    0.5845 O   0  0  0  0  0  0  0  0  0  0  0  0
    3.1319    0.1354   -1.6875 C   0  0  0  0  0  0  0  0  0  0  0  0
    4.5073    0.0350   -1.2385 O   0  0  0  0  0  0  0  0  0  0  0  0
    5.3869   -0.1162   -2.2444 C   0  0  0  0  0  0  0  0  0  0  0  0
    5.9393    1.0610   -2.7472 C   0  0  0  0  0  0  0  0  0  0  0  0
    6.6919    0.9868   -3.9011 C   0  0  0  0  0  0  0  0  0  0  0  0
    7.1502    2.4322   -4.7064 Cl  0  0  0  0  0  0  0  0  0  0  0  0
    7.0238   -0.2589   -4.4314 C   0  0  0  0  0  0  0  0  0  0  0  0
    6.6171   -1.4391   -3.7906 C   0  0  0  0  0  0  0  0  0  0  0  0
    5.7453   -1.3879   -2.7048 C   0  0  0  0  0  0  0  0  0  0  0  0
    5.1900   -2.6727   -2.1486 C   0  0  0  0  0  0  0  0  0  0  0  0
    5.4697   -3.7535   -2.6868 O   0  0  0  0  0  0  0  0  0  0  0  0
    4.3506   -2.5826   -1.0677 N   0  0  0  0  0  0  0  0  0  0  0  0
    3.6775   -3.7011   -0.4407 C   0  0  0  0  0  0  0  0  0  0  0  0
    2.7312   -3.3195    0.7023 C   0  0  0  0  0  0  0  0  0  0  0  0
    1.9109   -4.3159    1.2418 C   0  0  0  0  0  0  0  0  0  0  0  0
    1.0029   -4.0091    2.2570 C   0  0  0  0  0  0  0  0  0  0  0  0
    0.7721   -2.6902    2.6352 C   0  0  0  0  0  0  0  0  0  0  0  0
    1.5738   -1.6647    2.1545 C   0  0  0  0  0  0  0  0  0  0  0  0
    2.6402   -2.0276    1.2958 C   0  0  0  0  0  0  0  0  0  0  0  0
    1.1703   -0.2858    2.6143 N   0  3  0  0  0  0  0  0  0  0  0  0
    0.0612   -0.1863    3.1620 O   0  0  0  0  0  0  0  0  0  0  0  0
    1.9115    0.6890    2.4802 O   0  5  0  0  0  0  0  0  0  0  0  0
    0.6845    0.4257   -1.0554 H   0  0  0  0  0  0  0  0  0  0  0  0
    2.9490    0.9706   -2.3599 H   0  0  0  0  0  0  0  0  0  0  0  0
    2.7741   -0.8317   -2.0540 H   0  0  0  0  0  0  0  0  0  0  0  0
    5.7375    2.0126   -2.2587 H   0  0  0  0  0  0  0  0  0  0  0  0
    7.5979   -0.3219   -5.3502 H   0  0  0  0  0  0  0  0  0  0  0  0
    6.9545   -2.4018   -4.1660 H   0  0  0  0  0  0  0  0  0  0  0  0
    4.3334   -1.6883   -0.5987 H   0  0  0  0  0  0  0  0  0  0  0  0
    4.4438   -4.3989   -0.0904 H   0  0  0  0  0  0  0  0  0  0  0  0
    3.1073   -4.2058   -1.2377 H   0  0  0  0  0  0  0  0  0  0  0  0
    1.9918   -5.3492    0.9063 H   0  0  0  0  0  0  0  0  0  0  0  0
    0.4508   -4.7931    2.7635 H   0  0  0  0  0  0  0  0  0  0  0  0
   -0.0192   -2.4712    3.3450 H   0  0  0  0  0  0  0  0  0  0  0  0
    3.4505   -1.3416    1.1022 H   0  0  0  0  0  0  0  0  0  0  0  0
  1  2  1  0  0  0  0
  1 26  1  0  0  0  0
  2  3  2  0  0  0  0
  2  4  1  0  0  0  0
  4  5  1  0  0  0  0
  4 27  1  0  0  0  0
  4 28  1  0  0  0  0
  5  6  1  0  0  0  0
  6  7  2  0  0  0  0
  6 12  1  0  0  0  0
  7  8  1  0  0  0  0
  7 29  1  0  0  0  0
  8  9  1  0  0  0  0
  8 10  2  0  0  0  0
 10 11  1  0  0  0  0
 10 30  1  0  0  0  0
 11 12  2  0  0  0  0
 11 31  1  0  0  0  0
 12 13  1  0  0  0  0
 13 14  2  0  0  0  0
 13 15  1  0  0  0  0
 15 16  1  0  0  0  0
 15 32  1  0  0  0  0
 16 17  1  0  0  0  0
 16 33  1  0  0  0  0
 16 34  1  0  0  0  0
 17 18  2  0  0  0  0
 17 22  1  0  0  0  0
 18 19  1  0  0  0  0
 18 35  1  0  0  0  0
 19 20  2  0  0  0  0
 19 36  1  0  0  0  0
 20 21  1  0  0  0  0
 20 37  1  0  0  0  0
 21 22  2  0  0  0  0
 21 23  1  0  0  0  0
 22 38  1  0  0  0  0
 23 24  2  0  0  0  0
 23 25  1  0  0  0  0
M  CHG  2  23   1  25  -1
M  END
$$$$
