3AA
 OpenBabel04121316053D

 75 79  0  0  1  0  0  0  0  0999 V2000
   15.5171   -7.5373   -5.1676 N   0  0  0  0  0  0  0  0  0  0  0  0
   14.7408   -6.5095   -4.6355 C   0  0  0  0  0  0  0  0  0  0  0  0
   13.6210   -6.0846   -5.3507 C   0  0  0  0  0  0  0  0  0  0  0  0
   12.7554   -5.1652   -4.8015 C   0  0  0  0  0  0  0  0  0  0  0  0
   13.0643   -4.6286   -3.5747 C   0  0  0  0  0  0  0  0  0  0  0  0
   14.1323   -5.0387   -2.8412 N   0  3  0  0  0  0  0  0  0  0  0  0
   14.9133   -6.0399   -3.3219 C   0  0  0  0  0  0  0  0  0  0  0  0
   14.5343   -4.3323   -1.5701 C   0  0  2  0  0  0  0  0  0  0  0  0
   15.6288   -4.3556   -1.5357 H   0  0  0  0  0  0  0  0  0  0  0  0
   14.0746   -4.9847   -0.3697 O   0  0  0  0  0  0  0  0  0  0  0  0
   12.7647   -4.4584   -0.0343 C   0  0  1  0  0  0  0  0  0  0  0  0
   12.6045   -4.4410    1.0495 H   0  0  0  0  0  0  0  0  0  0  0  0
   12.7487   -3.0223   -0.6112 C   0  0  2  0  0  0  0  0  0  0  0  0
   11.8282   -2.8405   -1.1784 H   0  0  0  0  0  0  0  0  0  0  0  0
   13.9896   -2.9057   -1.5191 C   0  0  1  0  0  0  0  0  0  0  0  0
   13.7146   -2.5334   -2.5078 H   0  0  0  0  0  0  0  0  0  0  0  0
   14.9921   -1.9788   -1.1085 O   0  0  0  0  0  0  0  0  0  0  0  0
   12.7900   -2.0290    0.4064 O   0  0  0  0  0  0  0  0  0  0  0  0
   11.8296   -5.5038   -0.6457 C   0  0  0  0  0  0  0  0  0  0  0  0
   10.4718   -5.2249   -0.6097 O   0  0  0  0  0  0  0  0  0  0  0  0
    9.3729   -5.9102   -1.6325 P   0  0  2  0  0  0  0  0  0  0  0  0
    8.2444   -5.7399   -0.5921 O   0  0  0  0  0  0  0  0  0  0  0  0
    9.3988   -7.6126   -1.3257 O   0  0  0  0  0  0  0  0  0  0  0  0
    8.2156   -8.0002   -0.1246 P   0  0  1  0  0  0  0  0  0  0  0  0
    7.1427   -8.1773   -1.2118 O   0  0  0  0  0  0  0  0  0  0  0  0
    8.9121   -9.5216    0.0610 O   0  0  0  0  0  0  0  0  0  0  0  0
   10.1541   -9.7329   -0.6124 C   0  0  0  0  0  0  0  0  0  0  0  0
   10.8949  -11.0292   -0.3805 C   0  0  1  0  0  0  0  0  0  0  0  0
   11.9361  -10.8382   -0.6812 H   0  0  0  0  0  0  0  0  0  0  0  0
   10.9221  -11.5182    0.9512 O   0  0  0  0  0  0  0  0  0  0  0  0
   11.3491  -12.8969    0.8393 C   0  0  2  0  0  0  0  0  0  0  0  0
   12.4443  -12.9261    0.8001 H   0  0  0  0  0  0  0  0  0  0  0  0
   10.6892  -13.3937   -0.4762 C   0  0  1  0  0  0  0  0  0  0  0  0
    9.7754  -13.9033   -0.1590 H   0  0  0  0  0  0  0  0  0  0  0  0
   10.3384  -12.1254   -1.2493 C   0  0  2  0  0  0  0  0  0  0  0  0
    9.2538  -12.0306   -1.3642 H   0  0  0  0  0  0  0  0  0  0  0  0
   10.9315  -12.0254   -2.5481 O   0  0  0  0  0  0  0  0  0  0  0  0
   11.3858  -14.2751   -1.3590 O   0  0  0  0  0  0  0  0  0  0  0  0
   10.4356  -15.2261   -2.2502 P   0  0  0  0  0  0  0  0  0  0  0  0
   10.2426  -16.6131   -1.7188 O   0  0  0  0  0  0  0  0  0  0  0  0
    9.1104  -14.3707   -2.4758 O   0  0  0  0  0  0  0  0  0  0  0  0
   11.0070  -15.1779   -3.7349 O   0  0  0  0  0  0  0  0  0  0  0  0
   10.9608  -13.6460    2.0380 N   0  0  0  0  0  0  0  0  0  0  0  0
   10.9641  -15.0225    2.1008 C   0  0  0  0  0  0  0  0  0  0  0  0
   10.7142  -15.4756    3.3077 N   0  0  0  0  0  0  0  0  0  0  0  0
   10.5425  -14.3490    4.0797 C   0  0  0  0  0  0  0  0  0  0  0  0
   10.6709  -13.1961    3.3110 C   0  0  0  0  0  0  0  0  0  0  0  0
   10.5539  -11.9346    3.7653 N   0  0  0  0  0  0  0  0  0  0  0  0
   10.2794  -11.9085    5.0892 C   0  0  0  0  0  0  0  0  0  0  0  0
   10.1535  -12.9432    5.9480 N   0  0  0  0  0  0  0  0  0  0  0  0
   10.2896  -14.1932    5.4575 C   0  0  0  0  0  0  0  0  0  0  0  0
   10.1884  -15.2571    6.3272 N   0  0  0  0  0  0  0  0  0  0  0  0
    7.0324   -8.3878    1.0765 O   0  0  0  0  0  0  0  0  0  0  0  0
   10.6370   -6.1010   -2.7980 O   0  0  0  0  0  0  0  0  0  0  0  0
   15.4962   -7.6166   -6.1855 H   0  0  0  0  0  0  0  0  0  0  0  0
   16.4565   -7.6737   -4.8051 H   0  0  0  0  0  0  0  0  0  0  0  0
   13.4076   -6.4708   -6.3450 H   0  0  0  0  0  0  0  0  0  0  0  0
   11.8412   -4.8647   -5.3060 H   0  0  0  0  0  0  0  0  0  0  0  0
   12.3787   -3.8989   -3.1570 H   0  0  0  0  0  0  0  0  0  0  0  0
   15.6883   -6.4329   -2.6689 H   0  0  0  0  0  0  0  0  0  0  0  0
   15.2016   -2.0723   -0.1663 H   0  0  0  0  0  0  0  0  0  0  0  0
   13.5494   -2.1669    0.9959 H   0  0  0  0  0  0  0  0  0  0  0  0
   11.9917   -6.4962   -0.2245 H   0  0  0  0  0  0  0  0  0  0  0  0
   12.1579   -5.5871   -1.6592 H   0  0  0  0  0  0  0  0  0  0  0  0
   10.8420   -8.9317   -0.3252 H   0  0  0  0  0  0  0  0  0  0  0  0
    9.9561   -9.6786   -1.6943 H   0  0  0  0  0  0  0  0  0  0  0  0
   10.6632  -12.8067   -3.0719 H   0  0  0  0  0  0  0  0  0  0  0  0
    8.5651  -14.1860   -1.6865 H   0  0  0  0  0  0  0  0  0  0  0  0
   10.6104  -15.9037   -4.2627 H   0  0  0  0  0  0  0  0  0  0  0  0
   11.1636  -15.6505    1.2413 H   0  0  0  0  0  0  0  0  0  0  0  0
   10.1469  -10.9239    5.5308 H   0  0  0  0  0  0  0  0  0  0  0  0
    9.9915  -15.0756    7.2986 H   0  0  0  0  0  0  0  0  0  0  0  0
   10.2741  -16.1963    5.9657 H   0  0  0  0  0  0  0  0  0  0  0  0
    6.2216   -7.9075    0.8222 H   0  0  0  0  0  0  0  0  0  0  0  0
   10.2487   -6.6066   -3.5459 H   0  0  0  0  0  0  0  0  0  0  0  0
  1  2  1  0  0  0  0
  1 55  1  0  0  0  0
  1 56  1  0  0  0  0
  2  3  2  0  0  0  0
  2  7  1  0  0  0  0
  3  4  1  0  0  0  0
  3 57  1  0  0  0  0
  4  5  2  0  0  0  0
  4 58  1  0  0  0  0
  5  6  1  0  0  0  0
  5 59  1  0  0  0  0
  6  7  2  0  0  0  0
  7 60  1  0  0  0  0
  8 10  1  0  0  0  0
  8 15  1  0  0  0  0
  8  9  1  1  0  0  0
  8  6  1  0  0  0  0
 10 11  1  0  0  0  0
 11 12  1  1  0  0  0
 11 13  1  0  0  0  0
 11 19  1  0  0  0  0
 13 15  1  0  0  0  0
 13 18  1  0  0  0  0
 13 14  1  6  0  0  0
 15 17  1  0  0  0  0
 15 16  1  6  0  0  0
 17 61  1  0  0  0  0
 18 62  1  0  0  0  0
 19 20  1  0  0  0  0
 19 63  1  0  0  0  0
 19 64  1  0  0  0  0
 21 23  1  1  0  0  0
 21 54  1  0  0  0  0
 21 22  2  0  0  0  0
 21 20  1  0  0  0  0
 24 23  1  1  0  0  0
 24 25  2  0  0  0  0
 24 26  1  0  0  0  0
 24 53  1  0  0  0  0
 26 27  1  0  0  0  0
 27 28  1  0  0  0  0
 27 65  1  0  0  0  0
 27 66  1  0  0  0  0
 28 29  1  6  0  0  0
 28 30  1  0  0  0  0
 28 35  1  0  0  0  0
 30 31  1  0  0  0  0
 31 33  1  0  0  0  0
 31 43  1  0  0  0  0
 31 32  1  6  0  0  0
 33 34  1  1  0  0  0
 33 35  1  0  0  0  0
 33 38  1  0  0  0  0
 35 36  1  6  0  0  0
 35 37  1  0  0  0  0
 37 67  1  0  0  0  0
 38 39  1  0  0  0  0
 39 40  2  0  0  0  0
 39 41  1  0  0  0  0
 39 42  1  0  0  0  0
 41 68  1  0  0  0  0
 42 69  1  0  0  0  0
 43 44  1  0  0  0  0
 43 47  1  0  0  0  0
 44 45  2  0  0  0  0
 44 70  1  0  0  0  0
 45 46  1  0  0  0  0
 46 47  2  0  0  0  0
 46 51  1  0  0  0  0
 47 48  1  0  0  0  0
 48 49  2  0  0  0  0
 49 50  1  0  0  0  0
 49 71  1  0  0  0  0
 50 51  2  0  0  0  0
 51 52  1  0  0  0  0
 52 72  1  0  0  0  0
 52 73  1  0  0  0  0
 53 74  1  0  0  0  0
 54 75  1  0  0  0  0
M  CHG  1   6   1
M  END
$$$$
