3AG
 OpenBabel04121316053D

 37 36  0  0  0  0  0  0  0  0999 V2000
    5.5297    2.1354    4.8443 C   0  0  0  0  0  0  0  0  0  0  0  0
    5.5678    2.7914    3.5386 N   0  0  0  0  0  0  0  0  0  0  0  0
    6.3025    4.0683    3.5840 C   0  0  0  0  0  0  0  0  0  0  0  0
    5.6795    5.0694    4.5602 C   0  0  0  0  0  0  0  0  0  0  0  0
    6.4242    6.3681    4.6288 C   0  0  0  0  0  0  0  0  0  0  0  0
    6.0633    7.3686    5.4599 C   0  0  0  0  0  0  0  0  0  0  0  0
    4.8667    7.2778    6.3661 C   0  0  0  0  0  0  0  0  0  0  0  0
    6.8477    8.6418    5.5009 C   0  0  0  0  0  0  0  0  0  0  0  0
    6.1448    1.8838    2.4815 C   0  0  0  0  0  0  0  0  0  0  0  0
    6.1312    2.4586    1.0309 C   0  0  0  0  0  0  0  0  0  0  0  0
    6.6592    1.6056    0.0005 O   0  0  0  0  0  0  0  0  0  0  0  0
    7.0308    2.4429   -1.4102 P   0  0  2  0  0  0  0  0  0  0  0  0
    6.3052    3.7857   -1.3872 O   0  0  0  0  0  0  0  0  0  0  0  0
    6.7046    1.4210   -2.7019 O   0  0  0  0  0  0  0  0  0  0  0  0
    5.0736    1.0882   -3.1729 P   0  0  0  0  0  0  0  0  0  0  0  0
    4.6103    1.2808   -1.7255 O   0  0  0  0  0  0  0  0  0  0  0  0
    5.2627    2.1319   -4.2929 O   0  5  0  0  0  0  0  0  0  0  0  0
    3.4425    0.7555   -3.6439 O   0  5  0  0  0  0  0  0  0  0  0  0
    8.5590    2.5737   -1.3047 O   0  5  0  0  0  0  0  0  0  0  0  0
    4.9916    2.7392    5.5870 H   0  0  0  0  0  0  0  0  0  0  0  0
    6.5323    1.9396    5.2395 H   0  0  0  0  0  0  0  0  0  0  0  0
    4.9707    1.1965    4.8023 H   0  0  0  0  0  0  0  0  0  0  0  0
    6.2806    4.5568    2.6052 H   0  0  0  0  0  0  0  0  0  0  0  0
    7.3546    3.8982    3.8461 H   0  0  0  0  0  0  0  0  0  0  0  0
    5.6842    4.6563    5.5738 H   0  0  0  0  0  0  0  0  0  0  0  0
    4.6410    5.2591    4.2602 H   0  0  0  0  0  0  0  0  0  0  0  0
    7.2854    6.4791    3.9735 H   0  0  0  0  0  0  0  0  0  0  0  0
    4.3319    6.3255    6.2896 H   0  0  0  0  0  0  0  0  0  0  0  0
    4.1447    8.0612    6.1187 H   0  0  0  0  0  0  0  0  0  0  0  0
    5.1723    7.3821    7.4110 H   0  0  0  0  0  0  0  0  0  0  0  0
    7.7009    8.6214    4.8137 H   0  0  0  0  0  0  0  0  0  0  0  0
    7.2391    8.8107    6.5089 H   0  0  0  0  0  0  0  0  0  0  0  0
    6.2122    9.4863    5.2185 H   0  0  0  0  0  0  0  0  0  0  0  0
    5.5750    0.9463    2.4916 H   0  0  0  0  0  0  0  0  0  0  0  0
    7.1725    1.6188    2.7644 H   0  0  0  0  0  0  0  0  0  0  0  0
    6.7507    3.3577    1.0344 H   0  0  0  0  0  0  0  0  0  0  0  0
    5.1001    2.7272    0.7801 H   0  0  0  0  0  0  0  0  0  0  0  0
  1  2  1  0  0  0  0
  1 20  1  0  0  0  0
  1 21  1  0  0  0  0
  1 22  1  0  0  0  0
  2  3  1  0  0  0  0
  2  9  1  0  0  0  0
  3  4  1  0  0  0  0
  3 23  1  0  0  0  0
  3 24  1  0  0  0  0
  4  5  1  0  0  0  0
  4 25  1  0  0  0  0
  4 26  1  0  0  0  0
  5  6  2  0  0  0  0
  5 27  1  0  0  0  0
  6  7  1  0  0  0  0
  6  8  1  0  0  0  0
  7 28  1  0  0  0  0
  7 29  1  0  0  0  0
  7 30  1  0  0  0  0
  8 31  1  0  0  0  0
  8 32  1  0  0  0  0
  8 33  1  0  0  0  0
  9 10  1  0  0  0  0
  9 34  1  0  0  0  0
  9 35  1  0  0  0  0
 10 11  1  0  0  0  0
 10 36  1  0  0  0  0
 10 37  1  0  0  0  0
 12 14  1  6  0  0  0
 12 19  1  0  0  0  0
 12 13  2  0  0  0  0
 12 11  1  0  0  0  0
 14 15  1  0  0  0  0
 15 16  2  0  0  0  0
 15 17  1  0  0  0  0
 15 18  1  0  0  0  0
M  CHG  3  17  -1  18  -1  19  -1
M  END
$$$$
