3AL
 OpenBabel04121316053D

 17 17  0  0  1  0  0  0  0  0999 V2000
    1.0950    0.0857    0.0411 N   0  0  0  0  0  0  0  0  0  0  0  0
    2.4369    0.0876    0.1764 C   0  0  0  0  0  0  0  0  0  0  0  0
    2.9650   -0.2525    1.2237 O   0  0  0  0  0  0  0  0  0  0  0  0
    3.1038    0.4755   -0.9368 N   0  0  0  0  0  0  0  0  0  0  0  0
    4.5270    0.4263   -0.9753 C   0  0  1  0  0  0  0  0  0  0  0  0
    4.8242    0.4922   -2.0298 H   0  0  0  0  0  0  0  0  0  0  0  0
    5.2169    1.4695   -0.2976 N   0  0  0  0  0  0  0  0  0  0  0  0
    6.3973    0.9967    0.2249 C   0  0  0  0  0  0  0  0  0  0  0  0
    7.3326    1.6955    0.5914 O   0  0  0  0  0  0  0  0  0  0  0  0
    6.3552   -0.3567    0.2495 N   0  0  0  0  0  0  0  0  0  0  0  0
    5.2396   -0.8160   -0.3929 C   0  0  0  0  0  0  0  0  0  0  0  0
    4.9316   -1.9834   -0.5469 O   0  0  0  0  0  0  0  0  0  0  0  0
    0.5728   -0.2555    0.8373 H   0  0  0  0  0  0  0  0  0  0  0  0
    0.6001    0.3278   -0.8004 H   0  0  0  0  0  0  0  0  0  0  0  0
    2.5990    0.6912   -1.7804 H   0  0  0  0  0  0  0  0  0  0  0  0
    4.9075    2.4206   -0.1661 H   0  0  0  0  0  0  0  0  0  0  0  0
    7.0211   -0.9396    0.7241 H   0  0  0  0  0  0  0  0  0  0  0  0
  1  2  1  0  0  0  0
  1 13  1  0  0  0  0
  1 14  1  0  0  0  0
  2  3  2  0  0  0  0
  2  4  1  0  0  0  0
  4  5  1  0  0  0  0
  4 15  1  0  0  0  0
  5  6  1  6  0  0  0
  5  7  1  0  0  0  0
  5 11  1  0  0  0  0
  7  8  1  0  0  0  0
  7 16  1  0  0  0  0
  8  9  2  0  0  0  0
  8 10  1  0  0  0  0
 10 11  1  0  0  0  0
 10 17  1  0  0  0  0
 11 12  2  0  0  0  0
M  END
$$$$
