3AM
 OpenBabel04121316053D

 37 39  0  0  1  0  0  0  0  0999 V2000
    1.0849   -0.0858   -0.1226 O   0  0  0  0  0  0  0  0  0  0  0  0
    2.5065    0.0691   -0.1094 C   0  0  0  0  0  0  0  0  0  0  0  0
    3.0260    0.0740   -1.5666 C   0  0  1  0  0  0  0  0  0  0  0  0
    2.1831    0.2091   -2.2571 H   0  0  0  0  0  0  0  0  0  0  0  0
    3.9819    1.1366   -1.7748 O   0  0  0  0  0  0  0  0  0  0  0  0
    4.7757    0.7338   -2.9128 C   0  0  2  0  0  0  0  0  0  0  0  0
    4.2655    1.0860   -3.8209 H   0  0  0  0  0  0  0  0  0  0  0  0
    4.8394   -0.7899   -2.9272 C   0  0  1  0  0  0  0  0  0  0  0  0
    5.7169   -1.2843   -2.5377 H   0  0  0  0  0  0  0  0  0  0  0  0
    3.8007   -1.1863   -1.9235 C   0  0  2  0  0  0  0  0  0  0  0  0
    4.3504   -1.5049   -1.0272 H   0  0  0  0  0  0  0  0  0  0  0  0
    3.0798   -2.2642   -2.4473 O   0  0  0  0  0  0  0  0  0  0  0  0
    1.8073   -2.7905   -1.4001 P   0  0  0  0  0  0  0  0  0  0  0  0
    1.6736   -4.1033   -2.1600 O   0  0  0  0  0  0  0  0  0  0  0  0
    2.8955   -3.0176   -0.2067 O   0  0  0  0  0  0  0  0  0  0  0  0
    0.5348   -3.3169   -0.3529 O   0  0  0  0  0  0  0  0  0  0  0  0
    4.7407   -1.3137   -4.2459 O   0  0  0  0  0  0  0  0  0  0  0  0
    6.0822    1.3601   -2.8622 N   0  0  0  0  0  0  0  0  0  0  0  0
    6.4586    2.5136   -3.4984 C   0  0  0  0  0  0  0  0  0  0  0  0
    7.7723    2.6634   -3.4938 N   0  0  0  0  0  0  0  0  0  0  0  0
    8.2642    1.5586   -2.8285 C   0  0  0  0  0  0  0  0  0  0  0  0
    7.2178    0.7695   -2.3751 C   0  0  0  0  0  0  0  0  0  0  0  0
    7.3179   -0.3697   -1.6895 N   0  0  0  0  0  0  0  0  0  0  0  0
    8.5786   -0.7906   -1.5590 C   0  0  0  0  0  0  0  0  0  0  0  0
    9.6847   -0.1294   -1.9296 N   0  0  0  0  0  0  0  0  0  0  0  0
    9.5476    1.0726   -2.5365 C   0  0  0  0  0  0  0  0  0  0  0  0
   10.7064    1.7375   -2.8767 N   0  0  0  0  0  0  0  0  0  0  0  0
    0.7908   -0.0857    0.8101 H   0  0  0  0  0  0  0  0  0  0  0  0
    2.9003   -0.7642    0.4789 H   0  0  0  0  0  0  0  0  0  0  0  0
    2.7625    0.9848    0.4302 H   0  0  0  0  0  0  0  0  0  0  0  0
    3.5617   -3.6739   -0.4755 H   0  0  0  0  0  0  0  0  0  0  0  0
   -0.1932   -3.6130   -0.9299 H   0  0  0  0  0  0  0  0  0  0  0  0
    5.6476   -1.2771   -4.6087 H   0  0  0  0  0  0  0  0  0  0  0  0
    5.7533    3.1917   -3.9632 H   0  0  0  0  0  0  0  0  0  0  0  0
    8.7058   -1.7775   -1.1300 H   0  0  0  0  0  0  0  0  0  0  0  0
   11.5566    1.3738   -2.4745 H   0  0  0  0  0  0  0  0  0  0  0  0
   10.6284    2.6885   -3.1999 H   0  0  0  0  0  0  0  0  0  0  0  0
  1  2  1  0  0  0  0
  1 28  1  0  0  0  0
  2  3  1  0  0  0  0
  2 29  1  0  0  0  0
  2 30  1  0  0  0  0
  3  4  1  6  0  0  0
  3  5  1  0  0  0  0
  3 10  1  0  0  0  0
  5  6  1  0  0  0  0
  6  8  1  0  0  0  0
  6 18  1  0  0  0  0
  6  7  1  6  0  0  0
  8  9  1  1  0  0  0
  8 10  1  0  0  0  0
  8 17  1  0  0  0  0
 10 11  1  1  0  0  0
 10 12  1  0  0  0  0
 12 13  1  0  0  0  0
 13 14  2  0  0  0  0
 13 15  1  0  0  0  0
 13 16  1  0  0  0  0
 15 31  1  0  0  0  0
 16 32  1  0  0  0  0
 17 33  1  0  0  0  0
 18 19  1  0  0  0  0
 18 22  1  0  0  0  0
 19 20  2  0  0  0  0
 19 34  1  0  0  0  0
 20 21  1  0  0  0  0
 21 22  2  0  0  0  0
 21 26  1  0  0  0  0
 22 23  1  0  0  0  0
 23 24  2  0  0  0  0
 24 25  1  0  0  0  0
 24 35  1  0  0  0  0
 25 26  2  0  0  0  0
 26 27  1  0  0  0  0
 27 36  1  0  0  0  0
 27 37  1  0  0  0  0
M  END
$$$$
