3AR
 OpenBabel04121316053D

 36 35  0  0  1  0  0  0  0  0999 V2000
    0.9296    0.0482    0.0901 C   0  0  0  0  0  0  0  0  0  0  0  0
    2.4475    0.0437    0.0860 C   0  0  0  0  0  0  0  0  0  0  0  0
    2.9593   -0.9722   -0.9169 C   0  0  0  0  0  0  0  0  0  0  0  0
    4.4207   -1.0093   -0.9553 N   0  0  0  0  0  0  0  0  0  0  0  0
    5.0788   -1.8403   -1.7878 C   0  0  0  0  0  0  0  0  0  0  0  0
    4.4039   -2.6689   -2.6008 N   0  3  0  0  0  0  0  0  0  0  0  0
    4.8770   -3.3073   -3.2234 H   0  0  0  0  0  0  0  0  0  0  0  0
    3.3957   -2.6955   -2.6152 H   0  0  0  0  0  0  0  0  0  0  0  0
    6.4246   -1.8382   -1.8091 N   0  0  0  0  0  0  0  0  0  0  0  0
    7.1699   -2.7235   -2.7069 C   0  0  0  0  0  0  0  0  0  0  0  0
    8.6486   -2.5438   -2.4903 C   0  0  0  0  0  0  0  0  0  0  0  0
    9.4804   -3.4711   -3.3665 C   0  0  0  0  0  0  0  0  0  0  0  0
   10.9873   -3.2707   -3.1535 C   0  0  1  0  0  0  0  0  0  0  0  0
   11.2733   -2.2316   -3.3511 H   0  0  0  0  0  0  0  0  0  0  0  0
   11.4444   -3.6472   -1.7162 C   0  0  0  0  0  0  0  0  0  0  0  0
   12.1337   -4.6262   -1.4425 O   0  0  0  0  0  0  0  0  0  0  0  0
   10.9961   -2.8351   -0.7305 O   0  0  0  0  0  0  0  0  0  0  0  0
   11.6998   -4.1186   -4.1237 N   0  0  0  0  0  0  0  0  0  0  0  0
    0.5519    0.7776    0.8107 H   0  0  0  0  0  0  0  0  0  0  0  0
    0.5393   -0.9388    0.3605 H   0  0  0  0  0  0  0  0  0  0  0  0
    0.5395    0.3070   -0.9001 H   0  0  0  0  0  0  0  0  0  0  0  0
    2.8256   -0.1986    1.0854 H   0  0  0  0  0  0  0  0  0  0  0  0
    2.8257    1.0400   -0.1687 H   0  0  0  0  0  0  0  0  0  0  0  0
    2.6025   -0.7107   -1.9193 H   0  0  0  0  0  0  0  0  0  0  0  0
    2.6029   -1.9715   -0.6435 H   0  0  0  0  0  0  0  0  0  0  0  0
    4.9513   -0.3965   -0.3469 H   0  0  0  0  0  0  0  0  0  0  0  0
    6.9121   -1.2195   -1.1704 H   0  0  0  0  0  0  0  0  0  0  0  0
    6.9040   -2.4875   -3.7410 H   0  0  0  0  0  0  0  0  0  0  0  0
    6.9019   -3.7578   -2.4638 H   0  0  0  0  0  0  0  0  0  0  0  0
    8.8026   -2.7746   -1.4356 H   0  0  0  0  0  0  0  0  0  0  0  0
    8.9351   -1.4986   -2.6574 H   0  0  0  0  0  0  0  0  0  0  0  0
    9.2243   -3.2810   -4.4191 H   0  0  0  0  0  0  0  0  0  0  0  0
    9.2015   -4.5123   -3.1587 H   0  0  0  0  0  0  0  0  0  0  0  0
   10.5505   -2.0190   -1.0122 H   0  0  0  0  0  0  0  0  0  0  0  0
   11.3890   -3.9784   -5.0806 H   0  0  0  0  0  0  0  0  0  0  0  0
   11.5509   -5.1044   -3.8898 H   0  0  0  0  0  0  0  0  0  0  0  0
  1  2  1  0  0  0  0
  1 19  1  0  0  0  0
  1 20  1  0  0  0  0
  1 21  1  0  0  0  0
  2  3  1  0  0  0  0
  2 22  1  0  0  0  0
  2 23  1  0  0  0  0
  3  4  1  0  0  0  0
  3 24  1  0  0  0  0
  3 25  1  0  0  0  0
  4  5  1  0  0  0  0
  4 26  1  0  0  0  0
  5  6  2  0  0  0  0
  5  9  1  0  0  0  0
  6  7  1  0  0  0  0
  6  8  1  0  0  0  0
  9 10  1  0  0  0  0
  9 27  1  0  0  0  0
 10 11  1  0  0  0  0
 10 28  1  0  0  0  0
 10 29  1  0  0  0  0
 11 12  1  0  0  0  0
 11 30  1  0  0  0  0
 11 31  1  0  0  0  0
 12 13  1  0  0  0  0
 12 32  1  0  0  0  0
 12 33  1  0  0  0  0
 13 14  1  6  0  0  0
 13 15  1  0  0  0  0
 13 18  1  0  0  0  0
 15 16  2  0  0  0  0
 15 17  1  0  0  0  0
 17 34  1  0  0  0  0
 18 35  1  0  0  0  0
 18 36  1  0  0  0  0
M  CHG  1   6   1
M  END
$$$$
