3AS
 OpenBabel04121316053D

 46 49  0  0  1  0  0  0  0  0999 V2000
    1.0662   -0.0358    0.0078 C   0  0  0  0  0  0  0  0  0  0  0  0
    2.4875   -0.0087   -0.0092 O   0  0  0  0  0  0  0  0  0  0  0  0
    3.0335   -1.2858   -0.3587 C   0  0  0  0  0  0  0  0  0  0  0  0
    4.5470   -1.2581   -0.3094 C   0  0  0  0  0  0  0  0  0  0  0  0
    5.2315   -0.0664   -0.5395 C   0  0  0  0  0  0  0  0  0  0  0  0
    6.6200   -0.0602   -0.5177 C   0  0  0  0  0  0  0  0  0  0  0  0
    7.3149    1.0909   -0.7410 O   0  0  0  0  0  0  0  0  0  0  0  0
    7.3494   -1.2265   -0.2887 C   0  0  0  0  0  0  0  0  0  0  0  0
    6.6932   -2.4466   -0.1076 C   0  0  0  0  0  0  0  0  0  0  0  0
    5.3092   -2.4258   -0.0990 C   0  0  0  0  0  0  0  0  0  0  0  0
    4.6446   -3.5871   -0.0206 O   0  0  0  0  0  0  0  0  0  0  0  0
    5.1908   -4.7321    0.6895 C   0  0  1  0  0  0  0  0  0  0  0  0
    5.3824   -4.4494    1.7346 H   0  0  0  0  0  0  0  0  0  0  0  0
    3.9759   -5.6678    0.6808 C   0  0  0  0  0  0  0  0  0  0  0  0
    3.8475   -7.0576    0.8087 C   0  0  0  0  0  0  0  0  0  0  0  0
    2.5632   -7.6528    0.6267 C   0  0  0  0  0  0  0  0  0  0  0  0
    1.4278   -6.8749    0.3714 C   0  0  0  0  0  0  0  0  0  0  0  0
    1.5229   -5.5091    0.3735 C   0  0  0  0  0  0  0  0  0  0  0  0
    2.7575   -4.9667    0.5566 C   0  0  0  0  0  0  0  0  0  0  0  0
    0.1797   -7.3404    0.1279 O   0  0  0  0  0  0  0  0  0  0  0  0
    6.5007   -5.0441   -0.0256 C   0  0  2  0  0  0  0  0  0  0  0  0
    7.0251   -5.8974    0.4268 H   0  0  0  0  0  0  0  0  0  0  0  0
    7.4204   -3.7724    0.0143 C   0  0  1  0  0  0  0  0  0  0  0  0
    7.9637   -3.7449    0.9682 H   0  0  0  0  0  0  0  0  0  0  0  0
    8.3676   -3.9715   -1.1689 C   0  0  0  0  0  0  0  0  0  0  0  0
    7.6210   -4.8543   -2.1529 C   0  0  0  0  0  0  0  0  0  0  0  0
    6.3174   -5.3004   -1.5273 C   0  0  0  0  0  0  0  0  0  0  0  0
    8.3841   -5.9312   -2.4533 F   0  0  0  0  0  0  0  0  0  0  0  0
    7.3848   -4.1978   -3.3101 F   0  0  0  0  0  0  0  0  0  0  0  0
    0.7116    0.9543    0.3055 H   0  0  0  0  0  0  0  0  0  0  0  0
    0.6955   -0.7694    0.7314 H   0  0  0  0  0  0  0  0  0  0  0  0
    0.6798   -0.2626   -0.9900 H   0  0  0  0  0  0  0  0  0  0  0  0
    2.6962   -1.5697   -1.3635 H   0  0  0  0  0  0  0  0  0  0  0  0
    2.6448   -1.9922    0.3725 H   0  0  0  0  0  0  0  0  0  0  0  0
    4.6666    0.8411   -0.7327 H   0  0  0  0  0  0  0  0  0  0  0  0
    6.6724    1.8096   -0.8666 H   0  0  0  0  0  0  0  0  0  0  0  0
    8.4334   -1.1725   -0.3024 H   0  0  0  0  0  0  0  0  0  0  0  0
    4.6853   -7.7079    1.0551 H   0  0  0  0  0  0  0  0  0  0  0  0
    2.4531   -8.7351    0.6887 H   0  0  0  0  0  0  0  0  0  0  0  0
    0.6835   -4.8476    0.2202 H   0  0  0  0  0  0  0  0  0  0  0  0
    2.7459   -3.8885    0.5505 H   0  0  0  0  0  0  0  0  0  0  0  0
    0.2085   -8.3040    0.0383 H   0  0  0  0  0  0  0  0  0  0  0  0
    9.2764   -4.4717   -0.8216 H   0  0  0  0  0  0  0  0  0  0  0  0
    8.6690   -3.0358   -1.6499 H   0  0  0  0  0  0  0  0  0  0  0  0
    6.1057   -6.3561   -1.7231 H   0  0  0  0  0  0  0  0  0  0  0  0
    5.4889   -4.7242   -1.9537 H   0  0  0  0  0  0  0  0  0  0  0  0
  1  2  1  0  0  0  0
  1 30  1  0  0  0  0
  1 31  1  0  0  0  0
  1 32  1  0  0  0  0
  2  3  1  0  0  0  0
  3  4  1  0  0  0  0
  3 33  1  0  0  0  0
  3 34  1  0  0  0  0
  4  5  2  0  0  0  0
  4 10  1  0  0  0  0
  5  6  1  0  0  0  0
  5 35  1  0  0  0  0
  6  7  1  0  0  0  0
  6  8  2  0  0  0  0
  7 36  1  0  0  0  0
  8  9  1  0  0  0  0
  8 37  1  0  0  0  0
  9 10  2  0  0  0  0
  9 23  1  0  0  0  0
 10 11  1  0  0  0  0
 11 12  1  0  0  0  0
 12 21  1  0  0  0  0
 12 14  1  0  0  0  0
 12 13  1  1  0  0  0
 14 15  2  0  0  0  0
 14 19  1  0  0  0  0
 15 16  1  0  0  0  0
 15 38  1  0  0  0  0
 16 17  2  0  0  0  0
 16 39  1  0  0  0  0
 17 18  1  0  0  0  0
 17 20  1  0  0  0  0
 18 19  2  0  0  0  0
 18 40  1  0  0  0  0
 19 41  1  0  0  0  0
 20 42  1  0  0  0  0
 21 22  1  1  0  0  0
 21 23  1  0  0  0  0
 21 27  1  0  0  0  0
 23 24  1  1  0  0  0
 23 25  1  0  0  0  0
 25 26  1  0  0  0  0
 25 43  1  0  0  0  0
 25 44  1  0  0  0  0
 26 27  1  0  0  0  0
 26 28  1  0  0  0  0
 26 29  1  0  0  0  0
 27 45  1  0  0  0  0
 27 46  1  0  0  0  0
M  END
$$$$
