3AT
 OpenBabel04121316053D

 46 48  0  0  1  0  0  0  0  0999 V2000
    2.7075    0.1727   -1.4048 O   0  0  0  0  0  0  0  0  0  0  0  0
    2.1749    0.0679   -0.0741 C   0  0  2  0  0  0  0  0  0  0  0  0
    1.0910    0.0472   -0.1434 H   0  0  0  0  0  0  0  0  0  0  0  0
    2.6438    1.2758    0.7182 C   0  0  0  0  0  0  0  0  0  0  0  0
    4.0593    0.9346    1.0034 C   0  0  2  0  0  0  0  0  0  0  0  0
    4.7489    1.0627    0.1566 H   0  0  0  0  0  0  0  0  0  0  0  0
    3.9753   -0.4805    1.1856 O   0  0  0  0  0  0  0  0  0  0  0  0
    2.8020   -1.1269    0.6585 C   0  0  1  0  0  0  0  0  0  0  0  0
    3.1353   -1.9212   -0.0263 H   0  0  0  0  0  0  0  0  0  0  0  0
    1.9306   -1.8201    1.6312 N   0  0  0  0  0  0  0  0  0  0  0  0
    0.6350   -2.1667    1.2725 C   0  0  0  0  0  0  0  0  0  0  0  0
   -0.0687   -2.6622    2.2518 N   0  0  0  0  0  0  0  0  0  0  0  0
    0.8393   -2.8136    3.2788 C   0  0  0  0  0  0  0  0  0  0  0  0
    2.1031   -2.4315    2.8587 C   0  0  0  0  0  0  0  0  0  0  0  0
    3.2209   -2.6647    3.5787 N   0  0  0  0  0  0  0  0  0  0  0  0
    2.9363   -3.0624    4.8453 C   0  0  0  0  0  0  0  0  0  0  0  0
    1.7610   -3.4117    5.3828 N   0  0  0  0  0  0  0  0  0  0  0  0
    0.6842   -3.3322    4.5820 C   0  0  0  0  0  0  0  0  0  0  0  0
   -0.5020   -3.7948    5.0944 N   0  0  0  0  0  0  0  0  0  0  0  0
    4.6285    1.8099    2.1705 C   0  0  0  0  0  0  0  0  0  0  0  0
    3.8950    1.6205    3.4398 O   0  0  0  0  0  0  0  0  0  0  0  0
    4.5185    2.4225    4.8401 P   0  0  1  0  0  0  0  0  0  0  0  0
    3.1599    2.3727    5.5000 O   0  0  0  0  0  0  0  0  0  0  0  0
    5.6695    1.1493    5.0569 O   0  0  0  0  0  0  0  0  0  0  0  0
    5.4652   -0.0314    3.8090 P   0  0  1  0  0  0  0  0  0  0  0  0
    6.7576   -0.7190    4.2457 O   0  0  0  0  0  0  0  0  0  0  0  0
    4.1392   -0.7220    4.6794 O   0  0  0  0  0  0  0  0  0  0  0  0
    3.8898    0.1609    6.1461 P   0  0  0  0  0  0  0  0  0  0  0  0
    2.4534   -0.3464    6.2600 O   0  0  0  0  0  0  0  0  0  0  0  0
    4.7987   -0.9567    6.9221 O   0  0  0  0  0  0  0  0  0  0  0  0
    3.6403    1.0438    7.6128 O   0  0  0  0  0  0  0  0  0  0  0  0
    5.2610   -1.2120    2.5611 O   0  0  0  0  0  0  0  0  0  0  0  0
    5.1421    3.2246    6.2403 O   0  0  0  0  0  0  0  0  0  0  0  0
    3.6685    0.0047   -1.3787 H   0  0  0  0  0  0  0  0  0  0  0  0
    2.1032    1.3248    1.6689 H   0  0  0  0  0  0  0  0  0  0  0  0
    2.6131    2.2331    0.2030 H   0  0  0  0  0  0  0  0  0  0  0  0
    0.2608   -2.0128    0.2646 H   0  0  0  0  0  0  0  0  0  0  0  0
    3.7648   -3.0308    5.5582 H   0  0  0  0  0  0  0  0  0  0  0  0
   -0.5056   -4.0795    6.0599 H   0  0  0  0  0  0  0  0  0  0  0  0
   -1.3243   -3.7912    4.5088 H   0  0  0  0  0  0  0  0  0  0  0  0
    5.6953    1.5558    2.2894 H   0  0  0  0  0  0  0  0  0  0  0  0
    4.6659    2.8706    1.9216 H   0  0  0  0  0  0  0  0  0  0  0  0
    5.6208   -1.1491    6.4255 H   0  0  0  0  0  0  0  0  0  0  0  0
    2.6726    1.1927    7.5936 H   0  0  0  0  0  0  0  0  0  0  0  0
    5.8257   -1.0669    1.7902 H   0  0  0  0  0  0  0  0  0  0  0  0
    4.4522    3.8199    6.5972 H   0  0  0  0  0  0  0  0  0  0  0  0
  1 34  1  0  0  0  0
  2  4  1  0  0  0  0
  2  8  1  0  0  0  0
  2  3  1  6  0  0  0
  2  1  1  0  0  0  0
  4  5  1  0  0  0  0
  4 35  1  0  0  0  0
  4 36  1  0  0  0  0
  5  7  1  0  0  0  0
  5 20  1  0  0  0  0
  5  6  1  6  0  0  0
  7  8  1  0  0  0  0
  8 10  1  0  0  0  0
  8  9  1  6  0  0  0
 10 11  1  0  0  0  0
 10 14  1  0  0  0  0
 11 12  2  0  0  0  0
 11 37  1  0  0  0  0
 12 13  1  0  0  0  0
 13 14  2  0  0  0  0
 13 18  1  0  0  0  0
 14 15  1  0  0  0  0
 15 16  2  0  0  0  0
 16 17  1  0  0  0  0
 16 38  1  0  0  0  0
 17 18  2  0  0  0  0
 18 19  1  0  0  0  0
 19 39  1  0  0  0  0
 19 40  1  0  0  0  0
 20 21  1  0  0  0  0
 20 41  1  0  0  0  0
 20 42  1  0  0  0  0
 22 21  1  6  0  0  0
 22 23  2  0  0  0  0
 22 24  1  0  0  0  0
 22 33  1  0  0  0  0
 25 24  1  6  0  0  0
 25 26  2  0  0  0  0
 25 27  1  0  0  0  0
 25 32  1  0  0  0  0
 27 28  1  0  0  0  0
 28 29  2  0  0  0  0
 28 30  1  0  0  0  0
 28 31  1  0  0  0  0
 30 43  1  0  0  0  0
 31 44  1  0  0  0  0
 32 45  1  0  0  0  0
 33 46  1  0  0  0  0
M  END
$$$$
