3AW
 OpenBabel04121316053D

 16 16  0  0  0  0  0  0  0  0999 V2000
    1.0331    0.0153    0.0848 C   0  0  0  0  0  0  0  0  0  0  0  0
    2.5311    0.0328    0.0853 C   0  0  0  0  0  0  0  0  0  0  0  0
    3.1295    1.2229    0.0842 N   0  0  0  0  0  0  0  0  0  0  0  0
    4.4524    1.1842    0.0863 C   0  0  0  0  0  0  0  0  0  0  0  0
    5.1101    2.3814    0.0870 N   0  0  0  0  0  0  0  0  0  0  0  0
    5.1818    0.0801    0.0888 N   0  0  0  0  0  0  0  0  0  0  0  0
    4.4930   -1.0516    0.0892 C   0  0  0  0  0  0  0  0  0  0  0  0
    3.1697   -1.1377    0.0874 N   0  0  0  0  0  0  0  0  0  0  0  0
    5.2064   -2.2168    0.0913 N   0  0  0  0  0  0  0  0  0  0  0  0
    0.6308    1.0338    0.0860 H   0  0  0  0  0  0  0  0  0  0  0  0
    0.6603   -0.5003    0.9748 H   0  0  0  0  0  0  0  0  0  0  0  0
    0.6608   -0.4981   -0.8066 H   0  0  0  0  0  0  0  0  0  0  0  0
    4.5601    3.2221    0.0766 H   0  0  0  0  0  0  0  0  0  0  0  0
    6.1145    2.3741    0.0799 H   0  0  0  0  0  0  0  0  0  0  0  0
    6.2097   -2.1546    0.0977 H   0  0  0  0  0  0  0  0  0  0  0  0
    4.7068   -3.0883    0.0939 H   0  0  0  0  0  0  0  0  0  0  0  0
  1  2  1  0  0  0  0
  1 10  1  0  0  0  0
  1 11  1  0  0  0  0
  1 12  1  0  0  0  0
  2  3  2  0  0  0  0
  2  8  1  0  0  0  0
  3  4  1  0  0  0  0
  4  5  1  0  0  0  0
  4  6  2  0  0  0  0
  5 13  1  0  0  0  0
  5 14  1  0  0  0  0
  6  7  1  0  0  0  0
  7  8  2  0  0  0  0
  7  9  1  0  0  0  0
  9 15  1  0  0  0  0
  9 16  1  0  0  0  0
M  END
$$$$
