3B3
 OpenBabel04121316053D

 33 34  0  0  1  0  0  0  0  0999 V2000
    1.0376   -0.0450    0.0610 N   0  0  0  0  0  0  0  0  0  0  0  0
    2.5011   -0.0466   -0.0341 C   0  0  0  0  0  0  0  0  0  0  0  0
    3.0446   -0.9426   -1.1712 C   0  0  1  0  0  0  0  0  0  0  0  0
    2.7249   -1.9802   -1.0090 H   0  0  0  0  0  0  0  0  0  0  0  0
    2.5449   -0.4631   -2.5448 C   0  0  0  0  0  0  0  0  0  0  0  0
    1.1050   -0.6375   -2.6326 N   0  0  0  0  0  0  0  0  0  0  0  0
    0.4269   -0.0837   -3.7228 C   0  0  0  0  0  0  0  0  0  0  0  0
    0.4730    1.2897   -3.9883 C   0  0  0  0  0  0  0  0  0  0  0  0
   -0.1698    1.8015   -5.1074 C   0  0  0  0  0  0  0  0  0  0  0  0
   -0.8923    0.9447   -5.9520 C   0  0  0  0  0  0  0  0  0  0  0  0
   -0.9800   -0.4548   -5.6726 C   0  0  0  0  0  0  0  0  0  0  0  0
   -0.3408   -0.9510   -4.5165 C   0  0  0  0  0  0  0  0  0  0  0  0
   -0.3622   -2.2627   -4.1811 N   0  0  0  0  0  0  0  0  0  0  0  0
   -0.8235   -3.1568   -5.0631 C   0  0  0  0  0  0  0  0  0  0  0  0
   -1.3643   -2.7915   -6.2643 C   0  0  0  0  0  0  0  0  0  0  0  0
   -1.5756   -1.4410   -6.4881 C   0  0  0  0  0  0  0  0  0  0  0  0
   -1.4604    1.5461   -7.1801 N   0  3  0  0  0  0  0  0  0  0  0  0
   -2.0614    0.8441   -7.9897 O   0  0  0  0  0  0  0  0  0  0  0  0
   -1.2895    2.7701   -7.3415 O   0  5  0  0  0  0  0  0  0  0  0  0
    4.4762   -0.9235   -1.1592 O   0  0  0  0  0  0  0  0  0  0  0  0
    0.7301    0.5763    0.8068 H   0  0  0  0  0  0  0  0  0  0  0  0
    0.7018   -0.9820    0.2895 H   0  0  0  0  0  0  0  0  0  0  0  0
    2.9223   -0.3773    0.9214 H   0  0  0  0  0  0  0  0  0  0  0  0
    2.8581    0.9794   -0.1867 H   0  0  0  0  0  0  0  0  0  0  0  0
    3.0141   -1.0703   -3.3286 H   0  0  0  0  0  0  0  0  0  0  0  0
    2.8709    0.5705   -2.7149 H   0  0  0  0  0  0  0  0  0  0  0  0
    0.6067   -0.5235   -1.7458 H   0  0  0  0  0  0  0  0  0  0  0  0
    1.0346    1.9616   -3.3432 H   0  0  0  0  0  0  0  0  0  0  0  0
   -0.0624    2.8624   -5.3305 H   0  0  0  0  0  0  0  0  0  0  0  0
   -0.7397   -4.1968   -4.7700 H   0  0  0  0  0  0  0  0  0  0  0  0
   -1.6269   -3.5216   -7.0173 H   0  0  0  0  0  0  0  0  0  0  0  0
   -2.1788   -1.1958   -7.3521 H   0  0  0  0  0  0  0  0  0  0  0  0
    4.7651   -1.2966   -0.3093 H   0  0  0  0  0  0  0  0  0  0  0  0
  1  2  1  0  0  0  0
  1 21  1  0  0  0  0
  1 22  1  0  0  0  0
  2  3  1  0  0  0  0
  2 23  1  0  0  0  0
  2 24  1  0  0  0  0
  3  4  1  1  0  0  0
  3  5  1  0  0  0  0
  3 20  1  0  0  0  0
  5  6  1  0  0  0  0
  5 25  1  0  0  0  0
  5 26  1  0  0  0  0
  6  7  1  0  0  0  0
  6 27  1  0  0  0  0
  7  8  2  0  0  0  0
  7 12  1  0  0  0  0
  8  9  1  0  0  0  0
  8 28  1  0  0  0  0
  9 10  2  0  0  0  0
  9 29  1  0  0  0  0
 10 11  1  0  0  0  0
 10 17  1  0  0  0  0
 11 12  2  0  0  0  0
 11 16  1  0  0  0  0
 12 13  1  0  0  0  0
 13 14  2  0  0  0  0
 14 15  1  0  0  0  0
 14 30  1  0  0  0  0
 15 16  2  0  0  0  0
 15 31  1  0  0  0  0
 16 32  1  0  0  0  0
 17 18  2  0  0  0  0
 17 19  1  0  0  0  0
 20 33  1  0  0  0  0
M  CHG  2  17   1  19  -1
M  END
$$$$
