3BS
 OpenBabel04121316053D

 51 52  0  0  0  0  0  0  0  0999 V2000
    0.6453    0.3957    1.0014 S   0  0  0  0  0  0  0  0  0  0  0  0
    2.2336   -0.0503    0.7324 C   0  0  0  0  0  0  0  0  0  0  0  0
    2.6511   -1.3437    0.5434 N   0  0  0  0  0  0  0  0  0  0  0  0
    2.0430   -2.4837   -0.1042 C   0  0  0  0  0  0  0  0  0  0  0  0
    2.7735   -3.6855    0.0817 C   0  0  0  0  0  0  0  0  0  0  0  0
    2.4315   -4.8598   -0.5884 C   0  0  0  0  0  0  0  0  0  0  0  0
    1.3370   -4.8459   -1.4457 C   0  0  0  0  0  0  0  0  0  0  0  0
    0.6417   -3.6726   -1.7030 C   0  0  0  0  0  0  0  0  0  0  0  0
    1.0183   -2.4822   -1.0957 C   0  0  0  0  0  0  0  0  0  0  0  0
    0.3569   -1.1183   -1.9774 Cl  0  0  0  0  0  0  0  0  0  0  0  0
    0.8161   -6.3536   -2.1918 S   0  0  0  0  0  0  0  0  0  0  0  0
    1.8443   -6.7688   -3.0914 O   0  0  0  0  0  0  0  0  0  0  0  0
    0.3038   -7.1755   -1.1020 O   0  0  0  0  0  0  0  0  0  0  0  0
   -0.5065   -5.8875   -3.1082 N   0  0  0  0  0  0  0  0  0  0  0  0
    3.1701    0.9759    0.6964 N   0  0  0  0  0  0  0  0  0  0  0  0
    4.6410    1.1214    0.4189 C   0  0  0  0  0  0  0  0  0  0  0  0
    5.3136   -0.1500   -0.0630 C   0  0  0  0  0  0  0  0  0  0  0  0
    4.8909   -0.5148   -1.5341 C   0  0  0  0  0  0  0  0  0  0  0  0
    3.4589   -0.4958   -1.9709 C   0  0  0  0  0  0  0  0  0  0  0  0
    5.3583   -1.9441   -1.8379 C   0  0  0  0  0  0  0  0  0  0  0  0
    5.3094    0.5643   -2.4475 N   0  0  0  0  0  0  0  0  0  0  0  0
    4.7194    1.9300   -2.0676 C   0  0  0  0  0  0  0  0  0  0  0  0
    5.0551    2.2480   -0.5888 C   0  0  0  0  0  0  0  0  0  0  0  0
    3.1664    2.2468   -2.3035 C   0  0  0  0  0  0  0  0  0  0  0  0
    5.3466    2.9081   -3.0666 C   0  0  0  0  0  0  0  0  0  0  0  0
    6.7604    0.6071   -2.3367 O   0  0  0  0  0  0  0  0  0  0  0  0
    3.6397   -1.4802    0.5637 H   0  0  0  0  0  0  0  0  0  0  0  0
    3.6433   -3.7142    0.7406 H   0  0  0  0  0  0  0  0  0  0  0  0
    2.9923   -5.7779   -0.4177 H   0  0  0  0  0  0  0  0  0  0  0  0
   -0.1887   -3.6374   -2.3987 H   0  0  0  0  0  0  0  0  0  0  0  0
   -0.2647   -5.3440   -3.9360 H   0  0  0  0  0  0  0  0  0  0  0  0
   -1.3199   -5.6060   -2.5654 H   0  0  0  0  0  0  0  0  0  0  0  0
    2.7006    1.8738    0.7734 H   0  0  0  0  0  0  0  0  0  0  0  0
    5.0625    1.4208    1.3910 H   0  0  0  0  0  0  0  0  0  0  0  0
    5.2061   -0.9247    0.7015 H   0  0  0  0  0  0  0  0  0  0  0  0
    6.4063   -0.0130   -0.0301 H   0  0  0  0  0  0  0  0  0  0  0  0
    2.8738   -1.2856   -1.6311 H   0  0  0  0  0  0  0  0  0  0  0  0
    3.2515   -0.4866   -3.0449 H   0  0  0  0  0  0  0  0  0  0  0  0
    2.9864    0.3131   -1.4887 H   0  0  0  0  0  0  0  0  0  0  0  0
    4.9658   -2.6394   -1.0855 H   0  0  0  0  0  0  0  0  0  0  0  0
    6.4411   -2.0497   -1.8184 H   0  0  0  0  0  0  0  0  0  0  0  0
    4.9730   -2.2882   -2.8044 H   0  0  0  0  0  0  0  0  0  0  0  0
    4.6450    3.2204   -0.2978 H   0  0  0  0  0  0  0  0  0  0  0  0
    6.1501    2.3596   -0.5184 H   0  0  0  0  0  0  0  0  0  0  0  0
    2.4351    1.9054   -1.5617 H   0  0  0  0  0  0  0  0  0  0  0  0
    2.8371    1.8601   -3.2760 H   0  0  0  0  0  0  0  0  0  0  0  0
    2.9707    3.3211   -2.2553 H   0  0  0  0  0  0  0  0  0  0  0  0
    6.4354    2.9141   -3.0314 H   0  0  0  0  0  0  0  0  0  0  0  0
    4.9937    3.9255   -2.8762 H   0  0  0  0  0  0  0  0  0  0  0  0
    5.0335    2.6339   -4.0851 H   0  0  0  0  0  0  0  0  0  0  0  0
    7.0163   -0.2502   -2.7316 H   0  0  0  0  0  0  0  0  0  0  0  0
  1  2  2  0  0  0  0
  2  3  1  0  0  0  0
  2 15  1  0  0  0  0
  3  4  1  0  0  0  0
  3 27  1  0  0  0  0
  4  5  2  0  0  0  0
  4  9  1  0  0  0  0
  5  6  1  0  0  0  0
  5 28  1  0  0  0  0
  6  7  2  0  0  0  0
  6 29  1  0  0  0  0
  7  8  1  0  0  0  0
  7 11  1  0  0  0  0
  8  9  2  0  0  0  0
  8 30  1  0  0  0  0
  9 10  1  0  0  0  0
 11 12  2  0  0  0  0
 11 13  2  0  0  0  0
 11 14  1  0  0  0  0
 14 31  1  0  0  0  0
 14 32  1  0  0  0  0
 15 16  1  0  0  0  0
 15 33  1  0  0  0  0
 16 17  1  0  0  0  0
 16 23  1  0  0  0  0
 16 34  1  0  0  0  0
 17 18  1  0  0  0  0
 17 35  1  0  0  0  0
 17 36  1  0  0  0  0
 18 19  1  0  0  0  0
 18 20  1  0  0  0  0
 18 21  1  0  0  0  0
 19 37  1  0  0  0  0
 19 38  1  0  0  0  0
 19 39  1  0  0  0  0
 20 40  1  0  0  0  0
 20 41  1  0  0  0  0
 20 42  1  0  0  0  0
 21 22  1  0  0  0  0
 21 26  1  0  0  0  0
 22 23  1  0  0  0  0
 22 24  1  0  0  0  0
 22 25  1  0  0  0  0
 23 43  1  0  0  0  0
 23 44  1  0  0  0  0
 24 45  1  0  0  0  0
 24 46  1  0  0  0  0
 24 47  1  0  0  0  0
 25 48  1  0  0  0  0
 25 49  1  0  0  0  0
 25 50  1  0  0  0  0
 26 51  1  0  0  0  0
M  END
$$$$
