3BT
 OpenBabel04121316053D

 36 36  0  0  0  0  0  0  0  0999 V2000
    1.0397    0.0425   -0.0815 N   0  0  0  0  0  0  0  0  0  0  0  0
    2.3867    0.0369   -0.0804 C   0  0  0  0  0  0  0  0  0  0  0  0
    3.1041    1.0969   -0.1210 N   0  0  0  0  0  0  0  0  0  0  0  0
    3.0955   -1.5544   -0.0171 S   0  0  0  0  0  0  0  0  0  0  0  0
    4.8661   -1.1553   -0.0222 C   0  0  0  0  0  0  0  0  0  0  0  0
    5.7310   -2.4187    0.0478 C   0  0  0  0  0  0  0  0  0  0  0  0
    7.2252   -2.1515    0.0304 C   0  0  0  0  0  0  0  0  0  0  0  0
    7.7761   -0.8680   -0.0117 C   0  0  0  0  0  0  0  0  0  0  0  0
    9.1530   -0.6826   -0.1073 C   0  0  0  0  0  0  0  0  0  0  0  0
    9.9941   -1.7792   -0.2694 C   0  0  0  0  0  0  0  0  0  0  0  0
    9.4757   -3.0793   -0.2263 C   0  0  0  0  0  0  0  0  0  0  0  0
    8.0988   -3.2451    0.0045 C   0  0  0  0  0  0  0  0  0  0  0  0
   10.4066   -4.2464   -0.4963 C   0  0  0  0  0  0  0  0  0  0  0  0
    9.7170   -5.6114   -0.4185 C   0  0  0  0  0  0  0  0  0  0  0  0
   10.8450   -6.9730   -0.7723 S   0  0  0  0  0  0  0  0  0  0  0  0
    9.8510   -8.3888   -0.6016 C   0  0  0  0  0  0  0  0  0  0  0  0
    8.6051   -8.4007   -0.3037 N   0  0  0  0  0  0  0  0  0  0  0  0
   10.5041   -9.5456   -0.8127 N   0  0  0  0  0  0  0  0  0  0  0  0
    0.4981    0.8909   -0.1142 H   0  0  0  0  0  0  0  0  0  0  0  0
    0.5507   -0.8413   -0.0476 H   0  0  0  0  0  0  0  0  0  0  0  0
    2.4845    1.9103   -0.1533 H   0  0  0  0  0  0  0  0  0  0  0  0
    5.0885   -0.5172    0.8398 H   0  0  0  0  0  0  0  0  0  0  0  0
    5.1012   -0.6024   -0.9394 H   0  0  0  0  0  0  0  0  0  0  0  0
    5.5025   -3.0592   -0.8174 H   0  0  0  0  0  0  0  0  0  0  0  0
    5.4938   -2.9929    0.9529 H   0  0  0  0  0  0  0  0  0  0  0  0
    7.1491    0.0180    0.0149 H   0  0  0  0  0  0  0  0  0  0  0  0
    9.5579    0.3252   -0.0887 H   0  0  0  0  0  0  0  0  0  0  0  0
   11.0545   -1.6094   -0.4421 H   0  0  0  0  0  0  0  0  0  0  0  0
    7.6670   -4.2346    0.1313 H   0  0  0  0  0  0  0  0  0  0  0  0
   11.2386   -4.2004    0.2175 H   0  0  0  0  0  0  0  0  0  0  0  0
   10.8222   -4.1079   -1.5047 H   0  0  0  0  0  0  0  0  0  0  0  0
    8.8965   -5.6465   -1.1452 H   0  0  0  0  0  0  0  0  0  0  0  0
    9.3063   -5.7491    0.5877 H   0  0  0  0  0  0  0  0  0  0  0  0
    8.2397   -7.4606   -0.1725 H   0  0  0  0  0  0  0  0  0  0  0  0
   11.4823   -9.5542   -1.0516 H   0  0  0  0  0  0  0  0  0  0  0  0
    9.9865  -10.4078   -0.7337 H   0  0  0  0  0  0  0  0  0  0  0  0
  1  2  1  0  0  0  0
  1 19  1  0  0  0  0
  1 20  1  0  0  0  0
  2  3  2  0  0  0  0
  2  4  1  0  0  0  0
  3 21  1  0  0  0  0
  4  5  1  0  0  0  0
  5  6  1  0  0  0  0
  5 22  1  0  0  0  0
  5 23  1  0  0  0  0
  6  7  1  0  0  0  0
  6 24  1  0  0  0  0
  6 25  1  0  0  0  0
  7  8  2  0  0  0  0
  7 12  1  0  0  0  0
  8  9  1  0  0  0  0
  8 26  1  0  0  0  0
  9 10  2  0  0  0  0
  9 27  1  0  0  0  0
 10 11  1  0  0  0  0
 10 28  1  0  0  0  0
 11 12  2  0  0  0  0
 11 13  1  0  0  0  0
 12 29  1  0  0  0  0
 13 14  1  0  0  0  0
 13 30  1  0  0  0  0
 13 31  1  0  0  0  0
 14 15  1  0  0  0  0
 14 32  1  0  0  0  0
 14 33  1  0  0  0  0
 15 16  1  0  0  0  0
 16 17  2  0  0  0  0
 16 18  1  0  0  0  0
 17 34  1  0  0  0  0
 18 35  1  0  0  0  0
 18 36  1  0  0  0  0
M  END
$$$$
