3BZ
 OpenBabel04121316053D

 15 15  0  0  0  0  0  0  0  0999 V2000
    0.9358    0.0298    0.0515 Cl  0  0  0  0  0  0  0  0  0  0  0  0
    2.6561    0.0043   -0.0098 C   0  0  0  0  0  0  0  0  0  0  0  0
    3.3637    1.2004   -0.0884 C   0  0  0  0  0  0  0  0  0  0  0  0
    4.7530    1.1712   -0.1715 C   0  0  0  0  0  0  0  0  0  0  0  0
    5.4112   -0.0529   -0.3054 C   0  0  0  0  0  0  0  0  0  0  0  0
    4.6995   -1.2633   -0.2432 C   0  0  0  0  0  0  0  0  0  0  0  0
    3.3198   -1.2237   -0.0134 C   0  0  0  0  0  0  0  0  0  0  0  0
    5.4681   -2.5205   -0.4772 C   0  0  0  0  0  0  0  0  0  0  0  0
    6.6654   -2.5062   -0.7356 O   0  0  0  0  0  0  0  0  0  0  0  0
    4.7744   -3.6726   -0.4265 O   0  0  0  0  0  0  0  0  0  0  0  0
    2.8405    2.1530   -0.0848 H   0  0  0  0  0  0  0  0  0  0  0  0
    5.3226    2.0975   -0.1588 H   0  0  0  0  0  0  0  0  0  0  0  0
    6.4893   -0.0587   -0.4686 H   0  0  0  0  0  0  0  0  0  0  0  0
    2.7275   -2.1150    0.1472 H   0  0  0  0  0  0  0  0  0  0  0  0
    3.8207   -3.6292   -0.2546 H   0  0  0  0  0  0  0  0  0  0  0  0
  1  2  1  0  0  0  0
  2  3  2  0  0  0  0
  2  7  1  0  0  0  0
  3  4  1  0  0  0  0
  3 11  1  0  0  0  0
  4  5  2  0  0  0  0
  4 12  1  0  0  0  0
  5  6  1  0  0  0  0
  5 13  1  0  0  0  0
  6  7  2  0  0  0  0
  6  8  1  0  0  0  0
  7 14  1  0  0  0  0
  8  9  2  0  0  0  0
  8 10  1  0  0  0  0
 10 15  1  0  0  0  0
M  END
$$$$
