3C3
 OpenBabel04121316053D

 35 37  0  0  0  0  0  0  0  0999 V2000
    1.1344   -0.0549    0.0362 C   0  0  0  0  0  0  0  0  0  0  0  0
    2.6697   -0.0799    0.0864 C   0  0  0  0  0  0  0  0  0  0  0  0
    3.3294    0.9715   -0.8203 C   0  0  0  0  0  0  0  0  0  0  0  0
    4.7950    0.9461   -0.9225 N   0  0  0  0  0  0  0  0  0  0  0  0
    5.6464    1.0344    0.1645 N   0  0  0  0  0  0  0  0  0  0  0  0
    6.8758    1.0182   -0.4142 C   0  0  0  0  0  0  0  0  0  0  0  0
    6.8122    0.9626   -1.7826 N   0  0  0  0  0  0  0  0  0  0  0  0
    5.5363    0.9240   -2.0845 C   0  0  0  0  0  0  0  0  0  0  0  0
    4.9653    0.9124   -3.3786 C   0  0  0  0  0  0  0  0  0  0  0  0
    4.6977    2.0395   -4.0699 C   0  0  0  0  0  0  0  0  0  0  0  0
    4.7297    3.3439   -3.6394 N   0  0  0  0  0  0  0  0  0  0  0  0
    4.3918    1.6437   -5.3634 N   0  0  0  0  0  0  0  0  0  0  0  0
    4.2054    0.2548   -5.4033 O   0  0  0  0  0  0  0  0  0  0  0  0
    4.7927   -0.1918   -4.2109 N   0  0  0  0  0  0  0  0  0  0  0  0
    8.2333    1.0035    0.1223 C   0  0  0  0  0  0  0  0  0  0  0  0
    9.0130   -0.0976    0.3312 C   0  0  0  0  0  0  0  0  0  0  0  0
    8.6683   -1.4209    0.2683 N   0  0  0  0  0  0  0  0  0  0  0  0
   10.3151    0.3290    0.5775 N   0  0  0  0  0  0  0  0  0  0  0  0
   10.3224    1.7133    0.7643 O   0  0  0  0  0  0  0  0  0  0  0  0
    9.0827    2.1278    0.2403 N   0  0  0  0  0  0  0  0  0  0  0  0
    0.7208   -0.8112    0.7156 H   0  0  0  0  0  0  0  0  0  0  0  0
    0.7517   -0.2795   -0.9661 H   0  0  0  0  0  0  0  0  0  0  0  0
    0.7305    0.9156    0.3438 H   0  0  0  0  0  0  0  0  0  0  0  0
    3.0000   -1.0814   -0.2109 H   0  0  0  0  0  0  0  0  0  0  0  0
    2.9827    0.0766    1.1230 H   0  0  0  0  0  0  0  0  0  0  0  0
    3.0345    1.9855   -0.5264 H   0  0  0  0  0  0  0  0  0  0  0  0
    2.9284    0.8131   -1.8296 H   0  0  0  0  0  0  0  0  0  0  0  0
    5.3764    3.4687   -2.8592 H   0  0  0  0  0  0  0  0  0  0  0  0
    4.9281    3.9991   -4.3876 H   0  0  0  0  0  0  0  0  0  0  0  0
    3.7750    2.2093   -5.9252 H   0  0  0  0  0  0  0  0  0  0  0  0
    4.3764   -1.0184   -3.8012 H   0  0  0  0  0  0  0  0  0  0  0  0
    7.8886   -1.5722   -0.3685 H   0  0  0  0  0  0  0  0  0  0  0  0
    9.4555   -2.0321    0.0770 H   0  0  0  0  0  0  0  0  0  0  0  0
   10.8664   -0.2124    1.2326 H   0  0  0  0  0  0  0  0  0  0  0  0
    8.6890    2.9364    0.7053 H   0  0  0  0  0  0  0  0  0  0  0  0
  1  2  1  0  0  0  0
  1 21  1  0  0  0  0
  1 22  1  0  0  0  0
  1 23  1  0  0  0  0
  2  3  1  0  0  0  0
  2 24  1  0  0  0  0
  2 25  1  0  0  0  0
  3  4  1  0  0  0  0
  3 26  1  0  0  0  0
  3 27  1  0  0  0  0
  4  5  1  0  0  0  0
  4  8  1  0  0  0  0
  5  6  2  0  0  0  0
  6  7  1  0  0  0  0
  6 15  1  0  0  0  0
  7  8  2  0  0  0  0
  8  9  1  0  0  0  0
  9 10  2  0  0  0  0
  9 14  1  0  0  0  0
 10 11  1  0  0  0  0
 10 12  1  0  0  0  0
 11 28  1  0  0  0  0
 11 29  1  0  0  0  0
 12 13  1  0  0  0  0
 12 30  1  0  0  0  0
 13 14  1  0  0  0  0
 14 31  1  0  0  0  0
 15 16  2  0  0  0  0
 15 20  1  0  0  0  0
 16 17  1  0  0  0  0
 16 18  1  0  0  0  0
 17 32  1  0  0  0  0
 17 33  1  0  0  0  0
 18 19  1  0  0  0  0
 18 34  1  0  0  0  0
 19 20  1  0  0  0  0
 20 35  1  0  0  0  0
M  END
$$$$
