3CC
 OpenBabel04121316053D

 49 50  0  0  1  0  0  0  0  0999 V2000
    4.9145   -4.1160    1.1835 C   0  0  0  0  0  0  0  0  0  0  0  0
    5.2959   -2.6732    0.9638 C   0  0  0  0  0  0  0  0  0  0  0  0
    6.3447   -2.1929    0.0628 C   0  0  0  0  0  0  0  0  0  0  0  0
    6.6172   -0.6808    0.3840 C   0  0  0  0  0  0  0  0  0  0  0  0
    7.1674   -0.2900    1.8376 C   0  0  0  0  0  0  0  0  0  0  0  0
    8.3647   -0.0158    1.9925 O   0  0  0  0  0  0  0  0  0  0  0  0
    6.3801   -0.1772    2.9871 N   0  0  0  0  0  0  0  0  0  0  0  0
    5.0275   -0.6990    3.2610 C   0  0  1  0  0  0  0  0  0  0  0  0
    4.5074   -0.4779    2.3209 H   0  0  0  0  0  0  0  0  0  0  0  0
    5.0868   -2.1831    3.5412 C   0  0  0  0  0  0  0  0  0  0  0  0
    4.2782   -2.6056    4.6497 C   0  0  0  0  0  0  0  0  0  0  0  0
    3.6199   -1.5085    5.1458 C   0  0  0  0  0  0  0  0  0  0  0  0
    4.0943   -0.2236    4.4315 C   0  0  0  0  0  0  0  0  0  0  0  0
    2.6780   -1.8173    6.0972 C   0  0  0  0  0  0  0  0  0  0  0  0
    2.4471   -3.1919    6.4604 C   0  0  0  0  0  0  0  0  0  0  0  0
    3.1157   -4.2628    5.8317 C   0  0  0  0  0  0  0  0  0  0  0  0
    4.0484   -3.9615    4.8871 C   0  0  0  0  0  0  0  0  0  0  0  0
    2.9172   -5.9895    6.1930 S   0  0  0  0  0  0  0  0  0  0  0  0
    2.2309   -6.6121    5.0974 O   0  0  0  0  0  0  0  0  0  0  0  0
    4.1938   -6.4708    6.6977 O   0  0  0  0  0  0  0  0  0  0  0  0
    1.8739   -5.9691    7.4894 N   0  0  0  0  0  0  0  0  0  0  0  0
    7.6307   -0.3637   -0.7273 C   0  0  0  0  0  0  0  0  0  0  0  0
    8.0035    1.0970   -0.8353 C   0  0  0  0  0  0  0  0  0  0  0  0
    8.9946    1.2776   -1.9674 C   0  0  0  0  0  0  0  0  0  0  0  0
    4.1730   -4.2249    1.9910 H   0  0  0  0  0  0  0  0  0  0  0  0
    5.7851   -4.6787    1.5310 H   0  0  0  0  0  0  0  0  0  0  0  0
    4.4487   -4.5298    0.3020 H   0  0  0  0  0  0  0  0  0  0  0  0
    5.9304   -2.4735    1.7999 H   0  0  0  0  0  0  0  0  0  0  0  0
    4.4115   -2.0246    0.9112 H   0  0  0  0  0  0  0  0  0  0  0  0
    6.0000   -2.3663   -0.9563 H   0  0  0  0  0  0  0  0  0  0  0  0
    7.2551   -2.7761    0.2540 H   0  0  0  0  0  0  0  0  0  0  0  0
    5.7116   -0.0811    0.2235 H   0  0  0  0  0  0  0  0  0  0  0  0
    6.9759   -0.0151    3.7946 H   0  0  0  0  0  0  0  0  0  0  0  0
    6.0648   -2.6691    3.6043 H   0  0  0  0  0  0  0  0  0  0  0  0
    4.3607   -2.5556    2.8344 H   0  0  0  0  0  0  0  0  0  0  0  0
    4.6212    0.4556    5.0973 H   0  0  0  0  0  0  0  0  0  0  0  0
    3.2392    0.2836    3.9614 H   0  0  0  0  0  0  0  0  0  0  0  0
    2.1149   -1.0287    6.5799 H   0  0  0  0  0  0  0  0  0  0  0  0
    1.7401   -3.3971    7.2537 H   0  0  0  0  0  0  0  0  0  0  0  0
    4.5557   -4.7359    4.3079 H   0  0  0  0  0  0  0  0  0  0  0  0
    0.9284   -5.7054    7.2270 H   0  0  0  0  0  0  0  0  0  0  0  0
    2.2897   -5.5753    8.3275 H   0  0  0  0  0  0  0  0  0  0  0  0
    7.1995   -0.6776   -1.6913 H   0  0  0  0  0  0  0  0  0  0  0  0
    8.5316   -0.9778   -0.5859 H   0  0  0  0  0  0  0  0  0  0  0  0
    8.4634    1.4514    0.0888 H   0  0  0  0  0  0  0  0  0  0  0  0
    7.1044    1.6954   -1.0116 H   0  0  0  0  0  0  0  0  0  0  0  0
    9.8888    0.6674   -1.7972 H   0  0  0  0  0  0  0  0  0  0  0  0
    9.2964    2.3244   -2.0300 H   0  0  0  0  0  0  0  0  0  0  0  0
    8.5540    0.9773   -2.9235 H   0  0  0  0  0  0  0  0  0  0  0  0
  1  2  1  0  0  0  0
  1 25  1  0  0  0  0
  1 26  1  0  0  0  0
  1 27  1  0  0  0  0
  2  3  1  0  0  0  0
  2 28  1  0  0  0  0
  2 29  1  0  0  0  0
  3  4  1  0  0  0  0
  3 30  1  0  0  0  0
  3 31  1  0  0  0  0
  4  5  1  0  0  0  0
  4 22  1  0  0  0  0
  4 32  1  0  0  0  0
  5  6  2  0  0  0  0
  5  7  1  0  0  0  0
  7 33  1  0  0  0  0
  8 10  1  0  0  0  0
  8 13  1  0  0  0  0
  8  9  1  6  0  0  0
  8  7  1  0  0  0  0
 10 11  1  0  0  0  0
 10 34  1  0  0  0  0
 10 35  1  0  0  0  0
 11 12  2  0  0  0  0
 11 17  1  0  0  0  0
 12 13  1  0  0  0  0
 12 14  1  0  0  0  0
 13 36  1  0  0  0  0
 13 37  1  0  0  0  0
 14 15  2  0  0  0  0
 14 38  1  0  0  0  0
 15 16  1  0  0  0  0
 15 39  1  0  0  0  0
 16 17  2  0  0  0  0
 16 18  1  0  0  0  0
 17 40  1  0  0  0  0
 18 19  2  0  0  0  0
 18 20  2  0  0  0  0
 18 21  1  0  0  0  0
 21 41  1  0  0  0  0
 21 42  1  0  0  0  0
 22 23  1  0  0  0  0
 22 43  1  0  0  0  0
 22 44  1  0  0  0  0
 23 24  1  0  0  0  0
 23 45  1  0  0  0  0
 23 46  1  0  0  0  0
 24 47  1  0  0  0  0
 24 48  1  0  0  0  0
 24 49  1  0  0  0  0
M  END
$$$$
