3CH
 OpenBabel04121316053D

 13 13  0  0  0  0  0  0  0  0999 V2000
    1.0498   -0.1522    0.1240 O   0  0  0  0  0  0  0  0  0  0  0  0
    2.4111   -0.1230    0.0417 C   0  0  0  0  0  0  0  0  0  0  0  0
    3.1079    1.0784   -0.0282 C   0  0  0  0  0  0  0  0  0  0  0  0
    4.5004    1.0616   -0.1349 C   0  0  0  0  0  0  0  0  0  0  0  0
    5.1741   -0.1578   -0.2441 C   0  0  0  0  0  0  0  0  0  0  0  0
    4.4605   -1.3524   -0.1753 C   0  0  0  0  0  0  0  0  0  0  0  0
    3.0797   -1.3433    0.0118 C   0  0  0  0  0  0  0  0  0  0  0  0
    5.2861   -2.8519   -0.3573 Cl  0  0  0  0  0  0  0  0  0  0  0  0
    0.7090    0.7467   -0.0195 H   0  0  0  0  0  0  0  0  0  0  0  0
    2.5898    2.0334    0.0013 H   0  0  0  0  0  0  0  0  0  0  0  0
    5.0590    1.9928   -0.1466 H   0  0  0  0  0  0  0  0  0  0  0  0
    6.2520   -0.1674   -0.3866 H   0  0  0  0  0  0  0  0  0  0  0  0
    2.5244   -2.2687    0.1115 H   0  0  0  0  0  0  0  0  0  0  0  0
  1  2  1  0  0  0  0
  1  9  1  0  0  0  0
  2  3  2  0  0  0  0
  2  7  1  0  0  0  0
  3  4  1  0  0  0  0
  3 10  1  0  0  0  0
  4  5  2  0  0  0  0
  4 11  1  0  0  0  0
  5  6  1  0  0  0  0
  5 12  1  0  0  0  0
  6  7  2  0  0  0  0
  6  8  1  0  0  0  0
  7 13  1  0  0  0  0
M  END
$$$$
