3CU
 OpenBabel04121316053D

 29 30  0  0  1  0  0  0  0  0999 V2000
    0.9635   -1.8285    0.0218 O   0  0  0  0  0  0  0  0  0  0  0  0
    1.8235   -1.7409   -1.1148 C   0  0  0  0  0  0  0  0  0  0  0  0
    3.2193   -1.1625   -0.7163 C   0  0  1  0  0  0  0  0  0  0  0  0
    3.1025   -0.4354    0.0944 H   0  0  0  0  0  0  0  0  0  0  0  0
    4.2043   -2.1902   -0.3694 N   0  0  3  0  0  0  0  0  0  0  0  0
    4.0616   -3.1857    0.6594 C   0  0  0  0  0  0  0  0  0  0  0  0
    5.0136   -4.3229    0.1890 C   0  0  1  0  0  0  0  0  0  0  0  0
    4.4739   -5.2753    0.1986 H   0  0  0  0  0  0  0  0  0  0  0  0
    5.4718   -3.9561   -1.2507 C   0  0  2  0  0  0  0  0  0  0  0  0
    6.5281   -3.6765   -1.2993 H   0  0  0  0  0  0  0  0  0  0  0  0
    4.5526   -2.8219   -1.6200 C   0  0  2  0  0  0  0  0  0  0  0  0
    3.7046   -3.2238   -2.1859 H   0  0  0  0  0  0  0  0  0  0  0  0
    5.0784   -1.6034   -2.3342 C   0  0  2  0  0  0  0  0  0  0  0  0
    6.0774   -1.3102   -1.9817 H   0  0  0  0  0  0  0  0  0  0  0  0
    4.0013   -0.5362   -1.9366 C   0  0  2  0  0  0  0  0  0  0  0  0
    3.3466   -0.2774   -2.7750 H   0  0  0  0  0  0  0  0  0  0  0  0
    4.6644    0.6699   -1.5255 O   0  0  0  0  0  0  0  0  0  0  0  0
    5.1421   -1.8138   -3.7374 O   0  0  0  0  0  0  0  0  0  0  0  0
    5.2845   -5.0454   -2.1623 O   0  0  0  0  0  0  0  0  0  0  0  0
    6.1224   -4.4767    1.0782 O   0  0  0  0  0  0  0  0  0  0  0  0
    0.1405   -2.2602   -0.2707 H   0  0  0  0  0  0  0  0  0  0  0  0
    1.3288   -1.1205   -1.8686 H   0  0  0  0  0  0  0  0  0  0  0  0
    1.8811   -2.7566   -1.5184 H   0  0  0  0  0  0  0  0  0  0  0  0
    3.0400   -3.5653    0.7411 H   0  0  0  0  0  0  0  0  0  0  0  0
    4.3709   -2.7767    1.6278 H   0  0  0  0  0  0  0  0  0  0  0  0
    5.4055    0.8215   -2.1439 H   0  0  0  0  0  0  0  0  0  0  0  0
    5.5676   -2.6826   -3.8748 H   0  0  0  0  0  0  0  0  0  0  0  0
    4.3303   -5.1547   -2.3332 H   0  0  0  0  0  0  0  0  0  0  0  0
    6.9156   -4.0801    0.6749 H   0  0  0  0  0  0  0  0  0  0  0  0
  1  2  1  0  0  0  0
  1 21  1  0  0  0  0
  2 22  1  0  0  0  0
  2 23  1  0  0  0  0
  3  5  1  0  0  0  0
  3 15  1  0  0  0  0
  3  4  1  1  0  0  0
  3  2  1  0  0  0  0
  5  6  1  0  0  0  0
  5 11  1  0  0  0  0
  6  7  1  0  0  0  0
  6 24  1  0  0  0  0
  6 25  1  0  0  0  0
  7  9  1  0  0  0  0
  7 20  1  0  0  0  0
  7  8  1  6  0  0  0
  9 11  1  0  0  0  0
  9 10  1  6  0  0  0
  9 19  1  0  0  0  0
 11 13  1  0  0  0  0
 11 12  1  6  0  0  0
 13 15  1  0  0  0  0
 13 14  1  1  0  0  0
 13 18  1  0  0  0  0
 15 17  1  0  0  0  0
 15 16  1  6  0  0  0
 17 26  1  0  0  0  0
 18 27  1  0  0  0  0
 19 28  1  0  0  0  0
 20 29  1  0  0  0  0
M  END
$$$$
