3D3
 OpenBabel04121316053D

 23 24  0  0  0  0  0  0  0  0999 V2000
    1.1786   -0.0761    0.0748 N   0  0  0  0  0  0  0  0  0  0  0  0
    2.5467   -0.0247    0.0001 C   0  0  0  0  0  0  0  0  0  0  0  0
    3.0558    0.7148   -0.8326 O   0  0  0  0  0  0  0  0  0  0  0  0
    3.3050   -0.9062    1.0022 C   0  0  0  0  0  0  0  0  0  0  0  0
    5.1052   -0.6689    0.8352 S   0  0  0  0  0  0  0  0  0  0  0  0
    5.7784   -1.7601    1.9876 C   0  0  0  0  0  0  0  0  0  0  0  0
    5.6245   -3.0602    2.0728 N   0  0  0  0  0  0  0  0  0  0  0  0
    6.4361   -3.4351    3.1218 C   0  0  0  0  0  0  0  0  0  0  0  0
    7.0759   -2.3403    3.6747 C   0  0  0  0  0  0  0  0  0  0  0  0
    6.6754   -1.2869    2.9038 N   0  0  0  0  0  0  0  0  0  0  0  0
    6.9655   -0.3263    2.9996 H   0  0  0  0  0  0  0  0  0  0  0  0
    7.8927   -2.4776    4.7772 C   0  0  0  0  0  0  0  0  0  0  0  0
    8.5240   -1.4256    5.3871 N   0  0  0  0  0  0  0  0  0  0  0  0
    8.0406   -3.7153    5.2771 N   0  0  0  0  0  0  0  0  0  0  0  0
    7.3940   -4.7347    4.6689 C   0  0  0  0  0  0  0  0  0  0  0  0
    6.5834   -4.6854    3.5995 N   0  0  0  0  0  0  0  0  0  0  0  0
    0.6662    0.4919   -0.5912 H   0  0  0  0  0  0  0  0  0  0  0  0
    0.6539   -0.6614    0.7078 H   0  0  0  0  0  0  0  0  0  0  0  0
    3.0336   -1.9514    0.8259 H   0  0  0  0  0  0  0  0  0  0  0  0
    2.9945   -0.6158    2.0117 H   0  0  0  0  0  0  0  0  0  0  0  0
    8.4782   -0.4847    5.0387 H   0  0  0  0  0  0  0  0  0  0  0  0
    9.1065   -1.6421    6.1845 H   0  0  0  0  0  0  0  0  0  0  0  0
    7.5446   -5.7169    5.1096 H   0  0  0  0  0  0  0  0  0  0  0  0
  1  2  1  0  0  0  0
  1 17  1  0  0  0  0
  1 18  1  0  0  0  0
  2  3  2  0  0  0  0
  2  4  1  0  0  0  0
  4  5  1  0  0  0  0
  4 19  1  0  0  0  0
  4 20  1  0  0  0  0
  5  6  1  0  0  0  0
  6  7  2  0  0  0  0
  6 10  1  0  0  0  0
  7  8  1  0  0  0  0
  8  9  2  0  0  0  0
  8 16  1  0  0  0  0
  9 10  1  0  0  0  0
  9 12  1  0  0  0  0
 10 11  1  0  0  0  0
 12 13  1  0  0  0  0
 12 14  2  0  0  0  0
 13 21  1  0  0  0  0
 13 22  1  0  0  0  0
 14 15  1  0  0  0  0
 15 16  2  0  0  0  0
 15 23  1  0  0  0  0
M  END
$$$$
