3DE
 OpenBabel04121316053D

 35 36  0  0  0  0  0  0  0  0999 V2000
    0.9403   -0.0000   -0.0893 C   0  0  0  0  0  0  0  0  0  0  0  0
    2.4533   -0.0163   -0.1154 C   0  0  0  0  0  0  0  0  0  0  0  0
    2.9248    0.9426    0.8297 O   0  0  0  0  0  0  0  0  0  0  0  0
    4.2727    1.0113    0.9131 C   0  0  0  0  0  0  0  0  0  0  0  0
    5.0838    0.3432    0.2866 O   0  0  0  0  0  0  0  0  0  0  0  0
    4.6417    1.9464    1.9070 C   0  0  0  0  0  0  0  0  0  0  0  0
    4.6697    3.3667    1.7966 C   0  0  0  0  0  0  0  0  0  0  0  0
    4.7250    4.1174    0.5387 C   0  0  0  0  0  0  0  0  0  0  0  0
    4.8390    3.8815    3.1017 N   0  3  0  0  0  0  0  0  0  0  0  0
    4.7379    4.8585    3.3773 H   0  0  0  0  0  0  0  0  0  0  0  0
    5.1721    2.8705    3.9574 N   0  0  0  0  0  0  0  0  0  0  0  0
    4.9532    1.6343    3.2682 C   0  0  0  0  0  0  0  0  0  0  0  0
    4.9592    0.2580    3.7753 C   0  0  0  0  0  0  0  0  0  0  0  0
    5.7964    3.0964    5.2670 C   0  0  0  0  0  0  0  0  0  0  0  0
    5.9070    4.3835    5.7733 C   0  0  0  0  0  0  0  0  0  0  0  0
    6.6980    4.5825    6.9090 C   0  0  0  0  0  0  0  0  0  0  0  0
    7.2353    3.4950    7.6041 C   0  0  0  0  0  0  0  0  0  0  0  0
    7.0205    2.2055    7.1511 C   0  0  0  0  0  0  0  0  0  0  0  0
    6.4042    2.0271    5.9242 C   0  0  0  0  0  0  0  0  0  0  0  0
    0.5404   -0.7077   -0.8192 H   0  0  0  0  0  0  0  0  0  0  0  0
    0.5603    1.0016   -0.3166 H   0  0  0  0  0  0  0  0  0  0  0  0
    0.5654   -0.2639    0.9056 H   0  0  0  0  0  0  0  0  0  0  0  0
    2.8142    0.2628   -1.1098 H   0  0  0  0  0  0  0  0  0  0  0  0
    2.8218   -1.0114    0.1557 H   0  0  0  0  0  0  0  0  0  0  0  0
    4.7711    3.4307   -0.3140 H   0  0  0  0  0  0  0  0  0  0  0  0
    5.6434    4.7138    0.5192 H   0  0  0  0  0  0  0  0  0  0  0  0
    3.8575    4.7670    0.4298 H   0  0  0  0  0  0  0  0  0  0  0  0
    4.9985    0.1939    4.8576 H   0  0  0  0  0  0  0  0  0  0  0  0
    5.8036   -0.2822    3.3359 H   0  0  0  0  0  0  0  0  0  0  0  0
    4.0210   -0.2299    3.5086 H   0  0  0  0  0  0  0  0  0  0  0  0
    5.4376    5.2413    5.3112 H   0  0  0  0  0  0  0  0  0  0  0  0
    6.9039    5.5893    7.2645 H   0  0  0  0  0  0  0  0  0  0  0  0
    7.8456    3.6482    8.4905 H   0  0  0  0  0  0  0  0  0  0  0  0
    7.3783    1.3403    7.7051 H   0  0  0  0  0  0  0  0  0  0  0  0
    6.5067    1.0396    5.5089 H   0  0  0  0  0  0  0  0  0  0  0  0
  1  2  1  0  0  0  0
  1 20  1  0  0  0  0
  1 21  1  0  0  0  0
  1 22  1  0  0  0  0
  2  3  1  0  0  0  0
  2 23  1  0  0  0  0
  2 24  1  0  0  0  0
  3  4  1  0  0  0  0
  4  5  2  0  0  0  0
  4  6  1  0  0  0  0
  6  7  1  0  0  0  0
  6 12  2  0  0  0  0
  7  8  1  0  0  0  0
  7  9  2  0  0  0  0
  8 25  1  0  0  0  0
  8 26  1  0  0  0  0
  8 27  1  0  0  0  0
  9 10  1  0  0  0  0
  9 11  1  0  0  0  0
 11 12  1  0  0  0  0
 11 14  1  0  0  0  0
 12 13  1  0  0  0  0
 13 28  1  0  0  0  0
 13 29  1  0  0  0  0
 13 30  1  0  0  0  0
 14 15  2  0  0  0  0
 14 19  1  0  0  0  0
 15 16  1  0  0  0  0
 15 31  1  0  0  0  0
 16 17  2  0  0  0  0
 16 32  1  0  0  0  0
 17 18  1  0  0  0  0
 17 33  1  0  0  0  0
 18 19  2  0  0  0  0
 18 34  1  0  0  0  0
 19 35  1  0  0  0  0
M  CHG  1   9   1
M  END
$$$$
