3DR
 OpenBabel04121316053D

 23 23  0  0  1  0  0  0  0  0999 V2000
    0.8894    0.1893    0.1348 O   0  0  0  0  0  0  0  0  0  0  0  0
    2.3077    0.1538    0.1175 C   0  0  1  0  0  0  0  0  0  0  0  0
    2.6551    0.2567   -0.9175 H   0  0  0  0  0  0  0  0  0  0  0  0
    2.8922    1.2411    0.9886 C   0  0  0  0  0  0  0  0  0  0  0  0
    4.2466    0.6734    1.3349 C   0  0  0  0  0  0  0  0  0  0  0  0
    4.0480   -0.7340    1.5036 O   0  0  0  0  0  0  0  0  0  0  0  0
    2.8600   -1.1126    0.7659 C   0  0  2  0  0  0  0  0  0  0  0  0
    2.1424   -1.5384    1.4767 H   0  0  0  0  0  0  0  0  0  0  0  0
    3.2493   -2.1676   -0.2585 C   0  0  0  0  0  0  0  0  0  0  0  0
    2.1326   -2.6557   -1.0166 O   0  0  0  0  0  0  0  0  0  0  0  0
    2.5452   -3.8269   -2.2213 P   0  0  0  0  0  0  0  0  0  0  0  0
    3.4838   -2.8720   -2.9557 O   0  0  0  0  0  0  0  0  0  0  0  0
    3.4095   -4.7102   -1.1535 O   0  0  0  0  0  0  0  0  0  0  0  0
    2.9577   -4.9980   -3.4259 O   0  0  0  0  0  0  0  0  0  0  0  0
    0.6131    0.9777   -0.3617 H   0  0  0  0  0  0  0  0  0  0  0  0
    2.2865    1.3699    1.8936 H   0  0  0  0  0  0  0  0  0  0  0  0
    2.9500    2.2104    0.4866 H   0  0  0  0  0  0  0  0  0  0  0  0
    4.6644    1.0979    2.2518 H   0  0  0  0  0  0  0  0  0  0  0  0
    4.9657    0.8215    0.5212 H   0  0  0  0  0  0  0  0  0  0  0  0
    3.7198   -2.9915    0.2884 H   0  0  0  0  0  0  0  0  0  0  0  0
    4.0151   -1.7596   -0.9278 H   0  0  0  0  0  0  0  0  0  0  0  0
    2.8731   -5.3337   -0.6826 H   0  0  0  0  0  0  0  0  0  0  0  0
    3.7529   -4.5845   -3.8306 H   0  0  0  0  0  0  0  0  0  0  0  0
  1  2  1  0  0  0  0
  1 15  1  0  0  0  0
  2  3  1  6  0  0  0
  2  4  1  0  0  0  0
  2  7  1  0  0  0  0
  4  5  1  0  0  0  0
  4 16  1  0  0  0  0
  4 17  1  0  0  0  0
  5  6  1  0  0  0  0
  5 18  1  0  0  0  0
  5 19  1  0  0  0  0
  6  7  1  0  0  0  0
  7  8  1  1  0  0  0
  7  9  1  0  0  0  0
  9 10  1  0  0  0  0
  9 20  1  0  0  0  0
  9 21  1  0  0  0  0
 10 11  1  0  0  0  0
 11 12  2  0  0  0  0
 11 13  1  0  0  0  0
 11 14  1  0  0  0  0
 13 22  1  0  0  0  0
 14 23  1  0  0  0  0
M  END
$$$$
