3DS
 OpenBabel04121316053D

 20 20  0  0  1  0  0  0  0  0999 V2000
    3.0641    0.1150    1.4230 O   0  0  0  0  0  0  0  0  0  0  0  0
    2.4116    0.0967    0.1441 C   0  0  2  0  0  0  0  0  0  0  0  0
    1.3362    0.0467    0.3621 H   0  0  0  0  0  0  0  0  0  0  0  0
    2.7994   -1.2081   -0.5451 C   0  0  0  0  0  0  0  0  0  0  0  0
    3.6603   -1.1214   -1.7719 C   0  0  0  0  0  0  0  0  0  0  0  0
    4.0602    0.0314   -2.3208 C   0  0  0  0  0  0  0  0  0  0  0  0
    3.6687    1.3379   -1.7584 C   0  0  0  0  0  0  0  0  0  0  0  0
    4.0918    2.3448   -2.3272 O   0  0  0  0  0  0  0  0  0  0  0  0
    2.7060    1.4102   -0.5847 C   0  0  1  0  0  0  0  0  0  0  0  0
    3.1576    2.1103    0.1310 H   0  0  0  0  0  0  0  0  0  0  0  0
    1.4851    1.9930   -1.0410 O   0  0  0  0  0  0  0  0  0  0  0  0
    4.0264   -2.4714   -2.2870 C   0  0  0  0  0  0  0  0  0  0  0  0
    3.6356   -3.4934   -1.7366 O   0  0  0  0  0  0  0  0  0  0  0  0
    4.8080   -2.5144   -3.3740 O   0  0  0  0  0  0  0  0  0  0  0  0
    4.0257    0.1045    1.2763 H   0  0  0  0  0  0  0  0  0  0  0  0
    1.8785   -1.7459   -0.8069 H   0  0  0  0  0  0  0  0  0  0  0  0
    3.3296   -1.8357    0.1848 H   0  0  0  0  0  0  0  0  0  0  0  0
    4.6786    0.1277   -3.2032 H   0  0  0  0  0  0  0  0  0  0  0  0
    1.0993    1.4020   -1.7087 H   0  0  0  0  0  0  0  0  0  0  0  0
    5.0901   -1.6767   -3.7718 H   0  0  0  0  0  0  0  0  0  0  0  0
  1 15  1  0  0  0  0
  2  4  1  0  0  0  0
  2  9  1  0  0  0  0
  2  3  1  1  0  0  0
  2  1  1  0  0  0  0
  4  5  1  0  0  0  0
  4 16  1  0  0  0  0
  4 17  1  0  0  0  0
  5  6  2  0  0  0  0
  5 12  1  0  0  0  0
  6  7  1  0  0  0  0
  6 18  1  0  0  0  0
  7  8  2  0  0  0  0
  7  9  1  0  0  0  0
  9 11  1  0  0  0  0
  9 10  1  1  0  0  0
 11 19  1  0  0  0  0
 12 13  2  0  0  0  0
 12 14  1  0  0  0  0
 14 20  1  0  0  0  0
M  END
$$$$
