3F1
 OpenBabel04121316053D

 48 50  0  0  0  0  0  0  0  0999 V2000
    1.0373    0.0950    0.0680 C   0  0  0  0  0  0  0  0  0  0  0  0
    2.5382    0.1184    0.0571 C   0  0  0  0  0  0  0  0  0  0  0  0
    3.2296    1.3336    0.0562 C   0  0  0  0  0  0  0  0  0  0  0  0
    4.6062    1.3498   -0.1586 C   0  0  0  0  0  0  0  0  0  0  0  0
    5.3127    0.1445   -0.2614 C   0  0  0  0  0  0  0  0  0  0  0  0
    4.6571   -1.0743   -0.1034 C   0  0  0  0  0  0  0  0  0  0  0  0
    3.2620   -1.0825   -0.0016 C   0  0  0  0  0  0  0  0  0  0  0  0
    7.0358    0.2626   -0.6758 S   0  0  0  0  0  0  0  0  0  0  0  0
    7.0843    0.8944   -1.9767 O   0  0  0  0  0  0  0  0  0  0  0  0
    7.6738    0.8736    0.4812 O   0  0  0  0  0  0  0  0  0  0  0  0
    7.5741   -1.3514   -0.8661 N   0  0  0  0  0  0  0  0  0  0  0  0
    9.1441   -1.7024   -0.8250 S   0  0  1  0  0  0  0  0  0  0  0  0
    9.1231   -2.6443   -2.3774 C   0  0  0  0  0  0  0  0  0  0  0  0
    8.4318   -3.8639   -2.4064 C   0  0  0  0  0  0  0  0  0  0  0  0
    8.5997   -4.7513   -3.4724 C   0  0  0  0  0  0  0  0  0  0  0  0
    9.3735   -4.3869   -4.5718 C   0  0  0  0  0  0  0  0  0  0  0  0
    9.9557   -3.1284   -4.6135 C   0  0  0  0  0  0  0  0  0  0  0  0
    9.8850   -2.2904   -3.4973 C   0  0  0  0  0  0  0  0  0  0  0  0
    9.5059   -5.3420   -5.5267 O   0  0  0  0  0  0  0  0  0  0  0  0
   10.3081   -5.0359   -6.6690 C   0  0  0  0  0  0  0  0  0  0  0  0
   10.3513   -6.2479   -7.5646 C   0  0  0  0  0  0  0  0  0  0  0  0
    9.5432   -7.3624   -7.2957 C   0  0  0  0  0  0  0  0  0  0  0  0
    9.6824   -8.5340   -8.0263 C   0  0  0  0  0  0  0  0  0  0  0  0
   10.5356   -8.5611   -9.1227 C   0  0  0  0  0  0  0  0  0  0  0  0
   11.2472   -7.4168   -9.4846 C   0  0  0  0  0  0  0  0  0  0  0  0
   11.2004   -6.2793   -8.6778 C   0  0  0  0  0  0  0  0  0  0  0  0
    9.9545   -0.1622   -1.3085 C   0  0  0  0  0  0  0  0  0  0  0  0
    0.6209    1.1066    0.1240 H   0  0  0  0  0  0  0  0  0  0  0  0
    0.6655   -0.4758    0.9230 H   0  0  0  0  0  0  0  0  0  0  0  0
    0.6685   -0.3597   -0.8586 H   0  0  0  0  0  0  0  0  0  0  0  0
    2.6990    2.2743    0.1860 H   0  0  0  0  0  0  0  0  0  0  0  0
    5.1226    2.3024   -0.2638 H   0  0  0  0  0  0  0  0  0  0  0  0
    5.1960   -2.0163   -0.0855 H   0  0  0  0  0  0  0  0  0  0  0  0
    2.7331   -2.0337    0.0115 H   0  0  0  0  0  0  0  0  0  0  0  0
    7.7890   -4.1576   -1.5811 H   0  0  0  0  0  0  0  0  0  0  0  0
    8.1420   -5.7382   -3.4376 H   0  0  0  0  0  0  0  0  0  0  0  0
   10.5018   -2.7848   -5.4854 H   0  0  0  0  0  0  0  0  0  0  0  0
   10.4681   -1.3777   -3.5367 H   0  0  0  0  0  0  0  0  0  0  0  0
   11.3329   -4.7940   -6.3553 H   0  0  0  0  0  0  0  0  0  0  0  0
    9.8616   -4.2033   -7.2234 H   0  0  0  0  0  0  0  0  0  0  0  0
    8.8106   -7.3322   -6.4920 H   0  0  0  0  0  0  0  0  0  0  0  0
    9.1190   -9.4147   -7.7338 H   0  0  0  0  0  0  0  0  0  0  0  0
   10.6369   -9.4748   -9.6996 H   0  0  0  0  0  0  0  0  0  0  0  0
   11.8477   -7.4182  -10.3899 H   0  0  0  0  0  0  0  0  0  0  0  0
   11.8288   -5.4253   -8.9221 H   0  0  0  0  0  0  0  0  0  0  0  0
    9.9427    0.5235   -0.4583 H   0  0  0  0  0  0  0  0  0  0  0  0
    9.4969    0.3115   -2.1784 H   0  0  0  0  0  0  0  0  0  0  0  0
   11.0074   -0.3610   -1.5278 H   0  0  0  0  0  0  0  0  0  0  0  0
  1  2  1  0  0  0  0
  1 28  1  0  0  0  0
  1 29  1  0  0  0  0
  1 30  1  0  0  0  0
  2  3  2  0  0  0  0
  2  7  1  0  0  0  0
  3  4  1  0  0  0  0
  3 31  1  0  0  0  0
  4  5  2  0  0  0  0
  4 32  1  0  0  0  0
  5  6  1  0  0  0  0
  5  8  1  0  0  0  0
  6  7  2  0  0  0  0
  6 33  1  0  0  0  0
  7 34  1  0  0  0  0
  8  9  2  0  0  0  0
  8 10  2  0  0  0  0
  8 11  1  0  0  0  0
 12 11  2  6  0  0  0
 12 13  1  0  0  0  0
 12 27  1  0  0  0  0
 13 14  2  0  0  0  0
 13 18  1  0  0  0  0
 14 15  1  0  0  0  0
 14 35  1  0  0  0  0
 15 16  2  0  0  0  0
 15 36  1  0  0  0  0
 16 17  1  0  0  0  0
 16 19  1  0  0  0  0
 17 18  2  0  0  0  0
 17 37  1  0  0  0  0
 18 38  1  0  0  0  0
 19 20  1  0  0  0  0
 20 21  1  0  0  0  0
 20 39  1  0  0  0  0
 20 40  1  0  0  0  0
 21 22  2  0  0  0  0
 21 26  1  0  0  0  0
 22 23  1  0  0  0  0
 22 41  1  0  0  0  0
 23 24  2  0  0  0  0
 23 42  1  0  0  0  0
 24 25  1  0  0  0  0
 24 43  1  0  0  0  0
 25 26  2  0  0  0  0
 25 44  1  0  0  0  0
 26 45  1  0  0  0  0
 27 46  1  0  0  0  0
 27 47  1  0  0  0  0
 27 48  1  0  0  0  0
M  END
$$$$
