3FC
 OpenBabel04121316053D

 73 75  0  0  1  0  0  0  0  0999 V2000
    1.0278    0.0065    0.0389 C   0  0  0  0  0  0  0  0  0  0  0  0
    2.5492    0.0600    0.0271 C   0  0  0  0  0  0  0  0  0  0  0  0
    3.0866   -1.1868    0.6898 C   0  0  0  0  0  0  0  0  0  0  0  0
    4.6031   -1.2934    0.7283 C   0  0  0  0  0  0  0  0  0  0  0  0
    5.0857   -2.5760    1.4281 C   0  0  1  0  0  0  0  0  0  0  0  0
    4.7253   -2.6013    2.4638 H   0  0  0  0  0  0  0  0  0  0  0  0
    4.5653   -3.8656    0.7176 C   0  0  0  0  0  0  0  0  0  0  0  0
    5.2453   -4.5913   -0.0077 O   0  0  0  0  0  0  0  0  0  0  0  0
    3.0685   -4.2284    0.8805 C   0  0  0  0  0  0  0  0  0  0  0  0
    2.3668   -3.6609    1.7016 O   0  0  0  0  0  0  0  0  0  0  0  0
    2.6293   -5.2202    0.0163 N   0  0  0  0  0  0  0  0  0  0  0  0
    1.2687   -5.4131   -0.2190 N   0  0  0  0  0  0  0  0  0  0  0  0
    0.6585   -6.6853   -0.0775 C   0  0  0  0  0  0  0  0  0  0  0  0
   -0.4661   -6.5347   -1.0747 C   0  0  0  0  0  0  0  0  0  0  0  0
   -0.8073   -5.1388   -0.9945 O   0  0  0  0  0  0  0  0  0  0  0  0
    0.3187   -4.4793   -0.5639 C   0  0  0  0  0  0  0  0  0  0  0  0
    0.4051   -3.2528   -0.5451 O   0  0  0  0  0  0  0  0  0  0  0  0
    6.5730   -2.5613    1.4914 N   0  0  0  0  0  0  0  0  0  0  0  0
    7.2307   -3.4081    2.3461 C   0  0  0  0  0  0  0  0  0  0  0  0
    6.6183   -4.0538    3.1868 O   0  0  0  0  0  0  0  0  0  0  0  0
    8.5818   -3.5189    2.0973 O   0  0  0  0  0  0  0  0  0  0  0  0
    9.2612   -4.7133    2.6817 C   0  0  1  0  0  0  0  0  0  0  0  0
    8.9517   -4.7696    3.7329 H   0  0  0  0  0  0  0  0  0  0  0  0
    8.7471   -5.9688    1.8611 C   0  0  0  0  0  0  0  0  0  0  0  0
    9.1665   -5.8636    0.3822 C   0  0  0  0  0  0  0  0  0  0  0  0
    9.2985   -7.2473    2.3827 C   0  0  0  0  0  0  0  0  0  0  0  0
    7.2675   -6.3176    1.9735 C   0  0  0  0  0  0  0  0  0  0  0  0
   10.8689   -4.5134    2.6993 C   0  0  0  0  0  0  0  0  0  0  0  0
   11.7294   -5.5788    3.4253 C   0  0  0  0  0  0  0  0  0  0  0  0
   12.7077   -5.5621    4.3151 N   0  0  0  0  0  0  0  0  0  0  0  0
   12.9979   -6.9399    4.6352 N   0  0  0  0  0  0  0  0  0  0  0  0
   12.2011   -7.6790    3.8842 C   0  0  0  0  0  0  0  0  0  0  0  0
   11.5308   -6.8617    3.0402 O   0  0  0  0  0  0  0  0  0  0  0  0
   11.8636   -9.1388    3.7705 C   0  0  0  0  0  0  0  0  0  0  0  0
   12.4189  -10.0771    4.6329 C   0  0  0  0  0  0  0  0  0  0  0  0
   12.2539  -11.4624    4.4054 C   0  0  0  0  0  0  0  0  0  0  0  0
   11.3787  -11.9607    3.4272 C   0  0  0  0  0  0  0  0  0  0  0  0
   10.6487  -11.0481    2.6937 C   0  0  0  0  0  0  0  0  0  0  0  0
   10.9890   -9.6921    2.7953 C   0  0  0  0  0  0  0  0  0  0  0  0
   11.3111  -13.4330    3.1156 C   0  0  0  0  0  0  0  0  0  0  0  0
   12.5079  -13.9093    2.6710 F   0  0  0  0  0  0  0  0  0  0  0  0
   10.9817  -14.1837    4.1986 F   0  0  0  0  0  0  0  0  0  0  0  0
   10.4075  -13.7509    2.1447 F   0  0  0  0  0  0  0  0  0  0  0  0
    0.6109    0.8859   -0.4530 H   0  0  0  0  0  0  0  0  0  0  0  0
    0.6415   -0.0483    1.0627 H   0  0  0  0  0  0  0  0  0  0  0  0
    0.6641   -0.8741   -0.4976 H   0  0  0  0  0  0  0  0  0  0  0  0
    2.9067    0.9525    0.5456 H   0  0  0  0  0  0  0  0  0  0  0  0
    2.9042    0.0877   -1.0083 H   0  0  0  0  0  0  0  0  0  0  0  0
    2.7034   -2.0015    0.0751 H   0  0  0  0  0  0  0  0  0  0  0  0
    2.6844   -1.2673    1.7077 H   0  0  0  0  0  0  0  0  0  0  0  0
    5.0104   -0.4185    1.2512 H   0  0  0  0  0  0  0  0  0  0  0  0
    4.9901   -1.2637   -0.2968 H   0  0  0  0  0  0  0  0  0  0  0  0
    3.3067   -5.7271   -0.5503 H   0  0  0  0  0  0  0  0  0  0  0  0
    0.2447   -6.7395    0.9367 H   0  0  0  0  0  0  0  0  0  0  0  0
    1.3273   -7.5256   -0.2651 H   0  0  0  0  0  0  0  0  0  0  0  0
   -1.3386   -7.1488   -0.8404 H   0  0  0  0  0  0  0  0  0  0  0  0
   -0.1371   -6.7521   -2.0991 H   0  0  0  0  0  0  0  0  0  0  0  0
    7.1165   -1.9139    0.9366 H   0  0  0  0  0  0  0  0  0  0  0  0
   10.2510   -5.7317    0.2729 H   0  0  0  0  0  0  0  0  0  0  0  0
    8.6712   -5.0337   -0.1214 H   0  0  0  0  0  0  0  0  0  0  0  0
    8.9265   -6.7945   -0.1442 H   0  0  0  0  0  0  0  0  0  0  0  0
   10.2118   -7.3533    1.8116 H   0  0  0  0  0  0  0  0  0  0  0  0
    8.7556   -8.1502    2.1021 H   0  0  0  0  0  0  0  0  0  0  0  0
    9.3655   -7.2445    3.4794 H   0  0  0  0  0  0  0  0  0  0  0  0
    6.6630   -5.6405    1.3987 H   0  0  0  0  0  0  0  0  0  0  0  0
    6.9691   -6.3573    3.0285 H   0  0  0  0  0  0  0  0  0  0  0  0
    7.0464   -7.3102    1.5596 H   0  0  0  0  0  0  0  0  0  0  0  0
   11.0861   -3.5242    3.1256 H   0  0  0  0  0  0  0  0  0  0  0  0
   11.2179   -4.4335    1.6610 H   0  0  0  0  0  0  0  0  0  0  0  0
   13.0342   -9.7483    5.4643 H   0  0  0  0  0  0  0  0  0  0  0  0
   12.8457  -12.1669    4.9860 H   0  0  0  0  0  0  0  0  0  0  0  0
    9.8886  -11.3744    1.9793 H   0  0  0  0  0  0  0  0  0  0  0  0
   10.5637   -9.1156    1.9948 H   0  0  0  0  0  0  0  0  0  0  0  0
  1  2  1  0  0  0  0
  1 44  1  0  0  0  0
  1 45  1  0  0  0  0
  1 46  1  0  0  0  0
  2  3  1  0  0  0  0
  2 47  1  0  0  0  0
  2 48  1  0  0  0  0
  3  4  1  0  0  0  0
  3 49  1  0  0  0  0
  3 50  1  0  0  0  0
  4  5  1  0  0  0  0
  4 51  1  0  0  0  0
  4 52  1  0  0  0  0
  5  6  1  1  0  0  0
  5  7  1  0  0  0  0
  5 18  1  0  0  0  0
  7  8  2  0  0  0  0
  7  9  1  0  0  0  0
  9 10  2  0  0  0  0
  9 11  1  0  0  0  0
 11 12  1  0  0  0  0
 11 53  1  0  0  0  0
 12 13  1  0  0  0  0
 12 16  1  0  0  0  0
 13 14  1  0  0  0  0
 13 54  1  0  0  0  0
 13 55  1  0  0  0  0
 14 15  1  0  0  0  0
 14 56  1  0  0  0  0
 14 57  1  0  0  0  0
 15 16  1  0  0  0  0
 16 17  2  0  0  0  0
 18 19  1  0  0  0  0
 18 58  1  0  0  0  0
 19 20  2  0  0  0  0
 19 21  1  0  0  0  0
 21 22  1  0  0  0  0
 22 23  1  1  0  0  0
 22 24  1  0  0  0  0
 22 28  1  0  0  0  0
 24 25  1  0  0  0  0
 24 26  1  0  0  0  0
 24 27  1  0  0  0  0
 25 59  1  0  0  0  0
 25 60  1  0  0  0  0
 25 61  1  0  0  0  0
 26 62  1  0  0  0  0
 26 63  1  0  0  0  0
 26 64  1  0  0  0  0
 27 65  1  0  0  0  0
 27 66  1  0  0  0  0
 27 67  1  0  0  0  0
 28 29  1  0  0  0  0
 28 68  1  0  0  0  0
 28 69  1  0  0  0  0
 29 30  2  0  0  0  0
 29 33  1  0  0  0  0
 30 31  1  0  0  0  0
 31 32  2  0  0  0  0
 32 33  1  0  0  0  0
 32 34  1  0  0  0  0
 34 35  2  0  0  0  0
 34 39  1  0  0  0  0
 35 36  1  0  0  0  0
 35 70  1  0  0  0  0
 36 37  2  0  0  0  0
 36 71  1  0  0  0  0
 37 38  1  0  0  0  0
 37 40  1  0  0  0  0
 38 39  2  0  0  0  0
 38 72  1  0  0  0  0
 39 73  1  0  0  0  0
 40 41  1  0  0  0  0
 40 42  1  0  0  0  0
 40 43  1  0  0  0  0
M  END
$$$$
