3FL
 OpenBabel04121316053D

 47 48  0  0  0  0  0  0  0  0999 V2000
    0.8667   -0.1020    0.0655 O   0  0  0  0  0  0  0  0  0  0  0  0
    2.0919   -0.0724    0.0643 C   0  0  0  0  0  0  0  0  0  0  0  0
    2.8051    1.2134    0.0636 C   0  0  0  0  0  0  0  0  0  0  0  0
    4.1417    1.2124    0.0678 C   0  0  0  0  0  0  0  0  0  0  0  0
    4.9186    2.4957    0.0597 C   0  0  0  0  0  0  0  0  0  0  0  0
    6.3621    2.2583    0.0446 N   0  0  0  0  0  0  0  0  0  0  0  0
    7.0504    3.5444    0.0571 C   0  0  0  0  0  0  0  0  0  0  0  0
    8.5445    3.2865    0.0575 C   0  0  0  0  0  0  0  0  0  0  0  0
    9.2968    4.6063    0.0534 C   0  0  0  0  0  0  0  0  0  0  0  0
   10.7914    4.3311    0.0563 C   0  0  0  0  0  0  0  0  0  0  0  0
   11.4832    5.6048    0.0715 N   0  0  0  0  0  0  0  0  0  0  0  0
   12.9286    5.4152    0.0841 C   0  0  0  0  0  0  0  0  0  0  0  0
   13.6749    6.7295    0.0629 C   0  0  0  0  0  0  0  0  0  0  0  0
   13.0286    7.9634    0.2286 C   0  0  0  0  0  0  0  0  0  0  0  0
   13.7336    9.1549    0.1444 C   0  0  0  0  0  0  0  0  0  0  0  0
   15.0713    9.1298   -0.2330 C   0  0  0  0  0  0  0  0  0  0  0  0
   15.7481    7.9115   -0.4020 C   0  0  0  0  0  0  0  0  0  0  0  0
   15.0606    6.7149   -0.1627 C   0  0  0  0  0  0  0  0  0  0  0  0
   17.1569    7.9816   -0.8853 C   0  0  0  0  0  0  0  0  0  0  0  0
   17.6983    9.0501   -1.1451 O   0  0  0  0  0  0  0  0  0  0  0  0
   17.7991    6.8108   -1.0561 O   0  0  0  0  0  0  0  0  0  0  0  0
    4.8309    0.0241    0.0763 N   0  0  0  0  0  0  0  0  0  0  0  0
    5.8453    0.0506    0.1321 H   0  0  0  0  0  0  0  0  0  0  0  0
    4.2377   -1.2052    0.0722 C   0  0  0  0  0  0  0  0  0  0  0  0
    4.8869   -2.2450    0.0779 O   0  0  0  0  0  0  0  0  0  0  0  0
    2.8707   -1.1939    0.0592 N   0  0  0  0  0  0  0  0  0  0  0  0
    2.4036   -2.0855    0.0628 H   0  0  0  0  0  0  0  0  0  0  0  0
    2.2137    2.1192    0.0646 H   0  0  0  0  0  0  0  0  0  0  0  0
    4.6467    3.0733    0.9523 H   0  0  0  0  0  0  0  0  0  0  0  0
    4.6334    3.0763   -0.8268 H   0  0  0  0  0  0  0  0  0  0  0  0
    6.6039    1.7769   -0.8222 H   0  0  0  0  0  0  0  0  0  0  0  0
    6.7749    4.1205    0.9486 H   0  0  0  0  0  0  0  0  0  0  0  0
    6.7747    4.1296   -0.8287 H   0  0  0  0  0  0  0  0  0  0  0  0
    8.8294    2.6982   -0.8241 H   0  0  0  0  0  0  0  0  0  0  0  0
    8.8264    2.7033    0.9435 H   0  0  0  0  0  0  0  0  0  0  0  0
    9.0127    5.1984    0.9338 H   0  0  0  0  0  0  0  0  0  0  0  0
    9.0172    5.1934   -0.8317 H   0  0  0  0  0  0  0  0  0  0  0  0
   11.0628    3.7575   -0.8369 H   0  0  0  0  0  0  0  0  0  0  0  0
   11.0593    3.7463    0.9433 H   0  0  0  0  0  0  0  0  0  0  0  0
   11.2128    6.1141    0.9113 H   0  0  0  0  0  0  0  0  0  0  0  0
   13.2204    4.8475   -0.8103 H   0  0  0  0  0  0  0  0  0  0  0  0
   13.2336    4.8480    0.9709 H   0  0  0  0  0  0  0  0  0  0  0  0
   11.9566    8.0196    0.3990 H   0  0  0  0  0  0  0  0  0  0  0  0
   13.2249   10.0964    0.3311 H   0  0  0  0  0  0  0  0  0  0  0  0
   15.5828   10.0742   -0.4088 H   0  0  0  0  0  0  0  0  0  0  0  0
   15.5537    5.7500   -0.1774 H   0  0  0  0  0  0  0  0  0  0  0  0
   17.3076    5.9952   -0.8739 H   0  0  0  0  0  0  0  0  0  0  0  0
  1  2  2  0  0  0  0
  2  3  1  0  0  0  0
  2 26  1  0  0  0  0
  3  4  2  0  0  0  0
  3 28  1  0  0  0  0
  4  5  1  0  0  0  0
  4 22  1  0  0  0  0
  5  6  1  0  0  0  0
  5 29  1  0  0  0  0
  5 30  1  0  0  0  0
  6  7  1  0  0  0  0
  6 31  1  0  0  0  0
  7  8  1  0  0  0  0
  7 32  1  0  0  0  0
  7 33  1  0  0  0  0
  8  9  1  0  0  0  0
  8 34  1  0  0  0  0
  8 35  1  0  0  0  0
  9 10  1  0  0  0  0
  9 36  1  0  0  0  0
  9 37  1  0  0  0  0
 10 11  1  0  0  0  0
 10 38  1  0  0  0  0
 10 39  1  0  0  0  0
 11 12  1  0  0  0  0
 11 40  1  0  0  0  0
 12 13  1  0  0  0  0
 12 41  1  0  0  0  0
 12 42  1  0  0  0  0
 13 14  2  0  0  0  0
 13 18  1  0  0  0  0
 14 15  1  0  0  0  0
 14 43  1  0  0  0  0
 15 16  2  0  0  0  0
 15 44  1  0  0  0  0
 16 17  1  0  0  0  0
 16 45  1  0  0  0  0
 17 18  2  0  0  0  0
 17 19  1  0  0  0  0
 18 46  1  0  0  0  0
 19 20  2  0  0  0  0
 19 21  1  0  0  0  0
 21 47  1  0  0  0  0
 22 23  1  0  0  0  0
 22 24  1  0  0  0  0
 24 25  2  0  0  0  0
 24 26  1  0  0  0  0
 26 27  1  0  0  0  0
M  END
$$$$
