3FP
 OpenBabel04121316053D

 56 58  0  0  1  0  0  0  0  0999 V2000
    4.7700    0.1257    1.4431 C   0  0  0  0  0  0  0  0  0  0  0  0
    4.0113    1.3330    1.0914 N   0  0  0  0  0  0  0  0  0  0  0  0
    2.9377    1.6525    2.0689 C   0  0  0  0  0  0  0  0  0  0  0  0
    2.2014    0.3541    2.4737 C   0  0  2  0  0  0  0  0  0  0  0  0
    2.3957   -0.3957    1.7036 H   0  0  0  0  0  0  0  0  0  0  0  0
    0.6953    0.3823    2.4342 C   0  0  0  0  0  0  0  0  0  0  0  0
    0.4161    0.6302    1.0604 O   0  0  0  0  0  0  0  0  0  0  0  0
   -0.8945    0.5978    0.7671 C   0  0  0  0  0  0  0  0  0  0  0  0
   -1.7125   -0.5223    0.7144 C   0  0  0  0  0  0  0  0  0  0  0  0
   -3.0685   -0.3867    0.2844 C   0  0  0  0  0  0  0  0  0  0  0  0
   -3.6563    0.8584    0.1372 C   0  0  0  0  0  0  0  0  0  0  0  0
   -2.7971    1.8641    0.5118 C   0  0  0  0  0  0  0  0  0  0  0  0
   -1.4219    1.7895    0.4910 C   0  0  0  0  0  0  0  0  0  0  0  0
   -5.0162    1.1448   -0.1698 N   0  0  0  0  0  0  0  0  0  0  0  0
   -5.6367    2.4160   -0.4694 C   0  0  0  0  0  0  0  0  0  0  0  0
   -6.6745    2.5040   -1.3021 N   0  0  0  0  0  0  0  0  0  0  0  0
   -7.1191    3.7635   -1.5599 C   0  0  0  0  0  0  0  0  0  0  0  0
   -6.5076    4.9369   -1.2499 N   0  0  0  0  0  0  0  0  0  0  0  0
   -5.4765    4.8386   -0.4154 C   0  0  0  0  0  0  0  0  0  0  0  0
   -5.2229    3.5933    0.1415 C   0  0  0  0  0  0  0  0  0  0  0  0
   -4.6879    5.9874   -0.0536 N   0  0  0  0  0  0  0  0  0  0  0  0
   -3.3736    6.0507    0.4811 C   0  0  0  0  0  0  0  0  0  0  0  0
   -2.7013    7.1787    0.9196 C   0  0  0  0  0  0  0  0  0  0  0  0
   -1.3616    7.0722    1.4207 C   0  0  0  0  0  0  0  0  0  0  0  0
   -0.8236    5.8382    1.7798 C   0  0  0  0  0  0  0  0  0  0  0  0
   -1.5925    4.7504    1.5613 C   0  0  0  0  0  0  0  0  0  0  0  0
   -2.6257    4.9068    0.6418 C   0  0  0  0  0  0  0  0  0  0  0  0
   -2.6583    4.0845   -0.4161 F   0  0  0  0  0  0  0  0  0  0  0  0
   -0.4453    8.2429    1.5724 C   0  0  0  0  0  0  0  0  0  0  0  0
    0.0319    8.3478    2.8414 F   0  0  0  0  0  0  0  0  0  0  0  0
    0.6507    8.1354    0.7693 F   0  0  0  0  0  0  0  0  0  0  0  0
   -1.0341    9.4233    1.2697 F   0  0  0  0  0  0  0  0  0  0  0  0
    2.7019   -0.1291    3.7157 O   0  0  0  0  0  0  0  0  0  0  0  0
    4.9456    2.4450    0.9467 C   0  0  0  0  0  0  0  0  0  0  0  0
    4.1706   -0.7897    1.4683 H   0  0  0  0  0  0  0  0  0  0  0  0
    5.2543    0.2264    2.4181 H   0  0  0  0  0  0  0  0  0  0  0  0
    5.5081   -0.0913    0.6688 H   0  0  0  0  0  0  0  0  0  0  0  0
    2.2511    2.3810    1.6113 H   0  0  0  0  0  0  0  0  0  0  0  0
    3.3563    2.1428    2.9606 H   0  0  0  0  0  0  0  0  0  0  0  0
    0.2785    1.1167    3.1352 H   0  0  0  0  0  0  0  0  0  0  0  0
    0.3338   -0.6171    2.7023 H   0  0  0  0  0  0  0  0  0  0  0  0
   -1.2944   -1.4803    0.9767 H   0  0  0  0  0  0  0  0  0  0  0  0
   -3.6444   -1.2921    0.1287 H   0  0  0  0  0  0  0  0  0  0  0  0
   -3.1978    2.7168    0.9793 H   0  0  0  0  0  0  0  0  0  0  0  0
   -0.7834    2.6687    0.4739 H   0  0  0  0  0  0  0  0  0  0  0  0
   -5.4347    0.4336   -0.7693 H   0  0  0  0  0  0  0  0  0  0  0  0
   -8.1007    3.8451   -2.0182 H   0  0  0  0  0  0  0  0  0  0  0  0
   -4.7159    3.5660    1.0790 H   0  0  0  0  0  0  0  0  0  0  0  0
   -4.9867    6.8051   -0.5739 H   0  0  0  0  0  0  0  0  0  0  0  0
   -3.1446    8.1605    0.7983 H   0  0  0  0  0  0  0  0  0  0  0  0
    0.1867    5.7074    2.1662 H   0  0  0  0  0  0  0  0  0  0  0  0
   -1.2632    3.7942    1.9433 H   0  0  0  0  0  0  0  0  0  0  0  0
    2.5265   -1.0850    3.7258 H   0  0  0  0  0  0  0  0  0  0  0  0
    5.6731    2.2063    0.1626 H   0  0  0  0  0  0  0  0  0  0  0  0
    5.4939    2.6309    1.8771 H   0  0  0  0  0  0  0  0  0  0  0  0
    4.4396    3.3665    0.6437 H   0  0  0  0  0  0  0  0  0  0  0  0
  1  2  1  0  0  0  0
  1 35  1  0  0  0  0
  1 36  1  0  0  0  0
  1 37  1  0  0  0  0
  2  3  1  0  0  0  0
  2 34  1  0  0  0  0
  3 38  1  0  0  0  0
  3 39  1  0  0  0  0
  4  6  1  0  0  0  0
  4 33  1  0  0  0  0
  4  5  1  6  0  0  0
  4  3  1  0  0  0  0
  6  7  1  0  0  0  0
  6 40  1  0  0  0  0
  6 41  1  0  0  0  0
  7  8  1  0  0  0  0
  8  9  2  0  0  0  0
  8 13  1  0  0  0  0
  9 10  1  0  0  0  0
  9 42  1  0  0  0  0
 10 11  2  0  0  0  0
 10 43  1  0  0  0  0
 11 12  1  0  0  0  0
 11 14  1  0  0  0  0
 12 13  2  0  0  0  0
 12 44  1  0  0  0  0
 13 45  1  0  0  0  0
 14 15  1  0  0  0  0
 14 46  1  0  0  0  0
 15 16  2  0  0  0  0
 15 20  1  0  0  0  0
 16 17  1  0  0  0  0
 17 18  2  0  0  0  0
 17 47  1  0  0  0  0
 18 19  1  0  0  0  0
 19 20  2  0  0  0  0
 19 21  1  0  0  0  0
 20 48  1  0  0  0  0
 21 22  1  0  0  0  0
 21 49  1  0  0  0  0
 22 23  2  0  0  0  0
 22 27  1  0  0  0  0
 23 24  1  0  0  0  0
 23 50  1  0  0  0  0
 24 25  2  0  0  0  0
 24 29  1  0  0  0  0
 25 26  1  0  0  0  0
 25 51  1  0  0  0  0
 26 27  2  0  0  0  0
 26 52  1  0  0  0  0
 27 28  1  0  0  0  0
 29 30  1  0  0  0  0
 29 31  1  0  0  0  0
 29 32  1  0  0  0  0
 33 53  1  0  0  0  0
 34 54  1  0  0  0  0
 34 55  1  0  0  0  0
 34 56  1  0  0  0  0
M  END
$$$$
