3GO
 OpenBabel04121316053D

 66 71  0  0  1  0  0  0  0  0999 V2000
    0.9118   -0.0436   -0.0453 N   0  0  0  0  0  0  0  0  0  0  0  0
    2.0571   -0.0282   -0.0270 C   0  0  0  0  0  0  0  0  0  0  0  0
    3.4978   -0.0143   -0.0445 C   0  0  0  0  0  0  0  0  0  0  0  0
    4.1915    1.1992   -0.0336 C   0  0  0  0  0  0  0  0  0  0  0  0
    5.5670    1.2118   -0.2607 C   0  0  0  0  0  0  0  0  0  0  0  0
    6.2716    0.0052   -0.3480 C   0  0  0  0  0  0  0  0  0  0  0  0
    5.5843   -1.2010   -0.1732 C   0  0  0  0  0  0  0  0  0  0  0  0
    4.1967   -1.2182   -0.1073 C   0  0  0  0  0  0  0  0  0  0  0  0
    7.7397    0.0242   -0.6700 C   0  0  0  0  0  0  0  0  0  0  0  0
    8.2599   -1.3163   -0.7073 O   0  0  0  0  0  0  0  0  0  0  0  0
    9.6392   -1.2880   -1.0503 C   0  0  0  0  0  0  0  0  0  0  0  0
   10.3293   -2.6543   -1.0696 C   0  0  1  0  0  0  0  0  0  0  0  0
   11.2766   -2.4890   -1.5848 H   0  0  0  0  0  0  0  0  0  0  0  0
   10.6279   -3.1126    0.2848 O   0  0  0  0  0  0  0  0  0  0  0  0
   11.1123   -4.4723    0.1639 C   0  0  2  0  0  0  0  0  0  0  0  0
   12.1890   -4.4900   -0.0125 H   0  0  0  0  0  0  0  0  0  0  0  0
   10.4527   -4.9782   -1.1052 C   0  0  1  0  0  0  0  0  0  0  0  0
    9.8303   -5.5679   -0.5505 H   0  0  0  0  0  0  0  0  0  0  0  0
    9.6689   -3.8313   -1.7590 C   0  0  2  0  0  0  0  0  0  0  0  0
    8.6030   -3.8094   -1.5522 H   0  0  0  0  0  0  0  0  0  0  0  0
    9.7522   -3.8729   -3.1718 O   0  0  0  0  0  0  0  0  0  0  0  0
   10.9027   -6.0402   -1.9174 O   0  0  0  0  0  0  0  0  0  0  0  0
   10.8346   -5.2457    1.4075 N   0  0  0  0  0  0  0  0  0  0  0  0
    9.7437   -6.0189    1.8676 C   0  0  0  0  0  0  0  0  0  0  0  0
    8.5181   -6.2210    1.3226 N   0  0  0  0  0  0  0  0  0  0  0  0
    8.0214   -5.6153    0.1361 C   0  0  0  0  0  0  0  0  0  0  0  0
    6.6811   -5.8433   -0.3672 C   0  0  0  0  0  0  0  0  0  0  0  0
    6.1436   -4.9454   -1.3052 C   0  0  0  0  0  0  0  0  0  0  0  0
    4.9387   -5.2330   -1.8902 C   0  0  0  0  0  0  0  0  0  0  0  0
    4.2954   -6.3948   -1.5254 C   0  0  0  0  0  0  0  0  0  0  0  0
    4.9421   -7.3252   -0.6690 C   0  0  0  0  0  0  0  0  0  0  0  0
    6.1648   -7.0924   -0.1488 C   0  0  0  0  0  0  0  0  0  0  0  0
    4.3104   -8.4388   -0.1866 C   0  0  0  0  0  0  0  0  0  0  0  0
    2.9564   -8.4750   -0.3755 C   0  0  0  0  0  0  0  0  0  0  0  0
    2.4044   -7.6146   -1.3152 C   0  0  0  0  0  0  0  0  0  0  0  0
    3.0539   -6.6040   -1.9296 N   0  0  0  0  0  0  0  0  0  0  0  0
   10.0338   -6.6343    2.9958 N   0  0  0  0  0  0  0  0  0  0  0  0
   11.3135   -6.2765    3.3132 C   0  0  0  0  0  0  0  0  0  0  0  0
   11.8380   -5.4412    2.3445 C   0  0  0  0  0  0  0  0  0  0  0  0
   13.0814   -4.9319    2.3209 N   0  0  0  0  0  0  0  0  0  0  0  0
   13.7810   -5.3058    3.4119 C   0  0  0  0  0  0  0  0  0  0  0  0
   13.3912   -6.0992    4.4332 N   0  0  0  0  0  0  0  0  0  0  0  0
   12.1408   -6.6103    4.4018 C   0  0  0  0  0  0  0  0  0  0  0  0
   11.7394   -7.4321    5.4329 N   0  0  0  0  0  0  0  0  0  0  0  0
    3.6668    2.1389    0.1221 H   0  0  0  0  0  0  0  0  0  0  0  0
    6.0855    2.1620   -0.3774 H   0  0  0  0  0  0  0  0  0  0  0  0
    6.1301   -2.1386   -0.1170 H   0  0  0  0  0  0  0  0  0  0  0  0
    3.6775   -2.1741   -0.1121 H   0  0  0  0  0  0  0  0  0  0  0  0
    8.2709    0.6139    0.0865 H   0  0  0  0  0  0  0  0  0  0  0  0
    7.8714    0.4945   -1.6553 H   0  0  0  0  0  0  0  0  0  0  0  0
   10.1485   -0.6666   -0.3051 H   0  0  0  0  0  0  0  0  0  0  0  0
    9.7345   -0.8210   -2.0355 H   0  0  0  0  0  0  0  0  0  0  0  0
    9.4268   -4.7617   -3.4271 H   0  0  0  0  0  0  0  0  0  0  0  0
   10.9025   -6.8417   -1.3488 H   0  0  0  0  0  0  0  0  0  0  0  0
    7.8602   -6.7682    1.8683 H   0  0  0  0  0  0  0  0  0  0  0  0
    8.4259   -6.1901   -0.7138 H   0  0  0  0  0  0  0  0  0  0  0  0
    8.1868   -4.5435    0.2009 H   0  0  0  0  0  0  0  0  0  0  0  0
    6.6506   -4.0305   -1.6016 H   0  0  0  0  0  0  0  0  0  0  0  0
    4.4908   -4.5133   -2.5662 H   0  0  0  0  0  0  0  0  0  0  0  0
    6.6982   -7.8161    0.4620 H   0  0  0  0  0  0  0  0  0  0  0  0
    4.8328   -9.1784    0.4139 H   0  0  0  0  0  0  0  0  0  0  0  0
    2.3488   -9.1487    0.2084 H   0  0  0  0  0  0  0  0  0  0  0  0
    1.3746   -7.7258   -1.6189 H   0  0  0  0  0  0  0  0  0  0  0  0
   14.7915   -4.9141    3.4794 H   0  0  0  0  0  0  0  0  0  0  0  0
   12.3722   -7.5903    6.2012 H   0  0  0  0  0  0  0  0  0  0  0  0
   10.7962   -7.7928    5.4341 H   0  0  0  0  0  0  0  0  0  0  0  0
  1  2  3  0  0  0  0
  2  3  1  0  0  0  0
  3  4  2  0  0  0  0
  3  8  1  0  0  0  0
  4  5  1  0  0  0  0
  4 45  1  0  0  0  0
  5  6  2  0  0  0  0
  5 46  1  0  0  0  0
  6  7  1  0  0  0  0
  6  9  1  0  0  0  0
  7  8  2  0  0  0  0
  7 47  1  0  0  0  0
  8 48  1  0  0  0  0
  9 10  1  0  0  0  0
  9 49  1  0  0  0  0
  9 50  1  0  0  0  0
 10 11  1  0  0  0  0
 11 12  1  0  0  0  0
 11 51  1  0  0  0  0
 11 52  1  0  0  0  0
 12 13  1  6  0  0  0
 12 14  1  0  0  0  0
 12 19  1  0  0  0  0
 14 15  1  0  0  0  0
 15 17  1  0  0  0  0
 15 23  1  0  0  0  0
 15 16  1  6  0  0  0
 17 18  1  1  0  0  0
 17 19  1  0  0  0  0
 17 22  1  0  0  0  0
 19 20  1  1  0  0  0
 19 21  1  0  0  0  0
 21 53  1  0  0  0  0
 22 54  1  0  0  0  0
 23 24  1  0  0  0  0
 23 39  1  0  0  0  0
 24 25  1  0  0  0  0
 24 37  2  0  0  0  0
 25 26  1  0  0  0  0
 25 55  1  0  0  0  0
 26 27  1  0  0  0  0
 26 56  1  0  0  0  0
 26 57  1  0  0  0  0
 27 28  2  0  0  0  0
 27 32  1  0  0  0  0
 28 29  1  0  0  0  0
 28 58  1  0  0  0  0
 29 30  2  0  0  0  0
 29 59  1  0  0  0  0
 30 31  1  0  0  0  0
 30 36  1  0  0  0  0
 31 32  2  0  0  0  0
 31 33  1  0  0  0  0
 32 60  1  0  0  0  0
 33 34  2  0  0  0  0
 33 61  1  0  0  0  0
 34 35  1  0  0  0  0
 34 62  1  0  0  0  0
 35 36  2  0  0  0  0
 35 63  1  0  0  0  0
 37 38  1  0  0  0  0
 38 39  2  0  0  0  0
 38 43  1  0  0  0  0
 39 40  1  0  0  0  0
 40 41  2  0  0  0  0
 41 42  1  0  0  0  0
 41 64  1  0  0  0  0
 42 43  2  0  0  0  0
 43 44  1  0  0  0  0
 44 65  1  0  0  0  0
 44 66  1  0  0  0  0
M  END
$$$$
