3GU
 OpenBabel04121316053D

 45 48  0  0  1  0  0  0  0  0999 V2000
    1.0853    0.1378    0.0751 O   0  0  0  0  0  0  0  0  0  0  0  0
    2.5049    0.0454    0.0744 C   0  0  0  0  0  0  0  0  0  0  0  0
    2.9752   -1.0675   -0.8665 C   0  0  1  0  0  0  0  0  0  0  0  0
    2.8812   -0.7061   -1.9010 H   0  0  0  0  0  0  0  0  0  0  0  0
    4.3527   -1.4302   -0.6384 O   0  0  0  0  0  0  0  0  0  0  0  0
    4.4770   -2.7265   -1.2620 C   0  0  2  0  0  0  0  0  0  0  0  0
    4.5317   -2.5794   -2.3480 H   0  0  0  0  0  0  0  0  0  0  0  0
    3.1951   -3.4877   -0.9160 C   0  0  1  0  0  0  0  0  0  0  0  0
    3.3035   -4.0564    0.0131 H   0  0  0  0  0  0  0  0  0  0  0  0
    2.1796   -2.3627   -0.6870 C   0  0  2  0  0  0  0  0  0  0  0  0
    1.7989   -2.4328    0.3379 H   0  0  0  0  0  0  0  0  0  0  0  0
    1.0752   -2.4165   -1.5807 O   0  0  0  0  0  0  0  0  0  0  0  0
    2.7550   -4.4005   -1.9213 O   0  0  0  0  0  0  0  0  0  0  0  0
    5.7130   -3.3550   -0.8436 N   0  0  0  0  0  0  0  0  0  0  0  0
    6.0601   -3.8663    0.3773 C   0  0  0  0  0  0  0  0  0  0  0  0
    7.2985   -4.3262    0.3869 N   0  0  0  0  0  0  0  0  0  0  0  0
    7.7654   -4.1178   -0.8953 C   0  0  0  0  0  0  0  0  0  0  0  0
    6.7755   -3.5449   -1.6826 C   0  0  0  0  0  0  0  0  0  0  0  0
    6.8387   -3.2190   -2.9789 N   0  0  0  0  0  0  0  0  0  0  0  0
    8.0418   -3.5022   -3.4911 C   0  0  0  0  0  0  0  0  0  0  0  0
    9.0842   -4.0527   -2.8527 N   0  0  0  0  0  0  0  0  0  0  0  0
    8.9964   -4.3566   -1.5287 C   0  0  0  0  0  0  0  0  0  0  0  0
   10.1028   -4.8554   -0.8666 N   0  0  0  0  0  0  0  0  0  0  0  0
   11.3898   -4.9980   -1.5159 C   0  0  0  0  0  0  0  0  0  0  0  0
   11.3665   -6.0720   -2.6038 C   0  0  0  0  0  0  0  0  0  0  0  0
   12.5157   -5.6880   -3.5166 C   0  0  0  0  0  0  0  0  0  0  0  0
   12.5365   -4.1646   -3.5111 C   0  0  0  0  0  0  0  0  0  0  0  0
   11.8991   -3.7182   -2.1967 C   0  0  0  0  0  0  0  0  0  0  0  0
    0.8212    0.8242    0.7085 H   0  0  0  0  0  0  0  0  0  0  0  0
    2.8471   -0.1436    1.0967 H   0  0  0  0  0  0  0  0  0  0  0  0
    2.9152    1.0110   -0.2395 H   0  0  0  0  0  0  0  0  0  0  0  0
    0.7280   -3.3249   -1.5358 H   0  0  0  0  0  0  0  0  0  0  0  0
    3.4763   -5.0258   -2.1146 H   0  0  0  0  0  0  0  0  0  0  0  0
    5.3927   -3.8880    1.2282 H   0  0  0  0  0  0  0  0  0  0  0  0
    8.2049   -3.2512   -4.5324 H   0  0  0  0  0  0  0  0  0  0  0  0
   10.0080   -5.0213    0.1279 H   0  0  0  0  0  0  0  0  0  0  0  0
   12.1296   -5.2914   -0.7587 H   0  0  0  0  0  0  0  0  0  0  0  0
   10.4322   -6.0792   -3.1743 H   0  0  0  0  0  0  0  0  0  0  0  0
   11.4828   -7.0784   -2.1884 H   0  0  0  0  0  0  0  0  0  0  0  0
   12.3790   -6.0883   -4.5263 H   0  0  0  0  0  0  0  0  0  0  0  0
   13.4583   -6.0800   -3.1212 H   0  0  0  0  0  0  0  0  0  0  0  0
   11.9532   -3.7783   -4.3558 H   0  0  0  0  0  0  0  0  0  0  0  0
   13.5548   -3.7776   -3.6126 H   0  0  0  0  0  0  0  0  0  0  0  0
   11.1237   -2.9759   -2.4091 H   0  0  0  0  0  0  0  0  0  0  0  0
   12.6149   -3.1929   -1.5560 H   0  0  0  0  0  0  0  0  0  0  0  0
  1  2  1  0  0  0  0
  1 29  1  0  0  0  0
  2  3  1  0  0  0  0
  2 30  1  0  0  0  0
  2 31  1  0  0  0  0
  3  4  1  6  0  0  0
  3  5  1  0  0  0  0
  3 10  1  0  0  0  0
  5  6  1  0  0  0  0
  6  8  1  0  0  0  0
  6 14  1  0  0  0  0
  6  7  1  6  0  0  0
  8  9  1  1  0  0  0
  8 10  1  0  0  0  0
  8 13  1  0  0  0  0
 10 11  1  1  0  0  0
 10 12  1  0  0  0  0
 12 32  1  0  0  0  0
 13 33  1  0  0  0  0
 14 15  1  0  0  0  0
 14 18  1  0  0  0  0
 15 16  2  0  0  0  0
 15 34  1  0  0  0  0
 16 17  1  0  0  0  0
 17 18  2  0  0  0  0
 17 22  1  0  0  0  0
 18 19  1  0  0  0  0
 19 20  2  0  0  0  0
 20 21  1  0  0  0  0
 20 35  1  0  0  0  0
 21 22  2  0  0  0  0
 22 23  1  0  0  0  0
 23 24  1  0  0  0  0
 23 36  1  0  0  0  0
 24 25  1  0  0  0  0
 24 28  1  0  0  0  0
 24 37  1  0  0  0  0
 25 26  1  0  0  0  0
 25 38  1  0  0  0  0
 25 39  1  0  0  0  0
 26 27  1  0  0  0  0
 26 40  1  0  0  0  0
 26 41  1  0  0  0  0
 27 28  1  0  0  0  0
 27 42  1  0  0  0  0
 27 43  1  0  0  0  0
 28 44  1  0  0  0  0
 28 45  1  0  0  0  0
M  END
$$$$
