3HA
 OpenBabel04121316053D

 18 18  0  0  0  0  0  0  0  0999 V2000
    1.0048    0.0959   -0.1899 O   0  0  0  0  0  0  0  0  0  0  0  0
    2.3505   -0.0022   -0.1839 C   0  0  0  0  0  0  0  0  0  0  0  0
    2.9790   -0.8303   -0.8307 O   0  0  0  0  0  0  0  0  0  0  0  0
    2.9800    0.9619    0.7334 C   0  0  0  0  0  0  0  0  0  0  0  0
    2.8236    2.3306    0.4764 C   0  0  0  0  0  0  0  0  0  0  0  0
    3.1963    3.2551    1.4494 C   0  0  0  0  0  0  0  0  0  0  0  0
    3.9454    2.8395    2.5493 C   0  0  0  0  0  0  0  0  0  0  0  0
    4.2139    1.4809    2.7241 C   0  0  0  0  0  0  0  0  0  0  0  0
    3.6781    0.5081    1.8626 C   0  0  0  0  0  0  0  0  0  0  0  0
    3.6015   -0.8284    2.2997 N   0  0  0  0  0  0  0  0  0  0  0  0
    4.9996    1.0591    3.7671 O   0  0  0  0  0  0  0  0  0  0  0  0
    0.6450    0.7323    0.4593 H   0  0  0  0  0  0  0  0  0  0  0  0
    2.3968    2.6718   -0.4639 H   0  0  0  0  0  0  0  0  0  0  0  0
    2.8999    4.2969    1.3513 H   0  0  0  0  0  0  0  0  0  0  0  0
    4.2947    3.5791    3.2639 H   0  0  0  0  0  0  0  0  0  0  0  0
    4.3109   -1.0589    2.9927 H   0  0  0  0  0  0  0  0  0  0  0  0
    3.4864   -1.5260    1.5668 H   0  0  0  0  0  0  0  0  0  0  0  0
    5.4060    1.8359    4.1863 H   0  0  0  0  0  0  0  0  0  0  0  0
  1  2  1  0  0  0  0
  1 12  1  0  0  0  0
  2  3  2  0  0  0  0
  2  4  1  0  0  0  0
  4  5  2  0  0  0  0
  4  9  1  0  0  0  0
  5  6  1  0  0  0  0
  5 13  1  0  0  0  0
  6  7  2  0  0  0  0
  6 14  1  0  0  0  0
  7  8  1  0  0  0  0
  7 15  1  0  0  0  0
  8  9  2  0  0  0  0
  8 11  1  0  0  0  0
  9 10  1  0  0  0  0
 10 16  1  0  0  0  0
 10 17  1  0  0  0  0
 11 18  1  0  0  0  0
M  END
$$$$
