3HC
 OpenBabel04121316053D

 96 98  0  0  1  0  0  0  0  0999 V2000
    1.0322   -0.0043   -0.0338 C   0  0  0  0  0  0  0  0  0  0  0  0
    2.5546   -0.0948   -0.0354 C   0  0  1  0  0  0  0  0  0  0  0  0
    2.9250   -0.3133    0.9726 H   0  0  0  0  0  0  0  0  0  0  0  0
    3.0700   -1.1460   -1.0197 C   0  0  0  0  0  0  0  0  0  0  0  0
    2.6296   -2.5389   -0.6363 C   0  0  0  0  0  0  0  0  0  0  0  0
    1.9997   -2.8187    0.3956 O   0  0  0  0  0  0  0  0  0  0  0  0
    3.0873   -3.7994   -1.7656 S   0  0  0  0  0  0  0  0  0  0  0  0
    2.3014   -5.2438   -0.9755 C   0  0  0  0  0  0  0  0  0  0  0  0
    2.6369   -6.4818   -1.7912 C   0  0  0  0  0  0  0  0  0  0  0  0
    2.0511   -7.6921   -1.2609 N   0  0  0  0  0  0  0  0  0  0  0  0
    2.3024   -8.8712   -1.9289 C   0  0  0  0  0  0  0  0  0  0  0  0
    2.9807   -8.9353   -2.9331 O   0  0  0  0  0  0  0  0  0  0  0  0
    1.6580  -10.0582   -1.2775 C   0  0  0  0  0  0  0  0  0  0  0  0
    2.0346  -11.2886   -2.0495 C   0  0  0  0  0  0  0  0  0  0  0  0
    1.5444  -12.4394   -1.3364 N   0  0  0  0  0  0  0  0  0  0  0  0
    1.7937  -13.6768   -1.8420 C   0  0  0  0  0  0  0  0  0  0  0  0
    2.5120  -13.7274   -2.8330 O   0  0  0  0  0  0  0  0  0  0  0  0
    0.9654  -14.8747   -1.0698 C   0  0  1  0  0  0  0  0  0  0  0  0
    1.1883  -14.6609   -0.0222 H   0  0  0  0  0  0  0  0  0  0  0  0
   -0.6155  -14.7545   -1.3482 C   0  0  0  0  0  0  0  0  0  0  0  0
   -1.2012  -14.4490   -2.7769 C   0  0  0  0  0  0  0  0  0  0  0  0
   -0.4473  -13.4832   -3.5491 O   0  0  0  0  0  0  0  0  0  0  0  0
   -1.0337  -13.2517   -5.1601 P   0  0  1  0  0  0  0  0  0  0  0  0
   -0.3105  -11.9152   -5.2609 O   0  0  0  0  0  0  0  0  0  0  0  0
    0.0005  -14.5211   -5.7189 O   0  0  0  0  0  0  0  0  0  0  0  0
    0.8980  -15.1624   -4.3862 P   0  0  1  0  0  0  0  0  0  0  0  0
    0.0824  -16.4619   -4.3772 O   0  0  0  0  0  0  0  0  0  0  0  0
    2.1160  -15.6080   -5.4718 O   0  0  0  0  0  0  0  0  0  0  0  0
    2.0130  -15.2011   -6.8533 C   0  0  0  0  0  0  0  0  0  0  0  0
    3.0226  -15.8787   -7.7796 C   0  0  1  0  0  0  0  0  0  0  0  0
    2.7227  -15.6247   -8.8066 H   0  0  0  0  0  0  0  0  0  0  0  0
    4.3242  -15.3330   -7.5608 O   0  0  0  0  0  0  0  0  0  0  0  0
    5.2269  -16.2813   -8.1498 C   0  0  2  0  0  0  0  0  0  0  0  0
    5.2961  -16.0608   -9.2215 H   0  0  0  0  0  0  0  0  0  0  0  0
    4.6447  -17.6713   -7.8966 C   0  0  1  0  0  0  0  0  0  0  0  0
    5.0640  -18.1101   -6.9805 H   0  0  0  0  0  0  0  0  0  0  0  0
    3.1644  -17.4040   -7.6572 C   0  0  2  0  0  0  0  0  0  0  0  0
    2.9911  -17.7439   -6.6309 H   0  0  0  0  0  0  0  0  0  0  0  0
    2.3069  -18.1316   -8.5470 O   0  0  0  0  0  0  0  0  0  0  0  0
    0.6177  -17.8473   -8.3045 P   0  0  0  0  0  0  0  0  0  0  0  0
    0.2575  -19.2498   -8.7884 O   0  0  0  0  0  0  0  0  0  0  0  0
    0.7798  -18.0083   -6.6911 O   0  0  0  0  0  0  0  0  0  0  0  0
   -1.0714  -17.5629   -8.0621 O   0  0  0  0  0  0  0  0  0  0  0  0
    4.8893  -18.5740   -8.9669 O   0  0  0  0  0  0  0  0  0  0  0  0
    6.5460  -16.1249   -7.5806 N   0  0  0  0  0  0  0  0  0  0  0  0
    6.8921  -15.4262   -6.4568 C   0  0  0  0  0  0  0  0  0  0  0  0
    8.1831  -15.5072   -6.2099 N   0  0  0  0  0  0  0  0  0  0  0  0
    8.6865  -16.3036   -7.2178 C   0  0  0  0  0  0  0  0  0  0  0  0
    7.6791  -16.7143   -8.0732 C   0  0  0  0  0  0  0  0  0  0  0  0
    7.7937  -17.5218   -9.1430 N   0  0  0  0  0  0  0  0  0  0  0  0
    9.0861  -17.8789   -9.3277 C   0  0  0  0  0  0  0  0  0  0  0  0
   10.1664  -17.5482   -8.5853 N   0  0  0  0  0  0  0  0  0  0  0  0
    9.9838  -16.7542   -7.5054 C   0  0  0  0  0  0  0  0  0  0  0  0
   11.0697  -16.4180   -6.7309 N   0  0  0  0  0  0  0  0  0  0  0  0
    1.7956  -15.8037   -3.0536 O   0  0  0  0  0  0  0  0  0  0  0  0
   -1.6201  -13.0203   -6.7712 O   0  0  0  0  0  0  0  0  0  0  0  0
   -1.2925  -16.0707   -0.8810 C   0  0  0  0  0  0  0  0  0  0  0  0
   -1.1175  -13.5770   -0.5207 C   0  0  0  0  0  0  0  0  0  0  0  0
    1.2947  -16.2846   -1.0500 O   0  0  0  0  0  0  0  0  0  0  0  0
    3.0786    1.1814   -0.4128 O   0  0  0  0  0  0  0  0  0  0  0  0
    0.5590   -0.9445    0.2575 H   0  0  0  0  0  0  0  0  0  0  0  0
    0.6606    0.2708   -1.0263 H   0  0  0  0  0  0  0  0  0  0  0  0
    0.6927    0.7650    0.6660 H   0  0  0  0  0  0  0  0  0  0  0  0
    4.1676   -1.1138   -1.0427 H   0  0  0  0  0  0  0  0  0  0  0  0
    2.7264   -0.9028   -2.0338 H   0  0  0  0  0  0  0  0  0  0  0  0
    1.2142   -5.1099   -0.9334 H   0  0  0  0  0  0  0  0  0  0  0  0
    2.6639   -5.3692    0.0515 H   0  0  0  0  0  0  0  0  0  0  0  0
    3.7216   -6.6424   -1.8305 H   0  0  0  0  0  0  0  0  0  0  0  0
    2.2765   -6.3817   -2.8224 H   0  0  0  0  0  0  0  0  0  0  0  0
    1.4887   -7.6834   -0.4204 H   0  0  0  0  0  0  0  0  0  0  0  0
    0.5682   -9.9442   -1.2585 H   0  0  0  0  0  0  0  0  0  0  0  0
    2.0120  -10.1572   -0.2454 H   0  0  0  0  0  0  0  0  0  0  0  0
    3.1214  -11.3936   -2.1594 H   0  0  0  0  0  0  0  0  0  0  0  0
    1.6114  -11.2761   -3.0659 H   0  0  0  0  0  0  0  0  0  0  0  0
    1.0688  -12.3423   -0.4569 H   0  0  0  0  0  0  0  0  0  0  0  0
   -2.2415  -14.1064   -2.7254 H   0  0  0  0  0  0  0  0  0  0  0  0
   -1.3310  -15.3726   -3.3366 H   0  0  0  0  0  0  0  0  0  0  0  0
    2.0834  -14.1084   -6.9121 H   0  0  0  0  0  0  0  0  0  0  0  0
    1.0331  -15.4869   -7.2523 H   0  0  0  0  0  0  0  0  0  0  0  0
    0.9994  -17.2247   -6.1469 H   0  0  0  0  0  0  0  0  0  0  0  0
   -1.5106  -18.1523   -8.7071 H   0  0  0  0  0  0  0  0  0  0  0  0
    5.8561  -18.6886   -9.0397 H   0  0  0  0  0  0  0  0  0  0  0  0
    6.1718  -14.8795   -5.8587 H   0  0  0  0  0  0  0  0  0  0  0  0
    9.2878  -18.5153  -10.1859 H   0  0  0  0  0  0  0  0  0  0  0  0
   11.9802  -16.7572   -6.9918 H   0  0  0  0  0  0  0  0  0  0  0  0
   10.9227  -15.8135   -5.9343 H   0  0  0  0  0  0  0  0  0  0  0  0
    1.1220  -16.4952   -2.8155 H   0  0  0  0  0  0  0  0  0  0  0  0
   -2.0856  -12.1637   -6.8051 H   0  0  0  0  0  0  0  0  0  0  0  0
   -1.0358  -16.9116   -1.5439 H   0  0  0  0  0  0  0  0  0  0  0  0
   -2.3827  -15.9935   -0.8818 H   0  0  0  0  0  0  0  0  0  0  0  0
   -0.9651  -16.3378    0.1290 H   0  0  0  0  0  0  0  0  0  0  0  0
   -0.8342  -12.6358   -0.9996 H   0  0  0  0  0  0  0  0  0  0  0  0
   -0.7047  -13.6117    0.4882 H   0  0  0  0  0  0  0  0  0  0  0  0
   -2.2065  -13.5640   -0.4708 H   0  0  0  0  0  0  0  0  0  0  0  0
    2.1630  -16.3824   -1.5107 H   0  0  0  0  0  0  0  0  0  0  0  0
    2.7464    1.8357    0.2284 H   0  0  0  0  0  0  0  0  0  0  0  0
  1  2  1  0  0  0  0
  1 61  1  0  0  0  0
  1 62  1  0  0  0  0
  1 63  1  0  0  0  0
  2  3  1  1  0  0  0
  2  4  1  0  0  0  0
  2 60  1  0  0  0  0
  4  5  1  0  0  0  0
  4 64  1  0  0  0  0
  4 65  1  0  0  0  0
  5  6  2  0  0  0  0
  5  7  1  0  0  0  0
  7  8  1  0  0  0  0
  8  9  1  0  0  0  0
  8 66  1  0  0  0  0
  8 67  1  0  0  0  0
  9 10  1  0  0  0  0
  9 68  1  0  0  0  0
  9 69  1  0  0  0  0
 10 11  1  0  0  0  0
 10 70  1  0  0  0  0
 11 12  2  0  0  0  0
 11 13  1  0  0  0  0
 13 14  1  0  0  0  0
 13 71  1  0  0  0  0
 13 72  1  0  0  0  0
 14 15  1  0  0  0  0
 14 73  1  0  0  0  0
 14 74  1  0  0  0  0
 15 16  1  0  0  0  0
 15 75  1  0  0  0  0
 16 17  2  0  0  0  0
 16 18  1  0  0  0  0
 18 19  1  1  0  0  0
 18 20  1  0  0  0  0
 18 59  1  0  0  0  0
 20 21  1  0  0  0  0
 20 57  1  0  0  0  0
 20 58  1  0  0  0  0
 21 22  1  0  0  0  0
 21 76  1  0  0  0  0
 21 77  1  0  0  0  0
 23 22  1  1  0  0  0
 23 24  2  0  0  0  0
 23 25  1  0  0  0  0
 23 56  1  0  0  0  0
 26 25  1  1  0  0  0
 26 27  2  0  0  0  0
 26 28  1  0  0  0  0
 26 55  1  0  0  0  0
 28 29  1  0  0  0  0
 29 30  1  0  0  0  0
 29 78  1  0  0  0  0
 29 79  1  0  0  0  0
 30 31  1  6  0  0  0
 30 32  1  0  0  0  0
 30 37  1  0  0  0  0
 32 33  1  0  0  0  0
 33 35  1  0  0  0  0
 33 45  1  0  0  0  0
 33 34  1  6  0  0  0
 35 36  1  1  0  0  0
 35 37  1  0  0  0  0
 35 44  1  0  0  0  0
 37 38  1  1  0  0  0
 37 39  1  0  0  0  0
 39 40  1  0  0  0  0
 40 41  2  0  0  0  0
 40 42  1  0  0  0  0
 40 43  1  0  0  0  0
 42 80  1  0  0  0  0
 43 81  1  0  0  0  0
 44 82  1  0  0  0  0
 45 46  1  0  0  0  0
 45 49  1  0  0  0  0
 46 47  2  0  0  0  0
 46 83  1  0  0  0  0
 47 48  1  0  0  0  0
 48 49  2  0  0  0  0
 48 53  1  0  0  0  0
 49 50  1  0  0  0  0
 50 51  2  0  0  0  0
 51 52  1  0  0  0  0
 51 84  1  0  0  0  0
 52 53  2  0  0  0  0
 53 54  1  0  0  0  0
 54 85  1  0  0  0  0
 54 86  1  0  0  0  0
 55 87  1  0  0  0  0
 56 88  1  0  0  0  0
 57 89  1  0  0  0  0
 57 90  1  0  0  0  0
 57 91  1  0  0  0  0
 58 92  1  0  0  0  0
 58 93  1  0  0  0  0
 58 94  1  0  0  0  0
 59 95  1  0  0  0  0
 60 96  1  0  0  0  0
M  END
$$$$
