3HL
 OpenBabel04121316053D

 15 14  0  0  1  0  0  0  0  0999 V2000
    1.0554   -0.0423   -0.0523 C   0  0  0  0  0  0  0  0  0  0  0  0
    2.5790    0.0487   -0.0397 C   0  0  1  0  0  0  0  0  0  0  0  0
    2.9499    0.3459   -1.0274 H   0  0  0  0  0  0  0  0  0  0  0  0
    3.0958    1.0215    1.0250 C   0  0  0  0  0  0  0  0  0  0  0  0
    2.6457    2.4322    0.7261 C   0  0  0  0  0  0  0  0  0  0  0  0
    2.0266    2.7728   -0.2744 O   0  0  0  0  0  0  0  0  0  0  0  0
    2.9965    3.3332    1.6671 O   0  0  0  0  0  0  0  0  0  0  0  0
    3.1035   -1.2540    0.2348 O   0  0  0  0  0  0  0  0  0  0  0  0
    0.5796    0.9168   -0.2685 H   0  0  0  0  0  0  0  0  0  0  0  0
    0.6816   -0.3957    0.9140 H   0  0  0  0  0  0  0  0  0  0  0  0
    0.7176   -0.7520   -0.8133 H   0  0  0  0  0  0  0  0  0  0  0  0
    4.1925    0.9962    1.0447 H   0  0  0  0  0  0  0  0  0  0  0  0
    2.7445    0.7109    2.0166 H   0  0  0  0  0  0  0  0  0  0  0  0
    3.5250    2.9765    2.4042 H   0  0  0  0  0  0  0  0  0  0  0  0
    2.7696   -1.8495   -0.4617 H   0  0  0  0  0  0  0  0  0  0  0  0
  1  2  1  0  0  0  0
  1  9  1  0  0  0  0
  1 10  1  0  0  0  0
  1 11  1  0  0  0  0
  2  3  1  6  0  0  0
  2  4  1  0  0  0  0
  2  8  1  0  0  0  0
  4  5  1  0  0  0  0
  4 12  1  0  0  0  0
  4 13  1  0  0  0  0
  5  6  2  0  0  0  0
  5  7  1  0  0  0  0
  7 14  1  0  0  0  0
  8 15  1  0  0  0  0
M  END
$$$$
