3HX
 OpenBabel04121316053D

 39 38  0  0  1  0  0  0  0  0999 V2000
    6.5596   -3.3418    0.7657 N   0  0  0  0  0  0  0  0  0  0  0  0
    5.8480   -2.1421    0.3372 C   0  0  0  0  0  0  0  0  0  0  0  0
    6.6291   -0.7593    0.3180 C   0  0  0  0  0  0  0  0  0  0  0  0
    5.8655    0.5103    0.0102 N   0  0  0  0  0  0  0  0  0  0  0  0
    4.9792    0.9893    1.1191 C   0  0  0  0  0  0  0  0  0  0  0  0
    4.1555   -0.1909    1.6220 C   0  0  2  0  0  0  0  0  0  0  0  0
    4.2659   -0.8368    0.7758 H   0  0  0  0  0  0  0  0  0  0  0  0
    2.6669   -0.2968    1.5064 C   0  0  0  0  0  0  0  0  0  0  0  0
    2.2572    0.0415    0.0618 C   0  0  0  0  0  0  0  0  0  0  0  0
    0.7679   -0.0090    0.0136 C   0  0  0  0  0  0  0  0  0  0  0  0
    0.2264    0.4191   -1.2543 N   0  0  0  0  0  0  0  0  0  0  0  0
   -1.1254    0.4952   -1.4402 C   0  0  0  0  0  0  0  0  0  0  0  0
   -1.9314    0.1649   -0.4864 N   0  0  0  0  0  0  0  0  0  0  0  0
   -1.5117    0.9284   -2.6629 N   0  0  0  0  0  0  0  0  0  0  0  0
   -2.8100    1.0514   -3.0123 N   0  3  0  0  0  0  0  0  0  0  0  0
   -3.7212    0.7724   -2.2191 O   0  0  0  0  0  0  0  0  0  0  0  0
   -2.9606    1.4546   -4.1591 O   0  5  0  0  0  0  0  0  0  0  0  0
    4.7146   -0.7606    2.8478 N   0  0  0  0  0  0  0  0  0  0  0  0
    6.8664    1.5681   -0.0988 O   0  0  0  0  0  0  0  0  0  0  0  0
    5.8242   -4.0341    0.9626 H   0  0  0  0  0  0  0  0  0  0  0  0
    6.9163   -3.1296    1.7029 H   0  0  0  0  0  0  0  0  0  0  0  0
    5.1032   -2.2122    1.1163 H   0  0  0  0  0  0  0  0  0  0  0  0
    5.2824   -2.2783   -0.5939 H   0  0  0  0  0  0  0  0  0  0  0  0
    7.3656   -0.8689   -0.4858 H   0  0  0  0  0  0  0  0  0  0  0  0
    7.1801   -0.6222    1.2548 H   0  0  0  0  0  0  0  0  0  0  0  0
    4.3175    1.7823    0.7495 H   0  0  0  0  0  0  0  0  0  0  0  0
    5.5493    1.4430    1.9408 H   0  0  0  0  0  0  0  0  0  0  0  0
    2.1730    0.3076    2.2642 H   0  0  0  0  0  0  0  0  0  0  0  0
    2.3928   -1.3543    1.6845 H   0  0  0  0  0  0  0  0  0  0  0  0
    2.6821   -0.6715   -0.6638 H   0  0  0  0  0  0  0  0  0  0  0  0
    2.6156    1.0305   -0.2322 H   0  0  0  0  0  0  0  0  0  0  0  0
    0.3959    0.6509    0.8053 H   0  0  0  0  0  0  0  0  0  0  0  0
    0.4441   -1.0354    0.2250 H   0  0  0  0  0  0  0  0  0  0  0  0
    0.8914    0.6865   -1.9725 H   0  0  0  0  0  0  0  0  0  0  0  0
   -1.4535   -0.1361    0.3542 H   0  0  0  0  0  0  0  0  0  0  0  0
   -0.8214    1.1697   -3.3527 H   0  0  0  0  0  0  0  0  0  0  0  0
    4.3984   -1.7160    2.9987 H   0  0  0  0  0  0  0  0  0  0  0  0
    4.4500   -0.2137    3.6602 H   0  0  0  0  0  0  0  0  0  0  0  0
    7.2860    1.3718   -0.9570 H   0  0  0  0  0  0  0  0  0  0  0  0
  1  2  1  0  0  0  0
  1 20  1  0  0  0  0
  1 21  1  0  0  0  0
  2  3  1  0  0  0  0
  2 22  1  0  0  0  0
  2 23  1  0  0  0  0
  3  4  1  0  0  0  0
  3 24  1  0  0  0  0
  3 25  1  0  0  0  0
  4  5  1  0  0  0  0
  4 19  1  0  0  0  0
  5 26  1  0  0  0  0
  5 27  1  0  0  0  0
  6  8  1  0  0  0  0
  6 18  1  0  0  0  0
  6  7  1  6  0  0  0
  6  5  1  0  0  0  0
  8  9  1  0  0  0  0
  8 28  1  0  0  0  0
  8 29  1  0  0  0  0
  9 10  1  0  0  0  0
  9 30  1  0  0  0  0
  9 31  1  0  0  0  0
 10 11  1  0  0  0  0
 10 32  1  0  0  0  0
 10 33  1  0  0  0  0
 11 12  1  0  0  0  0
 11 34  1  0  0  0  0
 12 13  2  0  0  0  0
 12 14  1  0  0  0  0
 13 35  1  0  0  0  0
 14 15  1  0  0  0  0
 14 36  1  0  0  0  0
 15 16  2  0  0  0  0
 15 17  1  0  0  0  0
 18 37  1  0  0  0  0
 18 38  1  0  0  0  0
 19 39  1  0  0  0  0
M  CHG  2  15   1  17  -1
M  END
$$$$
