3IH
 OpenBabel04121316053D

 97 99  0  0  1  0  0  0  0  0999 V2000
   -1.8945    1.1498    7.0901 C   0  0  0  0  0  0  0  0  0  0  0  0
   -1.5348    0.8220    5.6469 C   0  0  0  0  0  0  0  0  0  0  0  0
   -2.4804   -0.1850    4.9528 C   0  0  0  0  0  0  0  0  0  0  0  0
   -2.2858   -1.6634    5.3542 C   0  0  1  0  0  0  0  0  0  0  0  0
   -1.2679   -2.0212    5.1646 H   0  0  0  0  0  0  0  0  0  0  0  0
   -2.6333   -1.7631    6.8450 C   0  0  0  0  0  0  0  0  0  0  0  0
   -3.8309   -1.8232    7.1483 O   0  0  0  0  0  0  0  0  0  0  0  0
   -1.6001   -1.5307    7.7805 N   0  0  0  0  0  0  0  0  0  0  0  0
   -1.8996   -1.3024    9.2151 C   0  0  1  0  0  0  0  0  0  0  0  0
   -2.9112   -0.8746    9.2858 H   0  0  0  0  0  0  0  0  0  0  0  0
   -1.8275   -2.6384    9.9162 C   0  0  0  0  0  0  0  0  0  0  0  0
   -2.8570   -3.5313    9.2643 C   0  0  2  0  0  0  0  0  0  0  0  0
   -3.6223   -2.9912    8.7377 H   0  0  0  0  0  0  0  0  0  0  0  0
   -3.6877   -4.3765   10.1932 C   0  0  0  0  0  0  0  0  0  0  0  0
   -2.8187   -5.5864   10.3604 C   0  0  0  0  0  0  0  0  0  0  0  0
   -2.2161   -5.7338    9.0834 N   0  0  0  0  0  0  0  0  0  0  0  0
   -2.0384   -4.5191    8.4584 C   0  0  0  0  0  0  0  0  0  0  0  0
   -1.1736   -4.3058    7.6563 O   0  0  0  0  0  0  0  0  0  0  0  0
   -0.9527   -0.3304    9.8858 C   0  0  0  0  0  0  0  0  0  0  0  0
   -0.9556   -0.0935   11.2146 C   0  0  0  0  0  0  0  0  0  0  0  0
    0.0548    0.8010   11.8164 C   0  0  0  0  0  0  0  0  0  0  0  0
    0.8937    1.4231   11.1872 O   0  0  0  0  0  0  0  0  0  0  0  0
   -0.0823    0.7787   13.1620 O   0  0  0  0  0  0  0  0  0  0  0  0
    0.8948    1.5844   13.8402 C   0  0  0  0  0  0  0  0  0  0  0  0
    0.6503    1.5131   15.3265 C   0  0  0  0  0  0  0  0  0  0  0  0
    0.2404    0.3166   15.9298 C   0  0  0  0  0  0  0  0  0  0  0  0
   -0.1635    0.3040   17.2630 C   0  0  0  0  0  0  0  0  0  0  0  0
   -0.0183    1.4480   18.0433 C   0  0  0  0  0  0  0  0  0  0  0  0
    0.5487    2.5964   17.4948 C   0  0  0  0  0  0  0  0  0  0  0  0
    0.8363    2.6462   16.1305 C   0  0  0  0  0  0  0  0  0  0  0  0
   -3.2469   -2.5246    4.6092 N   0  0  0  0  0  0  0  0  0  0  0  0
   -3.1383   -3.8845    4.8133 C   0  0  0  0  0  0  0  0  0  0  0  0
   -2.1027   -4.2983    5.3153 O   0  0  0  0  0  0  0  0  0  0  0  0
   -4.2145   -4.8847    4.2894 C   0  0  2  0  0  0  0  0  0  0  0  0
   -4.2538   -4.6917    3.2051 H   0  0  0  0  0  0  0  0  0  0  0  0
   -5.6635   -4.8755    4.8232 C   0  0  0  0  0  0  0  0  0  0  0  0
   -5.8215   -5.3203    6.2754 C   0  0  0  0  0  0  0  0  0  0  0  0
   -6.3307   -3.5252    4.6709 C   0  0  0  0  0  0  0  0  0  0  0  0
   -3.6593   -6.2438    4.4235 N   0  0  0  0  0  0  0  0  0  0  0  0
   -3.2818   -6.7791    5.6456 C   0  0  0  0  0  0  0  0  0  0  0  0
   -3.4475   -6.2050    6.7166 O   0  0  0  0  0  0  0  0  0  0  0  0
   -2.6608   -8.1792    5.6446 C   0  0  1  0  0  0  0  0  0  0  0  0
   -3.2735   -8.8401    5.0246 H   0  0  0  0  0  0  0  0  0  0  0  0
   -1.3156   -8.1219    5.1059 N   0  0  0  0  0  0  0  0  0  0  0  0
   -1.1110   -7.7591    3.7982 C   0  0  0  0  0  0  0  0  0  0  0  0
   -2.0294   -7.5544    3.0033 O   0  0  0  0  0  0  0  0  0  0  0  0
    0.2581   -7.5436    3.4003 C   0  0  0  0  0  0  0  0  0  0  0  0
    1.2838   -8.3046    3.8125 N   0  0  0  0  0  0  0  0  0  0  0  0
    2.3765   -7.8688    3.0677 O   0  0  0  0  0  0  0  0  0  0  0  0
    1.9925   -6.8315    2.2765 C   0  0  0  0  0  0  0  0  0  0  0  0
    0.6673   -6.5720    2.4674 C   0  0  0  0  0  0  0  0  0  0  0  0
    2.9882   -6.2064    1.4004 C   0  0  0  0  0  0  0  0  0  0  0  0
   -2.6430   -8.6782    7.0931 C   0  0  0  0  0  0  0  0  0  0  0  0
   -1.6201    2.2012    5.0239 C   0  0  0  0  0  0  0  0  0  0  0  0
   -2.2574    0.3192    7.6198 H   0  0  0  0  0  0  0  0  0  0  0  0
   -2.7776    1.7759    7.2124 H   0  0  0  0  0  0  0  0  0  0  0  0
   -1.0350    1.5484    7.6349 H   0  0  0  0  0  0  0  0  0  0  0  0
   -0.5110    0.4273    5.5672 H   0  0  0  0  0  0  0  0  0  0  0  0
   -2.3544   -0.1198    3.8656 H   0  0  0  0  0  0  0  0  0  0  0  0
   -3.5175    0.1095    5.1635 H   0  0  0  0  0  0  0  0  0  0  0  0
   -0.6800   -1.2872    7.4367 H   0  0  0  0  0  0  0  0  0  0  0  0
   -1.9845   -2.5728   10.9928 H   0  0  0  0  0  0  0  0  0  0  0  0
   -0.8026   -3.0140    9.7670 H   0  0  0  0  0  0  0  0  0  0  0  0
   -4.6192   -4.6356    9.6675 H   0  0  0  0  0  0  0  0  0  0  0  0
   -3.9522   -3.8426   11.1075 H   0  0  0  0  0  0  0  0  0  0  0  0
   -3.3777   -6.4777   10.6239 H   0  0  0  0  0  0  0  0  0  0  0  0
   -2.0140   -5.3791   11.0712 H   0  0  0  0  0  0  0  0  0  0  0  0
   -1.6499   -6.4876    8.7389 H   0  0  0  0  0  0  0  0  0  0  0  0
   -0.2342    0.2092    9.2760 H   0  0  0  0  0  0  0  0  0  0  0  0
   -1.6561   -0.5695   11.8939 H   0  0  0  0  0  0  0  0  0  0  0  0
    0.7851    2.6221   13.5015 H   0  0  0  0  0  0  0  0  0  0  0  0
    1.9060    1.2232   13.6214 H   0  0  0  0  0  0  0  0  0  0  0  0
    0.1972   -0.6024   15.3499 H   0  0  0  0  0  0  0  0  0  0  0  0
   -0.5963   -0.5969   17.6888 H   0  0  0  0  0  0  0  0  0  0  0  0
   -0.3399    1.4409   19.0808 H   0  0  0  0  0  0  0  0  0  0  0  0
    0.7456    3.4597   18.1249 H   0  0  0  0  0  0  0  0  0  0  0  0
    1.1894    3.5797   15.6971 H   0  0  0  0  0  0  0  0  0  0  0  0
   -4.0578   -2.1083    4.1751 H   0  0  0  0  0  0  0  0  0  0  0  0
   -6.2262   -5.6052    4.2182 H   0  0  0  0  0  0  0  0  0  0  0  0
   -5.1772   -4.7161    6.9240 H   0  0  0  0  0  0  0  0  0  0  0  0
   -5.5969   -6.3866    6.3778 H   0  0  0  0  0  0  0  0  0  0  0  0
   -6.8429   -5.2359    6.6444 H   0  0  0  0  0  0  0  0  0  0  0  0
   -5.8240   -2.7773    5.2846 H   0  0  0  0  0  0  0  0  0  0  0  0
   -7.3679   -3.5810    5.0155 H   0  0  0  0  0  0  0  0  0  0  0  0
   -6.3262   -3.2030    3.6273 H   0  0  0  0  0  0  0  0  0  0  0  0
   -3.2166   -6.6412    3.5969 H   0  0  0  0  0  0  0  0  0  0  0  0
   -0.5173   -8.1331    5.7325 H   0  0  0  0  0  0  0  0  0  0  0  0
    0.0627   -5.8168    1.9878 H   0  0  0  0  0  0  0  0  0  0  0  0
    3.9663   -6.6837    1.4796 H   0  0  0  0  0  0  0  0  0  0  0  0
    3.0851   -5.1489    1.6637 H   0  0  0  0  0  0  0  0  0  0  0  0
    2.6491   -6.2655    0.3608 H   0  0  0  0  0  0  0  0  0  0  0  0
   -3.6529   -8.6861    7.5234 H   0  0  0  0  0  0  0  0  0  0  0  0
   -2.0398   -8.0174    7.7174 H   0  0  0  0  0  0  0  0  0  0  0  0
   -2.2002   -9.6692    7.1919 H   0  0  0  0  0  0  0  0  0  0  0  0
   -2.6195    2.6157    5.2100 H   0  0  0  0  0  0  0  0  0  0  0  0
   -1.4330    2.1943    3.9542 H   0  0  0  0  0  0  0  0  0  0  0  0
   -0.8956    2.8579    5.5217 H   0  0  0  0  0  0  0  0  0  0  0  0
  1  2  1  0  0  0  0
  1 55  1  0  0  0  0
  1 56  1  0  0  0  0
  1 57  1  0  0  0  0
  2  3  1  0  0  0  0
  2 54  1  0  0  0  0
  2 58  1  0  0  0  0
  3  4  1  0  0  0  0
  3 59  1  0  0  0  0
  3 60  1  0  0  0  0
  4  5  1  6  0  0  0
  4  6  1  0  0  0  0
  4 31  1  0  0  0  0
  6  7  2  0  0  0  0
  6  8  1  0  0  0  0
  8  9  1  0  0  0  0
  8 61  1  0  0  0  0
  9 10  1  1  0  0  0
  9 11  1  0  0  0  0
  9 19  1  0  0  0  0
 11 62  1  0  0  0  0
 11 63  1  0  0  0  0
 12 14  1  0  0  0  0
 12 17  1  0  0  0  0
 12 13  1  6  0  0  0
 12 11  1  0  0  0  0
 14 15  1  0  0  0  0
 14 64  1  0  0  0  0
 14 65  1  0  0  0  0
 15 16  1  0  0  0  0
 15 66  1  0  0  0  0
 15 67  1  0  0  0  0
 16 17  1  0  0  0  0
 16 68  1  0  0  0  0
 17 18  2  0  0  0  0
 19 20  2  0  0  0  0
 19 69  1  0  0  0  0
 20 21  1  0  0  0  0
 20 70  1  0  0  0  0
 21 22  2  0  0  0  0
 21 23  1  0  0  0  0
 23 24  1  0  0  0  0
 24 25  1  0  0  0  0
 24 71  1  0  0  0  0
 24 72  1  0  0  0  0
 25 26  2  0  0  0  0
 25 30  1  0  0  0  0
 26 27  1  0  0  0  0
 26 73  1  0  0  0  0
 27 28  2  0  0  0  0
 27 74  1  0  0  0  0
 28 29  1  0  0  0  0
 28 75  1  0  0  0  0
 29 30  2  0  0  0  0
 29 76  1  0  0  0  0
 30 77  1  0  0  0  0
 31 32  1  0  0  0  0
 31 78  1  0  0  0  0
 32 33  2  0  0  0  0
 34 36  1  0  0  0  0
 34 39  1  0  0  0  0
 34 35  1  6  0  0  0
 34 32  1  0  0  0  0
 36 37  1  0  0  0  0
 36 38  1  0  0  0  0
 36 79  1  0  0  0  0
 37 80  1  0  0  0  0
 37 81  1  0  0  0  0
 37 82  1  0  0  0  0
 38 83  1  0  0  0  0
 38 84  1  0  0  0  0
 38 85  1  0  0  0  0
 39 40  1  0  0  0  0
 39 86  1  0  0  0  0
 40 41  2  0  0  0  0
 40 42  1  0  0  0  0
 42 43  1  6  0  0  0
 42 44  1  0  0  0  0
 42 53  1  0  0  0  0
 44 45  1  0  0  0  0
 44 87  1  0  0  0  0
 45 46  2  0  0  0  0
 45 47  1  0  0  0  0
 47 48  2  0  0  0  0
 47 51  1  0  0  0  0
 48 49  1  0  0  0  0
 49 50  1  0  0  0  0
 50 51  2  0  0  0  0
 50 52  1  0  0  0  0
 51 88  1  0  0  0  0
 52 89  1  0  0  0  0
 52 90  1  0  0  0  0
 52 91  1  0  0  0  0
 53 92  1  0  0  0  0
 53 93  1  0  0  0  0
 53 94  1  0  0  0  0
 54 95  1  0  0  0  0
 54 96  1  0  0  0  0
 54 97  1  0  0  0  0
M  END
$$$$
