3IO
 OpenBabel04121316053D

 24 25  0  0  0  0  0  0  0  0999 V2000
    0.9622   -0.0621    0.0591 O   0  0  0  0  0  0  0  0  0  0  0  0
    2.3039   -0.1365    0.1256 C   0  0  0  0  0  0  0  0  0  0  0  0
    2.9475   -0.5624    1.0666 O   0  0  0  0  0  0  0  0  0  0  0  0
    2.9601    0.3939   -1.1348 C   0  0  0  0  0  0  0  0  0  0  0  0
    2.2040    0.7970   -2.0166 O   0  0  0  0  0  0  0  0  0  0  0  0
    4.4764    0.3866   -1.1365 C   0  0  0  0  0  0  0  0  0  0  0  0
    4.9961    0.9466   -2.4159 C   0  0  0  0  0  0  0  0  0  0  0  0
    4.9520    2.2788   -2.7762 C   0  0  0  0  0  0  0  0  0  0  0  0
    5.3711    2.3834   -4.0723 N   0  0  0  0  0  0  0  0  0  0  0  0
    5.3784    3.2382   -4.6105 H   0  0  0  0  0  0  0  0  0  0  0  0
    5.7436    1.1490   -4.5526 C   0  0  0  0  0  0  0  0  0  0  0  0
    5.5403    0.2273   -3.5245 C   0  0  0  0  0  0  0  0  0  0  0  0
    5.8427   -1.1291   -3.7648 C   0  0  0  0  0  0  0  0  0  0  0  0
    6.3395   -1.5131   -5.0151 C   0  0  0  0  0  0  0  0  0  0  0  0
    6.5251   -0.5708   -6.0233 C   0  0  0  0  0  0  0  0  0  0  0  0
    6.2250    0.7789   -5.8140 C   0  0  0  0  0  0  0  0  0  0  0  0
    0.6859    0.3415   -0.7983 H   0  0  0  0  0  0  0  0  0  0  0  0
    4.8325   -0.6386   -0.9870 H   0  0  0  0  0  0  0  0  0  0  0  0
    4.8371    0.9978   -0.3005 H   0  0  0  0  0  0  0  0  0  0  0  0
    4.5876    3.1426   -2.2359 H   0  0  0  0  0  0  0  0  0  0  0  0
    5.6970   -1.8760   -2.9905 H   0  0  0  0  0  0  0  0  0  0  0  0
    6.5775   -2.5578   -5.1996 H   0  0  0  0  0  0  0  0  0  0  0  0
    6.9089   -0.8893   -6.9897 H   0  0  0  0  0  0  0  0  0  0  0  0
    6.3610    1.5072   -6.6065 H   0  0  0  0  0  0  0  0  0  0  0  0
  1  2  1  0  0  0  0
  1 17  1  0  0  0  0
  2  3  2  0  0  0  0
  2  4  1  0  0  0  0
  4  5  2  0  0  0  0
  4  6  1  0  0  0  0
  6  7  1  0  0  0  0
  6 18  1  0  0  0  0
  6 19  1  0  0  0  0
  7  8  2  0  0  0  0
  7 12  1  0  0  0  0
  8  9  1  0  0  0  0
  8 20  1  0  0  0  0
  9 10  1  0  0  0  0
  9 11  1  0  0  0  0
 11 12  2  0  0  0  0
 11 16  1  0  0  0  0
 12 13  1  0  0  0  0
 13 14  2  0  0  0  0
 13 21  1  0  0  0  0
 14 15  1  0  0  0  0
 14 22  1  0  0  0  0
 15 16  2  0  0  0  0
 15 23  1  0  0  0  0
 16 24  1  0  0  0  0
M  END
$$$$
