3JZ
 OpenBabel04121316053D

 56 59  0  0  0  0  0  0  0  0999 V2000
    1.3189    0.3462    0.0026 O   0  0  0  0  0  0  0  0  0  0  0  0
    2.5007    0.0893   -0.0022 C   0  0  0  0  0  0  0  0  0  0  0  0
    3.5531    1.0072    0.0001 N   0  0  0  0  0  0  0  0  0  0  0  0
    4.7761    0.3563    0.0006 C   0  0  0  0  0  0  0  0  0  0  0  0
    4.5761   -1.0223   -0.0025 C   0  0  0  0  0  0  0  0  0  0  0  0
    3.1171   -1.3112   -0.0181 C   0  0  0  0  0  0  0  0  0  0  0  0
    5.6103   -1.9447   -0.0015 C   0  0  0  0  0  0  0  0  0  0  0  0
    6.9131   -1.4668    0.0006 C   0  0  0  0  0  0  0  0  0  0  0  0
    7.0772   -0.0483    0.0057 C   0  0  0  0  0  0  0  0  0  0  0  0
    6.0323    0.8790    0.0030 C   0  0  0  0  0  0  0  0  0  0  0  0
    7.9900   -2.3804   -0.0074 N   0  0  0  0  0  0  0  0  0  0  0  0
    9.3528   -2.0837   -0.0157 C   0  0  0  0  0  0  0  0  0  0  0  0
    9.6719   -0.7904   -0.0232 N   0  0  0  0  0  0  0  0  0  0  0  0
   10.9266   -0.3886   -0.0163 C   0  0  0  0  0  0  0  0  0  0  0  0
   11.9440   -1.2702   -0.0049 C   0  0  0  0  0  0  0  0  0  0  0  0
   11.5824   -2.5984   -0.0037 C   0  0  0  0  0  0  0  0  0  0  0  0
   10.2932   -3.0323   -0.0087 N   0  0  0  0  0  0  0  0  0  0  0  0
   12.6266   -3.4852    0.1428 N   0  0  0  0  0  0  0  0  0  0  0  0
   12.4117   -4.8850    0.0386 C   0  0  0  0  0  0  0  0  0  0  0  0
   13.6721   -5.7044   -0.0065 C   0  0  0  0  0  0  0  0  0  0  0  0
   14.9368   -5.0344   -0.0596 C   0  0  0  0  0  0  0  0  0  0  0  0
   16.1272   -5.6839   -0.3138 C   0  0  0  0  0  0  0  0  0  0  0  0
   16.1071   -7.0414   -0.3131 C   0  0  0  0  0  0  0  0  0  0  0  0
   14.9037   -7.6906   -0.0421 C   0  0  0  0  0  0  0  0  0  0  0  0
   13.6271   -7.1128   -0.0265 C   0  0  0  0  0  0  0  0  0  0  0  0
   12.4019   -7.9321    0.1116 N   0  0  0  0  0  0  0  0  0  0  0  0
   12.2995   -9.6373    0.0255 S   0  0  0  0  0  0  0  0  0  0  0  0
   11.6521  -10.0510    1.2564 O   0  0  0  0  0  0  0  0  0  0  0  0
   11.6867   -9.9673   -1.2480 O   0  0  0  0  0  0  0  0  0  0  0  0
   13.8975  -10.4123    0.0188 C   0  0  0  0  0  0  0  0  0  0  0  0
   10.9971   -7.4046    0.0227 C   0  0  0  0  0  0  0  0  0  0  0  0
   13.3293   -0.7589    0.0065 C   0  0  0  0  0  0  0  0  0  0  0  0
   13.5902    0.0151   -1.0819 F   0  0  0  0  0  0  0  0  0  0  0  0
   13.5861    0.0123    1.0949 F   0  0  0  0  0  0  0  0  0  0  0  0
   14.3033   -1.7153   -0.0033 F   0  0  0  0  0  0  0  0  0  0  0  0
    3.4030    2.0057    0.0038 H   0  0  0  0  0  0  0  0  0  0  0  0
    2.8413   -1.8650    0.8798 H   0  0  0  0  0  0  0  0  0  0  0  0
    2.8599   -1.8276   -0.9438 H   0  0  0  0  0  0  0  0  0  0  0  0
    5.3826   -3.0041   -0.0048 H   0  0  0  0  0  0  0  0  0  0  0  0
    8.0502    0.4191    0.0123 H   0  0  0  0  0  0  0  0  0  0  0  0
    6.2621    1.9379    0.0015 H   0  0  0  0  0  0  0  0  0  0  0  0
    7.7902   -3.3694   -0.0074 H   0  0  0  0  0  0  0  0  0  0  0  0
   11.0694    0.6838   -0.0130 H   0  0  0  0  0  0  0  0  0  0  0  0
   13.5217   -3.1435   -0.1630 H   0  0  0  0  0  0  0  0  0  0  0  0
   11.8780   -5.0814   -0.9011 H   0  0  0  0  0  0  0  0  0  0  0  0
   11.8677   -5.1436    0.9507 H   0  0  0  0  0  0  0  0  0  0  0  0
   15.0494   -3.9713    0.1066 H   0  0  0  0  0  0  0  0  0  0  0  0
   17.0533   -5.1373   -0.4408 H   0  0  0  0  0  0  0  0  0  0  0  0
   17.0158   -7.6225   -0.4325 H   0  0  0  0  0  0  0  0  0  0  0  0
   15.1148   -8.6915    0.2334 H   0  0  0  0  0  0  0  0  0  0  0  0
   14.3842  -10.2010    0.9756 H   0  0  0  0  0  0  0  0  0  0  0  0
   14.4405  -10.0937   -0.8767 H   0  0  0  0  0  0  0  0  0  0  0  0
   13.7903  -11.4924   -0.0437 H   0  0  0  0  0  0  0  0  0  0  0  0
   10.8201   -6.3470    0.0022 H   0  0  0  0  0  0  0  0  0  0  0  0
   10.4380   -7.7151    0.9103 H   0  0  0  0  0  0  0  0  0  0  0  0
   10.4989   -7.7374   -0.8936 H   0  0  0  0  0  0  0  0  0  0  0  0
  1  2  2  0  0  0  0
  2  3  1  0  0  0  0
  2  6  1  0  0  0  0
  3  4  1  0  0  0  0
  3 36  1  0  0  0  0
  4  5  2  0  0  0  0
  4 10  1  0  0  0  0
  5  6  1  0  0  0  0
  5  7  1  0  0  0  0
  6 37  1  0  0  0  0
  6 38  1  0  0  0  0
  7  8  2  0  0  0  0
  7 39  1  0  0  0  0
  8  9  1  0  0  0  0
  8 11  1  0  0  0  0
  9 10  2  0  0  0  0
  9 40  1  0  0  0  0
 10 41  1  0  0  0  0
 11 12  1  0  0  0  0
 11 42  1  0  0  0  0
 12 13  2  0  0  0  0
 12 17  1  0  0  0  0
 13 14  1  0  0  0  0
 14 15  2  0  0  0  0
 14 43  1  0  0  0  0
 15 16  1  0  0  0  0
 15 32  1  0  0  0  0
 16 17  2  0  0  0  0
 16 18  1  0  0  0  0
 18 19  1  0  0  0  0
 18 44  1  0  0  0  0
 19 20  1  0  0  0  0
 19 45  1  0  0  0  0
 19 46  1  0  0  0  0
 20 21  2  0  0  0  0
 20 25  1  0  0  0  0
 21 22  1  0  0  0  0
 21 47  1  0  0  0  0
 22 23  2  0  0  0  0
 22 48  1  0  0  0  0
 23 24  1  0  0  0  0
 23 49  1  0  0  0  0
 24 25  2  0  0  0  0
 24 50  1  0  0  0  0
 25 26  1  0  0  0  0
 26 27  1  0  0  0  0
 26 31  1  0  0  0  0
 27 28  2  0  0  0  0
 27 29  2  0  0  0  0
 27 30  1  0  0  0  0
 30 51  1  0  0  0  0
 30 52  1  0  0  0  0
 30 53  1  0  0  0  0
 31 54  1  0  0  0  0
 31 55  1  0  0  0  0
 31 56  1  0  0  0  0
 32 33  1  0  0  0  0
 32 34  1  0  0  0  0
 32 35  1  0  0  0  0
M  END
$$$$
