3KC
 OpenBabel04121316053D

 37 41  0  0  0  0  0  0  0  0999 V2000
    1.0932   -0.0424   -0.0432 O   0  0  0  0  0  0  0  0  0  0  0  0
    2.4612   -0.0764   -0.0158 C   0  0  0  0  0  0  0  0  0  0  0  0
    3.3356    0.9788   -0.0557 C   0  0  0  0  0  0  0  0  0  0  0  0
    4.8319    0.7121    0.0608 C   0  0  0  0  0  0  0  0  0  0  0  0
    5.5576   -0.6395    0.2732 C   0  0  0  0  0  0  0  0  0  0  0  0
    4.5233   -1.5799    0.3736 C   0  0  0  0  0  0  0  0  0  0  0  0
    3.0721   -1.3104    0.1717 C   0  0  0  0  0  0  0  0  0  0  0  0
    4.7792   -3.1717    0.9667 Cl  0  0  0  0  0  0  0  0  0  0  0  0
    7.3882   -0.8369    0.2504 C   0  0  0  0  0  0  0  0  0  0  0  0
    7.6588    0.3853   -0.0901 N   0  0  0  0  0  0  0  0  0  0  0  0
    8.6565    0.7541   -1.0451 C   0  0  0  0  0  0  0  0  0  0  0  0
    9.2125    2.0377   -1.0835 C   0  0  0  0  0  0  0  0  0  0  0  0
   10.4786    2.1962   -1.6537 C   0  0  0  0  0  0  0  0  0  0  0  0
   11.1786    1.0275   -1.9161 C   0  0  0  0  0  0  0  0  0  0  0  0
   10.5103   -0.1975   -1.9102 C   0  0  0  0  0  0  0  0  0  0  0  0
    9.0982   -0.2431   -1.8947 C   0  0  0  0  0  0  0  0  0  0  0  0
    8.2625   -1.5033   -2.1880 C   0  0  0  0  0  0  0  0  0  0  0  0
    8.6596   -2.4697   -1.3265 C   0  0  0  0  0  0  0  0  0  0  0  0
    8.7535   -2.1021    0.0563 C   0  0  0  0  0  0  0  0  0  0  0  0
    9.6921   -3.3333   -0.0384 C   0  0  0  0  0  0  0  0  0  0  0  0
    9.0478   -4.4371   -0.6738 N   0  0  0  0  0  0  0  0  0  0  0  0
    9.3421   -5.3698   -1.0043 H   0  0  0  0  0  0  0  0  0  0  0  0
    8.0324   -3.7279   -1.1876 C   0  0  0  0  0  0  0  0  0  0  0  0
    6.7850   -4.0581   -1.3691 N   0  0  0  0  0  0  0  0  0  0  0  0
    6.1980   -2.9534   -1.8771 C   0  0  0  0  0  0  0  0  0  0  0  0
    6.8642   -1.7376   -2.3130 C   0  0  0  0  0  0  0  0  0  0  0  0
    0.6831    0.8417   -0.0678 H   0  0  0  0  0  0  0  0  0  0  0  0
    2.8943    1.9857   -0.1396 H   0  0  0  0  0  0  0  0  0  0  0  0
    5.3750    1.6690    0.0150 H   0  0  0  0  0  0  0  0  0  0  0  0
    2.3731   -2.1447    0.2537 H   0  0  0  0  0  0  0  0  0  0  0  0
    8.7256    2.9161   -0.6498 H   0  0  0  0  0  0  0  0  0  0  0  0
   10.9521    3.1634   -1.7676 H   0  0  0  0  0  0  0  0  0  0  0  0
   12.2408    1.0569   -2.1516 H   0  0  0  0  0  0  0  0  0  0  0  0
   11.1059   -1.1051   -1.8038 H   0  0  0  0  0  0  0  0  0  0  0  0
   10.7766   -3.4068   -0.3581 H   0  0  0  0  0  0  0  0  0  0  0  0
    5.1217   -2.9980   -1.7869 H   0  0  0  0  0  0  0  0  0  0  0  0
    6.2090   -0.8915   -2.4502 H   0  0  0  0  0  0  0  0  0  0  0  0
  1  2  1  0  0  0  0
  1 27  1  0  0  0  0
  2  3  2  0  0  0  0
  2  7  1  0  0  0  0
  3  4  1  0  0  0  0
  3 28  1  0  0  0  0
  4  5  2  0  0  0  0
  4 29  1  0  0  0  0
  5  6  1  0  0  0  0
  5  9  1  0  0  0  0
  6  7  2  0  0  0  0
  6  8  1  0  0  0  0
  7 30  1  0  0  0  0
  9 10  2  0  0  0  0
  9 19  1  0  0  0  0
 10 11  1  0  0  0  0
 11 12  2  0  0  0  0
 11 16  1  0  0  0  0
 12 13  1  0  0  0  0
 12 31  1  0  0  0  0
 13 14  2  0  0  0  0
 13 32  1  0  0  0  0
 14 15  1  0  0  0  0
 14 33  1  0  0  0  0
 15 16  2  0  0  0  0
 15 34  1  0  0  0  0
 16 17  1  0  0  0  0
 17 18  2  0  0  0  0
 17 26  1  0  0  0  0
 18 19  1  0  0  0  0
 18 23  1  0  0  0  0
 19 20  2  0  0  0  0
 20 21  1  0  0  0  0
 20 35  1  0  0  0  0
 21 22  1  0  0  0  0
 21 23  1  0  0  0  0
 23 24  2  0  0  0  0
 24 25  1  0  0  0  0
 25 26  2  0  0  0  0
 25 36  1  0  0  0  0
 26 37  1  0  0  0  0
M  END
$$$$
