3LG
 OpenBabel04121316053D

 77 81  0  0  1  0  0  0  0  0999 V2000
    1.0029    0.0763    0.0411 C   0  0  0  0  0  0  0  0  0  0  0  0
    2.4199    0.1205   -0.0107 O   0  0  0  0  0  0  0  0  0  0  0  0
    2.9993    1.0533    0.8055 C   0  0  0  0  0  0  0  0  0  0  0  0
    2.5567    2.3766    0.7765 C   0  0  0  0  0  0  0  0  0  0  0  0
    3.2816    3.3755    1.4145 C   0  0  0  0  0  0  0  0  0  0  0  0
    4.3742    3.0408    2.2035 C   0  0  0  0  0  0  0  0  0  0  0  0
    4.7488    1.7039    2.3393 C   0  0  0  0  0  0  0  0  0  0  0  0
    4.1258    0.7019    1.5694 C   0  0  0  0  0  0  0  0  0  0  0  0
    4.7323   -0.6836    1.5961 C   0  0  0  0  0  0  0  0  0  0  0  0
    4.0598   -1.5810    0.7272 O   0  0  0  0  0  0  0  0  0  0  0  0
    4.6285   -2.8718    0.7154 C   0  0  0  0  0  0  0  0  0  0  0  0
    3.8311   -3.7321   -0.2457 C   0  0  0  0  0  0  0  0  0  0  0  0
    4.3898   -5.1485   -0.2707 C   0  0  0  0  0  0  0  0  0  0  0  0
    3.5658   -5.9011   -1.1621 O   0  0  0  0  0  0  0  0  0  0  0  0
    3.9668   -7.1943   -1.3243 C   0  0  0  0  0  0  0  0  0  0  0  0
    4.8263   -7.5162   -2.3644 C   0  0  0  0  0  0  0  0  0  0  0  0
    5.0670   -8.8598   -2.7043 C   0  0  0  0  0  0  0  0  0  0  0  0
    4.4798   -9.8834   -1.9697 C   0  0  0  0  0  0  0  0  0  0  0  0
    3.6724   -9.5501   -0.8724 C   0  0  0  0  0  0  0  0  0  0  0  0
    3.3705   -8.2094   -0.5878 C   0  0  0  0  0  0  0  0  0  0  0  0
    4.7390  -11.2445   -2.2447 N   0  0  0  0  0  0  0  0  0  0  0  0
    5.9842  -11.9169   -1.8651 C   0  0  2  0  0  0  0  0  0  0  0  0
    6.5012  -12.1524   -2.8095 H   0  0  0  0  0  0  0  0  0  0  0  0
    5.6360  -13.2286   -1.1447 C   0  0  0  0  0  0  0  0  0  0  0  0
    4.7898  -14.0897   -1.9765 N   0  0  0  0  0  0  0  0  0  0  0  0
    3.5656  -13.3583   -2.3658 C   0  0  0  0  0  0  0  0  0  0  0  0
    3.8758  -12.0095   -3.0395 C   0  0  0  0  0  0  0  0  0  0  0  0
    3.3220  -11.6337   -4.0673 O   0  0  0  0  0  0  0  0  0  0  0  0
    6.9423  -11.1374   -0.9753 C   0  0  0  0  0  0  0  0  0  0  0  0
    7.5037  -10.1064   -1.7735 O   0  0  0  0  0  0  0  0  0  0  0  0
    8.1554   -9.1872   -1.0280 C   0  0  0  0  0  0  0  0  0  0  0  0
    7.8106   -7.8919   -1.2514 C   0  0  0  0  0  0  0  0  0  0  0  0
    8.3970   -6.8617   -0.5724 C   0  0  0  0  0  0  0  0  0  0  0  0
    9.4577   -7.0933    0.2903 C   0  0  0  0  0  0  0  0  0  0  0  0
    9.8650   -8.4235    0.4862 C   0  0  0  0  0  0  0  0  0  0  0  0
    9.1923   -9.4787   -0.1646 C   0  0  0  0  0  0  0  0  0  0  0  0
   10.9708   -8.4023    1.3558 C   0  0  0  0  0  0  0  0  0  0  0  0
   11.2145   -7.0883    1.6827 C   0  0  0  0  0  0  0  0  0  0  0  0
   10.2873   -6.2753    1.0351 N   0  0  0  0  0  0  0  0  0  0  0  0
   10.3065   -4.7959    1.1889 C   0  0  0  0  0  0  0  0  0  0  0  0
    9.2795   -3.9183    0.4794 C   0  0  0  0  0  0  0  0  0  0  0  0
    8.3471   -4.2476   -0.2412 O   0  0  0  0  0  0  0  0  0  0  0  0
    9.3579   -2.5900    0.6745 O   0  0  0  0  0  0  0  0  0  0  0  0
    0.6712   -0.7534   -0.5896 H   0  0  0  0  0  0  0  0  0  0  0  0
    0.5599    0.9860   -0.3701 H   0  0  0  0  0  0  0  0  0  0  0  0
    0.6546   -0.1035    1.0631 H   0  0  0  0  0  0  0  0  0  0  0  0
    1.6755    2.6562    0.2125 H   0  0  0  0  0  0  0  0  0  0  0  0
    2.9874    4.4118    1.2844 H   0  0  0  0  0  0  0  0  0  0  0  0
    4.9350    3.8235    2.7055 H   0  0  0  0  0  0  0  0  0  0  0  0
    5.5522    1.4506    3.0280 H   0  0  0  0  0  0  0  0  0  0  0  0
    4.6871   -1.0768    2.6181 H   0  0  0  0  0  0  0  0  0  0  0  0
    5.7822   -0.6118    1.2825 H   0  0  0  0  0  0  0  0  0  0  0  0
    4.5747   -3.2878    1.7258 H   0  0  0  0  0  0  0  0  0  0  0  0
    5.6725   -2.8089    0.3937 H   0  0  0  0  0  0  0  0  0  0  0  0
    3.8390   -3.2950   -1.2542 H   0  0  0  0  0  0  0  0  0  0  0  0
    2.7687   -3.7421    0.0359 H   0  0  0  0  0  0  0  0  0  0  0  0
    4.3449   -5.5752    0.7388 H   0  0  0  0  0  0  0  0  0  0  0  0
    5.4332   -5.1231   -0.6084 H   0  0  0  0  0  0  0  0  0  0  0  0
    5.3672   -6.7202   -2.8722 H   0  0  0  0  0  0  0  0  0  0  0  0
    5.7843   -9.0967   -3.4866 H   0  0  0  0  0  0  0  0  0  0  0  0
    3.2787  -10.3261   -0.2228 H   0  0  0  0  0  0  0  0  0  0  0  0
    2.6526   -7.9596    0.1866 H   0  0  0  0  0  0  0  0  0  0  0  0
    5.1163  -12.9966   -0.2062 H   0  0  0  0  0  0  0  0  0  0  0  0
    6.5539  -13.7695   -0.8934 H   0  0  0  0  0  0  0  0  0  0  0  0
    4.5274  -14.9183   -1.4450 H   0  0  0  0  0  0  0  0  0  0  0  0
    2.9613  -13.1389   -1.4750 H   0  0  0  0  0  0  0  0  0  0  0  0
    2.9621  -13.9778   -3.0341 H   0  0  0  0  0  0  0  0  0  0  0  0
    7.7622  -11.7916   -0.6646 H   0  0  0  0  0  0  0  0  0  0  0  0
    6.4209  -10.7625   -0.0826 H   0  0  0  0  0  0  0  0  0  0  0  0
    7.0849   -7.6072   -1.9818 H   0  0  0  0  0  0  0  0  0  0  0  0
    7.9473   -5.9367   -0.8579 H   0  0  0  0  0  0  0  0  0  0  0  0
    9.5201  -10.5014   -0.0440 H   0  0  0  0  0  0  0  0  0  0  0  0
   11.5159   -9.2772    1.6861 H   0  0  0  0  0  0  0  0  0  0  0  0
   11.9827   -6.6808    2.3261 H   0  0  0  0  0  0  0  0  0  0  0  0
   11.3124   -4.4871    0.8740 H   0  0  0  0  0  0  0  0  0  0  0  0
   10.2085   -4.6273    2.2696 H   0  0  0  0  0  0  0  0  0  0  0  0
   10.0568   -2.2217    1.2300 H   0  0  0  0  0  0  0  0  0  0  0  0
  1  2  1  0  0  0  0
  1 44  1  0  0  0  0
  1 45  1  0  0  0  0
  1 46  1  0  0  0  0
  2  3  1  0  0  0  0
  3  4  2  0  0  0  0
  3  8  1  0  0  0  0
  4  5  1  0  0  0  0
  4 47  1  0  0  0  0
  5  6  2  0  0  0  0
  5 48  1  0  0  0  0
  6  7  1  0  0  0  0
  6 49  1  0  0  0  0
  7  8  2  0  0  0  0
  7 50  1  0  0  0  0
  8  9  1  0  0  0  0
  9 10  1  0  0  0  0
  9 51  1  0  0  0  0
  9 52  1  0  0  0  0
 10 11  1  0  0  0  0
 11 12  1  0  0  0  0
 11 53  1  0  0  0  0
 11 54  1  0  0  0  0
 12 13  1  0  0  0  0
 12 55  1  0  0  0  0
 12 56  1  0  0  0  0
 13 14  1  0  0  0  0
 13 57  1  0  0  0  0
 13 58  1  0  0  0  0
 14 15  1  0  0  0  0
 15 16  2  0  0  0  0
 15 20  1  0  0  0  0
 16 17  1  0  0  0  0
 16 59  1  0  0  0  0
 17 18  2  0  0  0  0
 17 60  1  0  0  0  0
 18 19  1  0  0  0  0
 18 21  1  0  0  0  0
 19 20  2  0  0  0  0
 19 61  1  0  0  0  0
 20 62  1  0  0  0  0
 21 22  1  0  0  0  0
 21 27  1  0  0  0  0
 22 23  1  6  0  0  0
 22 24  1  0  0  0  0
 22 29  1  0  0  0  0
 24 25  1  0  0  0  0
 24 63  1  0  0  0  0
 24 64  1  0  0  0  0
 25 26  1  0  0  0  0
 25 65  1  0  0  0  0
 26 27  1  0  0  0  0
 26 66  1  0  0  0  0
 26 67  1  0  0  0  0
 27 28  2  0  0  0  0
 29 30  1  0  0  0  0
 29 68  1  0  0  0  0
 29 69  1  0  0  0  0
 30 31  1  0  0  0  0
 31 32  2  0  0  0  0
 31 36  1  0  0  0  0
 32 33  1  0  0  0  0
 32 70  1  0  0  0  0
 33 34  2  0  0  0  0
 33 71  1  0  0  0  0
 34 35  1  0  0  0  0
 34 39  1  0  0  0  0
 35 36  2  0  0  0  0
 35 37  1  0  0  0  0
 36 72  1  0  0  0  0
 37 38  2  0  0  0  0
 37 73  1  0  0  0  0
 38 39  1  0  0  0  0
 38 74  1  0  0  0  0
 39 40  1  0  0  0  0
 40 41  1  0  0  0  0
 40 75  1  0  0  0  0
 40 76  1  0  0  0  0
 41 42  2  0  0  0  0
 41 43  1  0  0  0  0
 43 77  1  0  0  0  0
M  END
$$$$
