3LR
 OpenBabel04121316053D

 23 22  0  0  1  0  0  0  0  0999 V2000
    6.9010    0.5887    0.4332 O   0  0  0  0  0  0  0  0  0  0  0  0
    6.1004   -0.5210    0.0442 C   0  0  1  0  0  0  0  0  0  0  0  0
    5.6119   -0.3386   -0.9196 H   0  0  0  0  0  0  0  0  0  0  0  0
    7.0477   -1.6826   -0.1815 C   0  0  1  0  0  0  0  0  0  0  0  0
    7.6290   -1.8803    0.7255 H   0  0  0  0  0  0  0  0  0  0  0  0
    6.3308   -2.8467   -0.5646 O   0  0  0  0  0  0  0  0  0  0  0  0
    7.9859   -1.2555   -1.3170 C   0  0  0  0  0  0  0  0  0  0  0  0
    4.9945   -0.6865    1.0832 C   0  0  0  0  0  0  0  0  0  0  0  0
    4.3060    0.6682    1.3660 C   0  0  2  0  0  0  0  0  0  0  0  0
    3.2190    0.5495    1.3837 H   0  0  0  0  0  0  0  0  0  0  0  0
    4.6207    1.7907    0.3293 C   0  0  0  0  0  0  0  0  0  0  0  0
    5.1909    2.8317    0.6058 O   0  0  0  0  0  0  0  0  0  0  0  0
    4.2270    1.5218   -0.9435 O   0  0  0  0  0  0  0  0  0  0  0  0
    4.6683    1.0462    2.6966 O   0  0  0  0  0  0  0  0  0  0  0  0
    7.0833    1.1336   -0.3554 H   0  0  0  0  0  0  0  0  0  0  0  0
    5.7729   -3.1050    0.1899 H   0  0  0  0  0  0  0  0  0  0  0  0
    8.5131   -0.3220   -1.0829 H   0  0  0  0  0  0  0  0  0  0  0  0
    7.4165   -1.0805   -2.2394 H   0  0  0  0  0  0  0  0  0  0  0  0
    8.7336   -2.0194   -1.5228 H   0  0  0  0  0  0  0  0  0  0  0  0
    5.4203   -1.0994    2.0089 H   0  0  0  0  0  0  0  0  0  0  0  0
    4.2469   -1.4170    0.7447 H   0  0  0  0  0  0  0  0  0  0  0  0
    3.8148    0.6505   -1.0922 H   0  0  0  0  0  0  0  0  0  0  0  0
    4.6670    2.0223    2.7234 H   0  0  0  0  0  0  0  0  0  0  0  0
  1  2  1  0  0  0  0
  1 15  1  0  0  0  0
  2  3  1  6  0  0  0
  2  4  1  0  0  0  0
  2  8  1  0  0  0  0
  4  5  1  1  0  0  0
  4  6  1  0  0  0  0
  4  7  1  0  0  0  0
  6 16  1  0  0  0  0
  7 17  1  0  0  0  0
  7 18  1  0  0  0  0
  7 19  1  0  0  0  0
  8 20  1  0  0  0  0
  8 21  1  0  0  0  0
  9 11  1  0  0  0  0
  9 14  1  0  0  0  0
  9 10  1  6  0  0  0
  9  8  1  0  0  0  0
 11 12  2  0  0  0  0
 11 13  1  0  0  0  0
 13 22  1  0  0  0  0
 14 23  1  0  0  0  0
M  END
$$$$
