3MA
 OpenBabel04121316053D

 19 20  0  0  0  0  0  0  0  0999 V2000
    1.0024   -0.0392   -0.0832 C   0  0  0  0  0  0  0  0  0  0  0  0
    2.4582   -0.0750   -0.0839 N   0  3  0  0  0  0  0  0  0  0  0  0
    3.2025    1.0421   -0.0838 C   0  0  0  0  0  0  0  0  0  0  0  0
    4.5517    1.0973   -0.0886 N   0  0  0  0  0  0  0  0  0  0  0  0
    5.2618   -0.0572   -0.0932 C   0  0  0  0  0  0  0  0  0  0  0  0
    4.5608   -1.2769   -0.0909 C   0  0  0  0  0  0  0  0  0  0  0  0
    3.1773   -1.2339   -0.0862 C   0  0  0  0  0  0  0  0  0  0  0  0
    2.7719   -2.5428   -0.0846 N   0  0  0  0  0  0  0  0  0  0  0  0
    1.8284   -2.9072   -0.0804 H   0  0  0  0  0  0  0  0  0  0  0  0
    3.9038   -3.3159   -0.0881 C   0  0  0  0  0  0  0  0  0  0  0  0
    4.9937   -2.5817   -0.0925 N   0  0  0  0  0  0  0  0  0  0  0  0
    6.6307    0.0055   -0.0996 N   0  0  0  0  0  0  0  0  0  0  0  0
    0.6505    0.9949   -0.0816 H   0  0  0  0  0  0  0  0  0  0  0  0
    0.6543   -0.5539    0.8160 H   0  0  0  0  0  0  0  0  0  0  0  0
    0.6540   -0.5508   -0.9841 H   0  0  0  0  0  0  0  0  0  0  0  0
    2.6878    2.0002   -0.0791 H   0  0  0  0  0  0  0  0  0  0  0  0
    3.8728   -4.3999   -0.0871 H   0  0  0  0  0  0  0  0  0  0  0  0
    7.0987    0.8993   -0.0995 H   0  0  0  0  0  0  0  0  0  0  0  0
    7.1696   -0.8526   -0.0998 H   0  0  0  0  0  0  0  0  0  0  0  0
  1  2  1  0  0  0  0
  1 13  1  0  0  0  0
  1 14  1  0  0  0  0
  1 15  1  0  0  0  0
  2  3  2  0  0  0  0
  2  7  1  0  0  0  0
  3  4  1  0  0  0  0
  3 16  1  0  0  0  0
  4  5  2  0  0  0  0
  5  6  1  0  0  0  0
  5 12  1  0  0  0  0
  6  7  2  0  0  0  0
  6 11  1  0  0  0  0
  7  8  1  0  0  0  0
  8  9  1  0  0  0  0
  8 10  1  0  0  0  0
 10 11  2  0  0  0  0
 10 17  1  0  0  0  0
 12 18  1  0  0  0  0
 12 19  1  0  0  0  0
M  CHG  1   2   1
M  END
$$$$
