3N1
 OpenBabel04121316053D

 24 25  0  0  0  0  0  0  0  0999 V2000
    0.8890    0.0933   -0.0185 O   0  0  0  0  0  0  0  0  0  0  0  0
    2.2325    0.0688   -0.1420 C   0  0  0  0  0  0  0  0  0  0  0  0
    2.7634    0.5282   -1.1492 O   0  0  0  0  0  0  0  0  0  0  0  0
    2.9392   -0.5898    1.0302 C   0  0  0  0  0  0  0  0  0  0  0  0
    4.4212   -0.4463    0.8730 C   0  0  0  0  0  0  0  0  0  0  0  0
    5.3532   -1.8616    0.7474 S   0  0  0  0  0  0  0  0  0  0  0  0
    6.7915   -0.9747    0.5099 C   0  0  0  0  0  0  0  0  0  0  0  0
    6.5728    0.4046    0.5436 C   0  0  0  0  0  0  0  0  0  0  0  0
    5.1795    0.7120    0.7781 C   0  0  0  0  0  0  0  0  0  0  0  0
    4.6097    2.0972    0.8616 C   0  0  0  0  0  0  0  0  0  0  0  0
    7.6915    1.2531    0.3501 C   0  0  0  0  0  0  0  0  0  0  0  0
    8.9583    0.6993    0.1515 C   0  0  0  0  0  0  0  0  0  0  0  0
    9.1430   -0.6758    0.1285 C   0  0  0  0  0  0  0  0  0  0  0  0
    8.0615   -1.5328    0.3035 C   0  0  0  0  0  0  0  0  0  0  0  0
   10.3139    1.7379   -0.0569 Cl  0  0  0  0  0  0  0  0  0  0  0  0
    0.6089    0.4805    0.8305 H   0  0  0  0  0  0  0  0  0  0  0  0
    2.6538   -1.6494    1.0336 H   0  0  0  0  0  0  0  0  0  0  0  0
    2.6417   -0.1470    1.9862 H   0  0  0  0  0  0  0  0  0  0  0  0
    5.3729    2.8727    0.7710 H   0  0  0  0  0  0  0  0  0  0  0  0
    4.0970    2.2295    1.8196 H   0  0  0  0  0  0  0  0  0  0  0  0
    3.8864    2.2819    0.0632 H   0  0  0  0  0  0  0  0  0  0  0  0
    7.5668    2.3328    0.3570 H   0  0  0  0  0  0  0  0  0  0  0  0
   10.1292   -1.1018   -0.0253 H   0  0  0  0  0  0  0  0  0  0  0  0
    8.1879   -2.6112    0.2850 H   0  0  0  0  0  0  0  0  0  0  0  0
  1  2  1  0  0  0  0
  1 16  1  0  0  0  0
  2  3  2  0  0  0  0
  2  4  1  0  0  0  0
  4  5  1  0  0  0  0
  4 17  1  0  0  0  0
  4 18  1  0  0  0  0
  5  6  1  0  0  0  0
  5  9  2  0  0  0  0
  6  7  1  0  0  0  0
  7  8  2  0  0  0  0
  7 14  1  0  0  0  0
  8  9  1  0  0  0  0
  8 11  1  0  0  0  0
  9 10  1  0  0  0  0
 10 19  1  0  0  0  0
 10 20  1  0  0  0  0
 10 21  1  0  0  0  0
 11 12  2  0  0  0  0
 11 22  1  0  0  0  0
 12 13  1  0  0  0  0
 12 15  1  0  0  0  0
 13 14  2  0  0  0  0
 13 23  1  0  0  0  0
 14 24  1  0  0  0  0
M  END
$$$$
