3N2
 OpenBabel04121316053D

 21 22  0  0  0  0  0  0  0  0999 V2000
    0.9345   -0.1549   -0.0434 O   0  0  0  0  0  0  0  0  0  0  0  0
    2.2601   -0.0989    0.1837 C   0  0  0  0  0  0  0  0  0  0  0  0
    2.6710    0.6720    1.0388 O   0  0  0  0  0  0  0  0  0  0  0  0
    3.0442   -1.0480   -0.6939 C   0  0  0  0  0  0  0  0  0  0  0  0
    4.5385   -0.8999   -0.5700 C   0  0  0  0  0  0  0  0  0  0  0  0
    5.3939   -1.9824   -0.4761 C   0  0  0  0  0  0  0  0  0  0  0  0
    7.0209   -1.5329   -0.2873 S   0  0  0  0  0  0  0  0  0  0  0  0
    6.6372    0.1396   -0.3459 C   0  0  0  0  0  0  0  0  0  0  0  0
    5.2697    0.3557   -0.5372 C   0  0  0  0  0  0  0  0  0  0  0  0
    4.8265    1.7054   -0.6213 C   0  0  0  0  0  0  0  0  0  0  0  0
    5.7221    2.7617   -0.4612 C   0  0  0  0  0  0  0  0  0  0  0  0
    5.1381    4.3811   -0.4848 Cl  0  0  0  0  0  0  0  0  0  0  0  0
    7.0707    2.5163   -0.2725 C   0  0  0  0  0  0  0  0  0  0  0  0
    7.5470    1.2056   -0.2222 C   0  0  0  0  0  0  0  0  0  0  0  0
    0.5918    0.5180    0.5855 H   0  0  0  0  0  0  0  0  0  0  0  0
    2.7634   -0.9014   -1.7434 H   0  0  0  0  0  0  0  0  0  0  0  0
    2.7567   -2.0642   -0.3965 H   0  0  0  0  0  0  0  0  0  0  0  0
    5.1389   -3.0337   -0.4910 H   0  0  0  0  0  0  0  0  0  0  0  0
    3.7743    1.9369   -0.7647 H   0  0  0  0  0  0  0  0  0  0  0  0
    7.7682    3.3407   -0.1622 H   0  0  0  0  0  0  0  0  0  0  0  0
    8.6039    1.0069   -0.0753 H   0  0  0  0  0  0  0  0  0  0  0  0
  1  2  1  0  0  0  0
  1 15  1  0  0  0  0
  2  3  2  0  0  0  0
  2  4  1  0  0  0  0
  4  5  1  0  0  0  0
  4 16  1  0  0  0  0
  4 17  1  0  0  0  0
  5  6  2  0  0  0  0
  5  9  1  0  0  0  0
  6  7  1  0  0  0  0
  6 18  1  0  0  0  0
  7  8  1  0  0  0  0
  8  9  2  0  0  0  0
  8 14  1  0  0  0  0
  9 10  1  0  0  0  0
 10 11  2  0  0  0  0
 10 19  1  0  0  0  0
 11 12  1  0  0  0  0
 11 13  1  0  0  0  0
 13 14  2  0  0  0  0
 13 20  1  0  0  0  0
 14 21  1  0  0  0  0
M  END
$$$$
