3N4
 OpenBabel04121316053D

 27 29  0  0  0  0  0  0  0  0999 V2000
    0.8798    0.3598    0.0831 O   0  0  0  0  0  0  0  0  0  0  0  0
    2.1957    0.2672   -0.1873 C   0  0  0  0  0  0  0  0  0  0  0  0
    2.5624   -0.4068   -1.1411 O   0  0  0  0  0  0  0  0  0  0  0  0
    3.0184    1.1267    0.7237 C   0  0  0  0  0  0  0  0  0  0  0  0
    4.5020    0.9149    0.6244 C   0  0  0  0  0  0  0  0  0  0  0  0
    5.3368    2.0192    0.5418 C   0  0  0  0  0  0  0  0  0  0  0  0
    6.9646    1.6238    0.3726 S   0  0  0  0  0  0  0  0  0  0  0  0
    6.6184   -0.0555    0.4236 C   0  0  0  0  0  0  0  0  0  0  0  0
    5.2552   -0.3535    0.5941 C   0  0  0  0  0  0  0  0  0  0  0  0
    4.8869   -1.7800    0.6592 C   0  0  0  0  0  0  0  0  0  0  0  0
    3.5820   -2.3237    0.8576 C   0  0  0  0  0  0  0  0  0  0  0  0
    3.3106   -3.6994    0.7866 C   0  0  0  0  0  0  0  0  0  0  0  0
    4.3469   -4.5988    0.6144 C   0  0  0  0  0  0  0  0  0  0  0  0
    5.6441   -4.1200    0.4918 C   0  0  0  0  0  0  0  0  0  0  0  0
    5.9212   -2.7459    0.4965 C   0  0  0  0  0  0  0  0  0  0  0  0
    7.2444   -2.3688    0.3376 C   0  0  0  0  0  0  0  0  0  0  0  0
    7.6088   -1.0368    0.3074 C   0  0  0  0  0  0  0  0  0  0  0  0
    0.4790   -0.0830   -0.6949 H   0  0  0  0  0  0  0  0  0  0  0  0
    2.7038    1.0357    1.7694 H   0  0  0  0  0  0  0  0  0  0  0  0
    2.7852    2.1497    0.3947 H   0  0  0  0  0  0  0  0  0  0  0  0
    5.0628    3.0660    0.5513 H   0  0  0  0  0  0  0  0  0  0  0  0
    2.7256   -1.6973    1.0640 H   0  0  0  0  0  0  0  0  0  0  0  0
    2.2881   -4.0615    0.8676 H   0  0  0  0  0  0  0  0  0  0  0  0
    4.1571   -5.6677    0.5868 H   0  0  0  0  0  0  0  0  0  0  0  0
    6.4527   -4.8385    0.3783 H   0  0  0  0  0  0  0  0  0  0  0  0
    8.0273   -3.1152    0.2334 H   0  0  0  0  0  0  0  0  0  0  0  0
    8.6499   -0.7561    0.1826 H   0  0  0  0  0  0  0  0  0  0  0  0
  1  2  1  0  0  0  0
  1 18  1  0  0  0  0
  2  3  2  0  0  0  0
  2  4  1  0  0  0  0
  4  5  1  0  0  0  0
  4 19  1  0  0  0  0
  4 20  1  0  0  0  0
  5  6  2  0  0  0  0
  5  9  1  0  0  0  0
  6  7  1  0  0  0  0
  6 21  1  0  0  0  0
  7  8  1  0  0  0  0
  8  9  2  0  0  0  0
  8 17  1  0  0  0  0
  9 10  1  0  0  0  0
 10 11  2  0  0  0  0
 10 15  1  0  0  0  0
 11 12  1  0  0  0  0
 11 22  1  0  0  0  0
 12 13  2  0  0  0  0
 12 23  1  0  0  0  0
 13 14  1  0  0  0  0
 13 24  1  0  0  0  0
 14 15  2  0  0  0  0
 14 25  1  0  0  0  0
 15 16  1  0  0  0  0
 16 17  2  0  0  0  0
 16 26  1  0  0  0  0
 17 27  1  0  0  0  0
M  END
$$$$
