3NA
 OpenBabel04121316053D

 37 40  0  0  0  0  0  0  0  0999 V2000
    0.6364   -0.3646    0.0098 O   0  0  0  0  0  0  0  0  0  0  0  0
    1.9305   -0.0294    0.0888 C   0  0  0  0  0  0  0  0  0  0  0  0
    2.0973    1.1764    0.2275 O   0  0  0  0  0  0  0  0  0  0  0  0
    2.9572   -1.1505    0.0519 C   0  0  0  0  0  0  0  0  0  0  0  0
    4.4003   -0.8231    0.0487 N   0  0  0  0  0  0  0  0  0  0  0  0
    5.3721   -1.8265    0.0574 C   0  0  0  0  0  0  0  0  0  0  0  0
    6.6369   -1.2461    0.0571 C   0  0  0  0  0  0  0  0  0  0  0  0
    6.3955    0.1884    0.0520 C   0  0  0  0  0  0  0  0  0  0  0  0
    5.0200    0.4137    0.0394 C   0  0  0  0  0  0  0  0  0  0  0  0
    4.6020    1.7739    0.0201 C   0  0  0  0  0  0  0  0  0  0  0  0
    5.4169    2.8936    0.0352 C   0  0  0  0  0  0  0  0  0  0  0  0
    6.7326    2.7044    0.0400 C   0  0  0  0  0  0  0  0  0  0  0  0
    7.1454    1.3959    0.0505 C   0  0  0  0  0  0  0  0  0  0  0  0
    7.9409   -2.0564    0.0590 C   0  0  0  0  0  0  0  0  0  0  0  0
    9.2041   -1.2590    0.0544 C   0  0  0  0  0  0  0  0  0  0  0  0
   10.7772   -1.8888    0.0505 S   0  0  0  0  0  0  0  0  0  0  0  0
   11.4128   -0.2698    0.0475 C   0  0  0  0  0  0  0  0  0  0  0  0
   10.4053    0.6683    0.0495 C   0  0  0  0  0  0  0  0  0  0  0  0
    9.2127    0.0316    0.0528 N   0  0  0  0  0  0  0  0  0  0  0  0
   10.6811    2.0675    0.0483 C   0  0  0  0  0  0  0  0  0  0  0  0
    9.7314    3.0207    0.0507 F   0  0  0  0  0  0  0  0  0  0  0  0
   11.9999    2.4692    0.0441 C   0  0  0  0  0  0  0  0  0  0  0  0
   13.0100    1.5236    0.0397 C   0  0  0  0  0  0  0  0  0  0  0  0
   12.7203    0.1590    0.0433 C   0  0  0  0  0  0  0  0  0  0  0  0
   13.6959   -0.7488    0.0434 F   0  0  0  0  0  0  0  0  0  0  0  0
   12.3059    3.7747    0.0452 F   0  0  0  0  0  0  0  0  0  0  0  0
    0.4053   -1.2854   -0.1525 H   0  0  0  0  0  0  0  0  0  0  0  0
    2.7988   -1.7617   -0.8468 H   0  0  0  0  0  0  0  0  0  0  0  0
    2.8088   -1.7802    0.9399 H   0  0  0  0  0  0  0  0  0  0  0  0
    5.1050   -2.8824    0.0632 H   0  0  0  0  0  0  0  0  0  0  0  0
    3.6058    2.1349   -0.0206 H   0  0  0  0  0  0  0  0  0  0  0  0
    5.0020    3.8886    0.0341 H   0  0  0  0  0  0  0  0  0  0  0  0
    7.4576    3.5061    0.0353 H   0  0  0  0  0  0  0  0  0  0  0  0
    8.1901    1.4869    0.0634 H   0  0  0  0  0  0  0  0  0  0  0  0
    7.9453   -2.7070   -0.8255 H   0  0  0  0  0  0  0  0  0  0  0  0
    7.9473   -2.7015    0.9474 H   0  0  0  0  0  0  0  0  0  0  0  0
   14.0406    1.8394    0.0335 H   0  0  0  0  0  0  0  0  0  0  0  0
  1  2  1  0  0  0  0
  1 27  1  0  0  0  0
  2  3  2  0  0  0  0
  2  4  1  0  0  0  0
  4  5  1  0  0  0  0
  4 28  1  0  0  0  0
  4 29  1  0  0  0  0
  5  6  1  0  0  0  0
  5  9  1  0  0  0  0
  6  7  2  0  0  0  0
  6 30  1  0  0  0  0
  7  8  1  0  0  0  0
  7 14  1  0  0  0  0
  8  9  2  0  0  0  0
  8 13  1  0  0  0  0
  9 10  1  0  0  0  0
 10 11  2  0  0  0  0
 10 31  1  0  0  0  0
 11 12  1  0  0  0  0
 11 32  1  0  0  0  0
 12 13  2  0  0  0  0
 12 33  1  0  0  0  0
 13 34  1  0  0  0  0
 14 15  1  0  0  0  0
 14 35  1  0  0  0  0
 14 36  1  0  0  0  0
 15 16  1  0  0  0  0
 15 19  2  0  0  0  0
 16 17  1  0  0  0  0
 17 18  2  0  0  0  0
 17 24  1  0  0  0  0
 18 19  1  0  0  0  0
 18 20  1  0  0  0  0
 20 21  1  0  0  0  0
 20 22  2  0  0  0  0
 22 23  1  0  0  0  0
 22 26  1  0  0  0  0
 23 24  2  0  0  0  0
 23 37  1  0  0  0  0
 24 25  1  0  0  0  0
M  END
$$$$
