3NF
 OpenBabel04121316053D

 29 29  0  0  1  0  0  0  0  0999 V2000
    3.5499   -2.9932   -0.3574 O   0  0  0  0  0  0  0  0  0  0  0  0
    2.6205   -2.0433   -0.5730 C   0  0  0  0  0  0  0  0  0  0  0  0
    1.4556   -2.2982   -0.2909 O   0  0  0  0  0  0  0  0  0  0  0  0
    3.1576   -0.6870   -1.0709 C   0  0  2  0  0  0  0  0  0  0  0  0
    2.7572    0.0228   -0.3346 H   0  0  0  0  0  0  0  0  0  0  0  0
    2.7082   -0.2235   -2.4711 C   0  0  0  0  0  0  0  0  0  0  0  0
    1.2445   -0.3630   -2.7815 C   0  0  0  0  0  0  0  0  0  0  0  0
    0.6976   -1.6368   -3.0003 C   0  0  0  0  0  0  0  0  0  0  0  0
   -0.6517   -1.7930   -3.2925 C   0  0  0  0  0  0  0  0  0  0  0  0
   -1.4531   -0.6654   -3.3979 C   0  0  0  0  0  0  0  0  0  0  0  0
   -0.9361    0.6056   -3.1724 C   0  0  0  0  0  0  0  0  0  0  0  0
    0.4193    0.7614   -2.8829 C   0  0  0  0  0  0  0  0  0  0  0  0
   -2.7648   -0.7766   -3.7502 O   0  0  0  0  0  0  0  0  0  0  0  0
    4.6181   -0.5689   -0.9296 N   0  0  0  0  0  0  0  0  0  0  0  0
    5.4906   -1.2223   -1.7686 C   0  0  0  0  0  0  0  0  0  0  0  0
    5.1400   -1.9322   -2.7055 O   0  0  0  0  0  0  0  0  0  0  0  0
    6.9433   -0.9865   -1.4747 C   0  0  0  0  0  0  0  0  0  0  0  0
    3.0435   -3.7126    0.0724 H   0  0  0  0  0  0  0  0  0  0  0  0
    3.2503   -0.7259   -3.2786 H   0  0  0  0  0  0  0  0  0  0  0  0
    3.0000    0.8333   -2.5723 H   0  0  0  0  0  0  0  0  0  0  0  0
    1.3163   -2.5283   -2.9147 H   0  0  0  0  0  0  0  0  0  0  0  0
   -1.0490   -2.7938   -3.4216 H   0  0  0  0  0  0  0  0  0  0  0  0
   -1.5847    1.4739   -3.2298 H   0  0  0  0  0  0  0  0  0  0  0  0
    0.8245    1.7619   -2.7521 H   0  0  0  0  0  0  0  0  0  0  0  0
   -2.9193   -1.6985   -4.0160 H   0  0  0  0  0  0  0  0  0  0  0  0
    4.9744   -0.0328   -0.1503 H   0  0  0  0  0  0  0  0  0  0  0  0
    7.0907   -0.3376   -0.6082 H   0  0  0  0  0  0  0  0  0  0  0  0
    7.4007   -0.5156   -2.3493 H   0  0  0  0  0  0  0  0  0  0  0  0
    7.4207   -1.9506   -1.2820 H   0  0  0  0  0  0  0  0  0  0  0  0
  1  2  1  0  0  0  0
  1 18  1  0  0  0  0
  2  3  2  0  0  0  0
  4  6  1  0  0  0  0
  4 14  1  0  0  0  0
  4  5  1  1  0  0  0
  4  2  1  0  0  0  0
  6  7  1  0  0  0  0
  6 19  1  0  0  0  0
  6 20  1  0  0  0  0
  7  8  2  0  0  0  0
  7 12  1  0  0  0  0
  8  9  1  0  0  0  0
  8 21  1  0  0  0  0
  9 10  2  0  0  0  0
  9 22  1  0  0  0  0
 10 11  1  0  0  0  0
 10 13  1  0  0  0  0
 11 12  2  0  0  0  0
 11 23  1  0  0  0  0
 12 24  1  0  0  0  0
 13 25  1  0  0  0  0
 14 15  1  0  0  0  0
 14 26  1  0  0  0  0
 15 16  2  0  0  0  0
 15 17  1  0  0  0  0
 17 27  1  0  0  0  0
 17 28  1  0  0  0  0
 17 29  1  0  0  0  0
M  END
$$$$
