3NU
 OpenBabel04121316053D

 46 48  0  0  0  0  0  0  0  0999 V2000
    1.0050    0.0271    0.0064 C   0  0  0  0  0  0  0  0  0  0  0  0
    2.4655    0.0189   -0.0837 N   0  0  0  0  0  0  0  0  0  0  0  0
    2.9787   -1.3136   -0.4467 C   0  0  0  0  0  0  0  0  0  0  0  0
    2.6372   -1.7191   -1.8845 C   0  0  0  0  0  0  0  0  0  0  0  0
    3.1142   -0.6427   -2.8843 C   0  0  0  0  0  0  0  0  0  0  0  0
    2.4894    0.6925   -2.4766 C   0  0  0  0  0  0  0  0  0  0  0  0
    2.9260    1.0320   -1.0510 C   0  0  0  0  0  0  0  0  0  0  0  0
    4.5729   -0.5587   -2.8820 N   0  0  0  0  0  0  0  0  0  0  0  0
    5.2693    0.3468   -3.6642 C   0  0  0  0  0  0  0  0  0  0  0  0
    4.7617    1.5338   -3.9395 N   0  0  0  0  0  0  0  0  0  0  0  0
    5.5188    2.3827   -4.6546 C   0  0  0  0  0  0  0  0  0  0  0  0
    6.7183    2.0369   -5.2100 C   0  0  0  0  0  0  0  0  0  0  0  0
    7.0642    0.7252   -5.0630 C   0  0  0  0  0  0  0  0  0  0  0  0
    6.4459   -0.0370   -4.1429 N   0  0  0  0  0  0  0  0  0  0  0  0
    7.9662    0.0386   -6.0005 C   0  0  0  0  0  0  0  0  0  0  0  0
    8.8544    0.7104   -6.8249 C   0  0  0  0  0  0  0  0  0  0  0  0
    9.4918   -0.2291   -7.5748 N   0  0  0  0  0  0  0  0  0  0  0  0
   10.2406   -0.0933   -8.2476 H   0  0  0  0  0  0  0  0  0  0  0  0
    9.0297   -1.4665   -7.3853 N   0  0  0  0  0  0  0  0  0  0  0  0
    8.0905   -1.3391   -6.4276 C   0  0  0  0  0  0  0  0  0  0  0  0
    7.3768   -2.6172   -6.0094 C   0  0  0  0  0  0  0  0  0  0  0  0
    8.3416   -3.5635   -5.2950 C   0  0  0  0  0  0  0  0  0  0  0  0
    6.2156   -2.4266   -5.0629 C   0  0  0  0  0  0  0  0  0  0  0  0
    0.6611   -0.6980    0.7475 H   0  0  0  0  0  0  0  0  0  0  0  0
    0.5057   -0.2178   -0.9361 H   0  0  0  0  0  0  0  0  0  0  0  0
    0.6525    1.0164    0.3134 H   0  0  0  0  0  0  0  0  0  0  0  0
    2.6022   -2.0659    0.2578 H   0  0  0  0  0  0  0  0  0  0  0  0
    4.0699   -1.3273   -0.3201 H   0  0  0  0  0  0  0  0  0  0  0  0
    1.5482   -1.8441   -1.9743 H   0  0  0  0  0  0  0  0  0  0  0  0
    3.0646   -2.7030   -2.1105 H   0  0  0  0  0  0  0  0  0  0  0  0
    2.7558   -0.9391   -3.8793 H   0  0  0  0  0  0  0  0  0  0  0  0
    1.4007    0.6398   -2.5666 H   0  0  0  0  0  0  0  0  0  0  0  0
    2.7419    1.5079   -3.1518 H   0  0  0  0  0  0  0  0  0  0  0  0
    2.5565    2.0251   -0.7757 H   0  0  0  0  0  0  0  0  0  0  0  0
    4.0214    1.1126   -0.9887 H   0  0  0  0  0  0  0  0  0  0  0  0
    5.1233   -1.3295   -2.5400 H   0  0  0  0  0  0  0  0  0  0  0  0
    5.0734    3.3564   -4.8093 H   0  0  0  0  0  0  0  0  0  0  0  0
    7.2917    2.7440   -5.7895 H   0  0  0  0  0  0  0  0  0  0  0  0
    9.1009    1.7546   -6.9378 H   0  0  0  0  0  0  0  0  0  0  0  0
    6.9743   -3.1044   -6.9088 H   0  0  0  0  0  0  0  0  0  0  0  0
    8.8379   -3.0438   -4.4659 H   0  0  0  0  0  0  0  0  0  0  0  0
    9.1110   -3.9404   -5.9715 H   0  0  0  0  0  0  0  0  0  0  0  0
    7.7994   -4.4180   -4.8748 H   0  0  0  0  0  0  0  0  0  0  0  0
    6.6416   -2.1189   -4.1031 H   0  0  0  0  0  0  0  0  0  0  0  0
    5.6545   -3.3262   -4.8110 H   0  0  0  0  0  0  0  0  0  0  0  0
    5.5039   -1.7096   -5.4842 H   0  0  0  0  0  0  0  0  0  0  0  0
  1  2  1  0  0  0  0
  1 24  1  0  0  0  0
  1 25  1  0  0  0  0
  1 26  1  0  0  0  0
  2  3  1  0  0  0  0
  2  7  1  0  0  0  0
  3  4  1  0  0  0  0
  3 27  1  0  0  0  0
  3 28  1  0  0  0  0
  4  5  1  0  0  0  0
  4 29  1  0  0  0  0
  4 30  1  0  0  0  0
  5  6  1  0  0  0  0
  5  8  1  0  0  0  0
  5 31  1  0  0  0  0
  6  7  1  0  0  0  0
  6 32  1  0  0  0  0
  6 33  1  0  0  0  0
  7 34  1  0  0  0  0
  7 35  1  0  0  0  0
  8  9  1  0  0  0  0
  8 36  1  0  0  0  0
  9 10  2  0  0  0  0
  9 14  1  0  0  0  0
 10 11  1  0  0  0  0
 11 12  2  0  0  0  0
 11 37  1  0  0  0  0
 12 13  1  0  0  0  0
 12 38  1  0  0  0  0
 13 14  2  0  0  0  0
 13 15  1  0  0  0  0
 15 16  2  0  0  0  0
 15 20  1  0  0  0  0
 16 17  1  0  0  0  0
 16 39  1  0  0  0  0
 17 18  1  0  0  0  0
 17 19  1  0  0  0  0
 19 20  2  0  0  0  0
 20 21  1  0  0  0  0
 21 22  1  0  0  0  0
 21 23  1  0  0  0  0
 21 40  1  0  0  0  0
 22 41  1  0  0  0  0
 22 42  1  0  0  0  0
 22 43  1  0  0  0  0
 23 44  1  0  0  0  0
 23 45  1  0  0  0  0
 23 46  1  0  0  0  0
M  END
$$$$
