3NW
 OpenBabel04121316053D

 68 70  0  0  0  0  0  0  0  0999 V2000
    0.7162   -0.0163    0.2217 C   0  0  0  0  0  0  0  0  0  0  0  0
    2.1626    0.0886    0.6478 C   0  0  0  0  0  0  0  0  0  0  0  0
    2.8184   -0.8829    1.5202 N   0  0  0  0  0  0  0  0  0  0  0  0
    4.2150   -0.8618    1.6709 C   0  0  0  0  0  0  0  0  0  0  0  0
    4.9950   -0.0901    1.1912 O   0  0  0  0  0  0  0  0  0  0  0  0
    4.7246   -1.8932    2.4133 N   0  0  0  0  0  0  0  0  0  0  0  0
    6.1494   -2.2624    2.2186 C   0  0  0  0  0  0  0  0  0  0  0  0
    6.4044   -3.5800    2.8935 C   0  0  0  0  0  0  0  0  0  0  0  0
    7.2969   -3.5409    3.9847 C   0  0  0  0  0  0  0  0  0  0  0  0
    7.5754   -4.6878    4.7067 C   0  0  0  0  0  0  0  0  0  0  0  0
    6.8664   -5.8474    4.4261 C   0  0  0  0  0  0  0  0  0  0  0  0
    5.9271   -5.8763    3.3823 C   0  0  0  0  0  0  0  0  0  0  0  0
    5.7418   -4.7865    2.5074 C   0  0  0  0  0  0  0  0  0  0  0  0
    4.8706   -4.9453    1.2834 C   0  0  0  0  0  0  0  0  0  0  0  0
    4.5298   -6.1751    0.9001 N   0  0  0  0  0  0  0  0  0  0  0  0
    3.7471   -6.2744   -0.1911 C   0  0  0  0  0  0  0  0  0  0  0  0
    3.5009   -7.5299   -0.6463 N   0  0  0  0  0  0  0  0  0  0  0  0
    2.7550   -7.5898   -1.8706 C   0  0  0  0  0  0  0  0  0  0  0  0
    2.5762   -9.0328   -2.2917 C   0  0  0  0  0  0  0  0  0  0  0  0
    1.7538   -9.1567   -3.5016 N   0  0  0  0  0  0  0  0  0  0  0  0
    2.3740   -8.4725   -4.6398 C   0  0  0  0  0  0  0  0  0  0  0  0
    1.5818  -10.5741   -3.8037 C   0  0  0  0  0  0  0  0  0  0  0  0
    3.2023   -5.2623   -0.9043 N   0  0  0  0  0  0  0  0  0  0  0  0
    3.6031   -4.0618   -0.5902 C   0  0  0  0  0  0  0  0  0  0  0  0
    4.4501   -3.9129    0.4744 C   0  0  0  0  0  0  0  0  0  0  0  0
    3.2659   -2.9203   -1.4484 C   0  0  0  0  0  0  0  0  0  0  0  0
    2.2359   -2.5555   -2.2911 C   0  0  0  0  0  0  0  0  0  0  0  0
    2.2271   -1.1796   -2.6559 N   0  0  0  0  0  0  0  0  0  0  0  0
    3.3385   -0.5748   -2.2525 C   0  0  0  0  0  0  0  0  0  0  0  0
    4.4934   -1.7561   -1.7696 S   0  0  0  0  0  0  0  0  0  0  0  0
    3.5379    0.8035   -2.1510 N   0  0  0  0  0  0  0  0  0  0  0  0
    4.3512    1.4422   -1.0529 C   0  0  0  0  0  0  0  0  0  0  0  0
    5.8194    1.0673   -1.0909 C   0  0  0  0  0  0  0  0  0  0  0  0
    4.1898    2.9595   -0.9884 C   0  0  0  0  0  0  0  0  0  0  0  0
    0.5136    0.7648   -0.5341 H   0  0  0  0  0  0  0  0  0  0  0  0
    0.0615    0.1477    1.0699 H   0  0  0  0  0  0  0  0  0  0  0  0
    0.4954   -0.9682   -0.2708 H   0  0  0  0  0  0  0  0  0  0  0  0
    2.3701    1.1122    0.9704 H   0  0  0  0  0  0  0  0  0  0  0  0
    2.6416   -0.0884   -0.2774 H   0  0  0  0  0  0  0  0  0  0  0  0
    2.3979   -1.7951    1.4779 H   0  0  0  0  0  0  0  0  0  0  0  0
    4.0825   -2.6268    2.6618 H   0  0  0  0  0  0  0  0  0  0  0  0
    6.7925   -1.4464    2.5617 H   0  0  0  0  0  0  0  0  0  0  0  0
    6.4550   -2.3701    1.1622 H   0  0  0  0  0  0  0  0  0  0  0  0
    7.7692   -2.6016    4.2729 H   0  0  0  0  0  0  0  0  0  0  0  0
    8.3128   -4.6635    5.5044 H   0  0  0  0  0  0  0  0  0  0  0  0
    7.0433   -6.7394    5.0212 H   0  0  0  0  0  0  0  0  0  0  0  0
    5.3240   -6.7755    3.2620 H   0  0  0  0  0  0  0  0  0  0  0  0
    4.0020   -8.2935   -0.2271 H   0  0  0  0  0  0  0  0  0  0  0  0
    3.2784   -7.0216   -2.6519 H   0  0  0  0  0  0  0  0  0  0  0  0
    1.7681   -7.1277   -1.7239 H   0  0  0  0  0  0  0  0  0  0  0  0
    2.0961   -9.5580   -1.4549 H   0  0  0  0  0  0  0  0  0  0  0  0
    3.5649   -9.4893   -2.4309 H   0  0  0  0  0  0  0  0  0  0  0  0
    2.4482   -7.3920   -4.4765 H   0  0  0  0  0  0  0  0  0  0  0  0
    1.7588   -8.5833   -5.5366 H   0  0  0  0  0  0  0  0  0  0  0  0
    3.3791   -8.8585   -4.8425 H   0  0  0  0  0  0  0  0  0  0  0  0
    1.0902  -11.0875   -2.9697 H   0  0  0  0  0  0  0  0  0  0  0  0
    2.5438  -11.0635   -3.9924 H   0  0  0  0  0  0  0  0  0  0  0  0
    0.9425  -10.6990   -4.6815 H   0  0  0  0  0  0  0  0  0  0  0  0
    4.8095   -2.9287    0.5629 H   0  0  0  0  0  0  0  0  0  0  0  0
    1.4376   -3.2154   -2.6155 H   0  0  0  0  0  0  0  0  0  0  0  0
    2.6838    1.3293   -2.3301 H   0  0  0  0  0  0  0  0  0  0  0  0
    3.9963    1.2016   -0.0673 H   0  0  0  0  0  0  0  0  0  0  0  0
    6.2614    1.3821   -2.0286 H   0  0  0  0  0  0  0  0  0  0  0  0
    5.9876   -0.0011   -0.9942 H   0  0  0  0  0  0  0  0  0  0  0  0
    6.3559    1.4890   -0.2331 H   0  0  0  0  0  0  0  0  0  0  0  0
    4.5232    3.4087   -1.9194 H   0  0  0  0  0  0  0  0  0  0  0  0
    4.7877    3.3727   -0.1594 H   0  0  0  0  0  0  0  0  0  0  0  0
    3.1521    3.2533   -0.7847 H   0  0  0  0  0  0  0  0  0  0  0  0
  1  2  1  0  0  0  0
  1 35  1  0  0  0  0
  1 36  1  0  0  0  0
  1 37  1  0  0  0  0
  2  3  1  0  0  0  0
  2 38  1  0  0  0  0
  2 39  1  0  0  0  0
  3  4  1  0  0  0  0
  3 40  1  0  0  0  0
  4  5  2  0  0  0  0
  4  6  1  0  0  0  0
  6  7  1  0  0  0  0
  6 41  1  0  0  0  0
  7  8  1  0  0  0  0
  7 42  1  0  0  0  0
  7 43  1  0  0  0  0
  8  9  2  0  0  0  0
  8 13  1  0  0  0  0
  9 10  1  0  0  0  0
  9 44  1  0  0  0  0
 10 11  2  0  0  0  0
 10 45  1  0  0  0  0
 11 12  1  0  0  0  0
 11 46  1  0  0  0  0
 12 13  2  0  0  0  0
 12 47  1  0  0  0  0
 13 14  1  0  0  0  0
 14 15  2  0  0  0  0
 14 25  1  0  0  0  0
 15 16  1  0  0  0  0
 16 17  1  0  0  0  0
 16 23  2  0  0  0  0
 17 18  1  0  0  0  0
 17 48  1  0  0  0  0
 18 19  1  0  0  0  0
 18 49  1  0  0  0  0
 18 50  1  0  0  0  0
 19 20  1  0  0  0  0
 19 51  1  0  0  0  0
 19 52  1  0  0  0  0
 20 21  1  0  0  0  0
 20 22  1  0  0  0  0
 21 53  1  0  0  0  0
 21 54  1  0  0  0  0
 21 55  1  0  0  0  0
 22 56  1  0  0  0  0
 22 57  1  0  0  0  0
 22 58  1  0  0  0  0
 23 24  1  0  0  0  0
 24 25  2  0  0  0  0
 24 26  1  0  0  0  0
 25 59  1  0  0  0  0
 26 27  2  0  0  0  0
 26 30  1  0  0  0  0
 27 28  1  0  0  0  0
 27 60  1  0  0  0  0
 28 29  2  0  0  0  0
 29 30  1  0  0  0  0
 29 31  1  0  0  0  0
 31 32  1  0  0  0  0
 31 61  1  0  0  0  0
 32 33  1  0  0  0  0
 32 34  1  0  0  0  0
 32 62  1  0  0  0  0
 33 63  1  0  0  0  0
 33 64  1  0  0  0  0
 33 65  1  0  0  0  0
 34 66  1  0  0  0  0
 34 67  1  0  0  0  0
 34 68  1  0  0  0  0
M  END
$$$$
