3OB
 OpenBabel04121316053D

 56 59  0  0  0  0  0  0  0  0999 V2000
    0.7145    0.0939   -0.1228 N   0  0  0  0  0  0  0  0  0  0  0  0
    1.8953    0.1749   -0.2043 C   0  0  0  0  0  0  0  0  0  0  0  0
    3.2862    0.2117   -0.0756 C   0  0  0  0  0  0  0  0  0  0  0  0
    3.9671    1.4810    0.0233 C   0  0  0  0  0  0  0  0  0  0  0  0
    5.2713    1.5377    0.4955 C   0  0  0  0  0  0  0  0  0  0  0  0
    5.6810    0.3690    1.1614 C   0  0  0  0  0  0  0  0  0  0  0  0
    5.0196   -0.9709    0.9115 C   0  0  0  0  0  0  0  0  0  0  0  0
    3.8648   -1.0258    0.1861 C   0  0  0  0  0  0  0  0  0  0  0  0
    5.8507   -2.6468    0.7227 Cl  0  0  0  0  0  0  0  0  0  0  0  0
    6.1738    2.5123   -0.0084 O   0  0  0  0  0  0  0  0  0  0  0  0
    7.6156    2.3726   -0.0768 C   0  0  0  0  0  0  0  0  0  0  0  0
    8.2646    3.7035   -0.0197 C   0  0  0  0  0  0  0  0  0  0  0  0
    9.6013    3.8280   -0.0160 C   0  0  0  0  0  0  0  0  0  0  0  0
   10.3634    5.1352   -0.0032 C   0  0  0  0  0  0  0  0  0  0  0  0
   11.8847    4.9020    0.0136 C   0  0  0  0  0  0  0  0  0  0  0  0
   12.3828    3.7682    0.0028 O   0  0  0  0  0  0  0  0  0  0  0  0
   12.7573    5.9331   -0.1081 N   0  0  0  0  0  0  0  0  0  0  0  0
   14.0227    5.5843   -0.7297 C   0  0  0  0  0  0  0  0  0  0  0  0
   14.2006    6.4670   -1.9420 C   0  0  0  0  0  0  0  0  0  0  0  0
   14.0054    7.9132   -1.5752 C   0  0  0  0  0  0  0  0  0  0  0  0
   13.2980    8.2891   -0.4099 C   0  0  0  0  0  0  0  0  0  0  0  0
   12.7220    7.2446    0.5211 C   0  0  0  0  0  0  0  0  0  0  0  0
   13.1791    9.6462   -0.0995 C   0  0  0  0  0  0  0  0  0  0  0  0
   13.6989   10.6099   -0.9648 C   0  0  0  0  0  0  0  0  0  0  0  0
   14.3536   10.2291   -2.1352 C   0  0  0  0  0  0  0  0  0  0  0  0
   14.5066    8.8841   -2.4406 C   0  0  0  0  0  0  0  0  0  0  0  0
   10.3382    2.6915   -0.0240 N   0  0  0  0  0  0  0  0  0  0  0  0
   11.3601    2.7024   -0.0121 H   0  0  0  0  0  0  0  0  0  0  0  0
    9.9082    1.4404   -0.0960 C   0  0  0  0  0  0  0  0  0  0  0  0
   10.7491    0.5501   -0.0186 O   0  0  0  0  0  0  0  0  0  0  0  0
    8.4295    1.2597   -0.3099 C   0  0  0  0  0  0  0  0  0  0  0  0
    8.1640   -0.0421   -0.7835 N   0  0  0  0  0  0  0  0  0  0  0  0
    8.8103   -1.2804   -0.2341 C   0  0  0  0  0  0  0  0  0  0  0  0
    6.8248   -0.3591   -1.0577 C   0  0  0  0  0  0  0  0  0  0  0  0
    3.4400    2.3908   -0.2572 H   0  0  0  0  0  0  0  0  0  0  0  0
    6.7370    0.4673    1.4116 H   0  0  0  0  0  0  0  0  0  0  0  0
    3.4480   -1.9960   -0.1171 H   0  0  0  0  0  0  0  0  0  0  0  0
    7.6550    4.6025   -0.0443 H   0  0  0  0  0  0  0  0  0  0  0  0
   10.0627    5.7084    0.8739 H   0  0  0  0  0  0  0  0  0  0  0  0
   10.1014    5.6776   -0.9217 H   0  0  0  0  0  0  0  0  0  0  0  0
   14.0471    4.5463   -1.0821 H   0  0  0  0  0  0  0  0  0  0  0  0
   14.8131    5.6950    0.0172 H   0  0  0  0  0  0  0  0  0  0  0  0
   13.4607    6.2030   -2.7108 H   0  0  0  0  0  0  0  0  0  0  0  0
   15.2009    6.2965   -2.3475 H   0  0  0  0  0  0  0  0  0  0  0  0
   11.7191    7.5094    0.8697 H   0  0  0  0  0  0  0  0  0  0  0  0
   13.3762    7.1813    1.4038 H   0  0  0  0  0  0  0  0  0  0  0  0
   12.6798    9.9612    0.8132 H   0  0  0  0  0  0  0  0  0  0  0  0
   13.5880   11.6645   -0.7305 H   0  0  0  0  0  0  0  0  0  0  0  0
   14.7517   10.9779   -2.8126 H   0  0  0  0  0  0  0  0  0  0  0  0
   15.0182    8.5847   -3.3517 H   0  0  0  0  0  0  0  0  0  0  0  0
    9.8823   -1.2835   -0.1274 H   0  0  0  0  0  0  0  0  0  0  0  0
    8.5531   -2.0733   -0.9422 H   0  0  0  0  0  0  0  0  0  0  0  0
    8.4150   -1.5870    0.7537 H   0  0  0  0  0  0  0  0  0  0  0  0
    6.1958    0.4960   -1.2131 H   0  0  0  0  0  0  0  0  0  0  0  0
    6.7525   -0.7944   -0.0961 H   0  0  0  0  0  0  0  0  0  0  0  0
    6.4344   -1.1266   -1.7068 H   0  0  0  0  0  0  0  0  0  0  0  0
  1  2  3  0  0  0  0
  2  3  1  0  0  0  0
  3  4  2  0  0  0  0
  3  8  1  0  0  0  0
  4  5  1  0  0  0  0
  4 35  1  0  0  0  0
  5  6  2  0  0  0  0
  5 10  1  0  0  0  0
  6  7  1  0  0  0  0
  6 36  1  0  0  0  0
  7  8  2  0  0  0  0
  7  9  1  0  0  0  0
  8 37  1  0  0  0  0
 10 11  1  0  0  0  0
 11 12  1  0  0  0  0
 11 31  2  0  0  0  0
 12 13  2  0  0  0  0
 12 38  1  0  0  0  0
 13 14  1  0  0  0  0
 13 27  1  0  0  0  0
 14 15  1  0  0  0  0
 14 39  1  0  0  0  0
 14 40  1  0  0  0  0
 15 16  2  0  0  0  0
 15 17  1  0  0  0  0
 17 18  1  0  0  0  0
 17 22  1  0  0  0  0
 18 19  1  0  0  0  0
 18 41  1  0  0  0  0
 18 42  1  0  0  0  0
 19 20  1  0  0  0  0
 19 43  1  0  0  0  0
 19 44  1  0  0  0  0
 20 21  2  0  0  0  0
 20 26  1  0  0  0  0
 21 22  1  0  0  0  0
 21 23  1  0  0  0  0
 22 45  1  0  0  0  0
 22 46  1  0  0  0  0
 23 24  2  0  0  0  0
 23 47  1  0  0  0  0
 24 25  1  0  0  0  0
 24 48  1  0  0  0  0
 25 26  2  0  0  0  0
 25 49  1  0  0  0  0
 26 50  1  0  0  0  0
 27 28  1  0  0  0  0
 27 29  1  0  0  0  0
 29 30  2  0  0  0  0
 29 31  1  0  0  0  0
 31 32  1  0  0  0  0
 32 33  1  0  0  0  0
 32 34  1  0  0  0  0
 33 51  1  0  0  0  0
 33 52  1  0  0  0  0
 33 53  1  0  0  0  0
 34 54  1  0  0  0  0
 34 55  1  0  0  0  0
 34 56  1  0  0  0  0
M  END
$$$$
