3OQ
 OpenBabel04121316053D

 42 43  0  0  1  0  0  0  0  0999 V2000
    1.2976    0.5546   -0.7143 F   0  0  0  0  0  0  0  0  0  0  0  0
    2.6374    0.5402   -0.5168 C   0  0  0  0  0  0  0  0  0  0  0  0
    3.0841    1.4017    0.7195 C   0  0  0  0  0  0  0  0  0  0  0  0
    4.4902    1.1445    1.0123 C   0  0  0  0  0  0  0  0  0  0  0  0
    5.1997    2.3362    1.1455 C   0  0  0  0  0  0  0  0  0  0  0  0
    6.5487    2.3097    0.9317 C   0  0  0  0  0  0  0  0  0  0  0  0
    7.2085    3.5421    0.7032 C   0  0  0  0  0  0  0  0  0  0  0  0
    7.6935    4.5965    0.4844 N   0  0  0  0  0  0  0  0  0  0  0  0
    7.1769    1.0628    0.8536 C   0  0  0  0  0  0  0  0  0  0  0  0
    6.4594   -0.1490    1.0553 C   0  0  0  0  0  0  0  0  0  0  0  0
    5.0627   -0.1288    1.1373 C   0  0  0  0  0  0  0  0  0  0  0  0
    4.1166   -1.7497    1.2489 S   0  0  0  0  0  0  0  0  0  0  0  0
    4.2701   -2.2986   -0.0925 O   0  0  0  0  0  0  0  0  0  0  0  0
    4.6880   -2.4569    2.3780 O   0  0  0  0  0  0  0  0  0  0  0  0
    2.2457   -1.7243    1.5743 C   0  0  0  0  0  0  0  0  0  0  0  0
    1.4454   -2.7604    1.1548 C   0  0  0  0  0  0  0  0  0  0  0  0
    0.0710   -2.5101    0.8278 C   0  0  0  0  0  0  0  0  0  0  0  0
   -0.5420   -1.2393    0.9075 C   0  0  0  0  0  0  0  0  0  0  0  0
    0.1733   -0.2969    1.5451 C   0  0  0  0  0  0  0  0  0  0  0  0
    1.4893   -0.5986    1.8303 C   0  0  0  0  0  0  0  0  0  0  0  0
   -1.9010   -0.8414    0.3832 C   0  0  1  0  0  0  0  0  0  0  0  0
   -2.1585   -1.3736   -1.0430 C   0  0  0  0  0  0  0  0  0  0  0  0
   -1.9515   -2.7094   -1.1179 F   0  0  0  0  0  0  0  0  0  0  0  0
   -3.4434   -1.1569   -1.4093 F   0  0  0  0  0  0  0  0  0  0  0  0
   -1.3679   -0.7821   -1.9669 F   0  0  0  0  0  0  0  0  0  0  0  0
   -2.7823   -1.4209    1.3610 O   0  0  0  0  0  0  0  0  0  0  0  0
   -2.1766    0.6907    0.3640 C   0  0  0  0  0  0  0  0  0  0  0  0
    3.1117    0.8710   -1.4395 H   0  0  0  0  0  0  0  0  0  0  0  0
    2.9051   -0.5104   -0.4886 H   0  0  0  0  0  0  0  0  0  0  0  0
    2.8838    1.3546    1.8109 H   0  0  0  0  0  0  0  0  0  0  0  0
    2.6876    2.4105    0.6005 H   0  0  0  0  0  0  0  0  0  0  0  0
    4.6526    3.2719    1.2865 H   0  0  0  0  0  0  0  0  0  0  0  0
    8.2414    1.0410    0.6386 H   0  0  0  0  0  0  0  0  0  0  0  0
    7.0119   -1.0853    1.0865 H   0  0  0  0  0  0  0  0  0  0  0  0
    1.8648   -3.7493    1.0255 H   0  0  0  0  0  0  0  0  0  0  0  0
   -0.5170   -3.3400    0.4600 H   0  0  0  0  0  0  0  0  0  0  0  0
   -0.0669    0.7761    1.4781 H   0  0  0  0  0  0  0  0  0  0  0  0
    1.8155    0.3603    1.7627 H   0  0  0  0  0  0  0  0  0  0  0  0
   -2.5157   -2.3567    1.4280 H   0  0  0  0  0  0  0  0  0  0  0  0
   -1.5305    1.2146   -0.3563 H   0  0  0  0  0  0  0  0  0  0  0  0
   -2.0261    1.1582    1.3468 H   0  0  0  0  0  0  0  0  0  0  0  0
   -3.2187    0.9059    0.1141 H   0  0  0  0  0  0  0  0  0  0  0  0
  1  2  1  0  0  0  0
  2  3  1  0  0  0  0
  2 28  1  0  0  0  0
  2 29  1  0  0  0  0
  3  4  1  0  0  0  0
  3 30  1  0  0  0  0
  3 31  1  0  0  0  0
  4  5  2  0  0  0  0
  4 11  1  0  0  0  0
  5  6  1  0  0  0  0
  5 32  1  0  0  0  0
  6  7  1  0  0  0  0
  6  9  2  0  0  0  0
  7  8  3  0  0  0  0
  9 10  1  0  0  0  0
  9 33  1  0  0  0  0
 10 11  2  0  0  0  0
 10 34  1  0  0  0  0
 11 12  1  0  0  0  0
 12 13  2  0  0  0  0
 12 14  2  0  0  0  0
 12 15  1  0  0  0  0
 15 16  2  0  0  0  0
 15 20  1  0  0  0  0
 16 17  1  0  0  0  0
 16 35  1  0  0  0  0
 17 18  2  0  0  0  0
 17 36  1  0  0  0  0
 18 19  1  0  0  0  0
 19 20  2  0  0  0  0
 19 37  1  0  0  0  0
 20 38  1  0  0  0  0
 21 18  1  1  0  0  0
 21 22  1  0  0  0  0
 21 26  1  0  0  0  0
 21 27  1  0  0  0  0
 22 23  1  0  0  0  0
 22 24  1  0  0  0  0
 22 25  1  0  0  0  0
 26 39  1  0  0  0  0
 27 40  1  0  0  0  0
 27 41  1  0  0  0  0
 27 42  1  0  0  0  0
M  END
$$$$
