3OW
 OpenBabel04121316053D

 97100  0  0  1  0  0  0  0  0999 V2000
    3.2916   -0.3665    3.9131 C   0  0  0  0  0  0  0  0  0  0  0  0
    2.6956   -1.3402    4.9088 C   0  0  0  0  0  0  0  0  0  0  0  0
    3.1399   -2.7473    4.5746 C   0  0  0  0  0  0  0  0  0  0  0  0
    2.7560   -3.1056    3.2404 N   0  0  0  0  0  0  0  0  0  0  0  0
    3.0378   -4.3304    2.7204 C   0  0  0  0  0  0  0  0  0  0  0  0
    3.6640   -5.1452    3.3955 O   0  0  0  0  0  0  0  0  0  0  0  0
    2.4439   -4.6866    1.3191 C   0  0  2  0  0  0  0  0  0  0  0  0
    2.9485   -3.9957    0.6121 H   0  0  0  0  0  0  0  0  0  0  0  0
    0.9584   -4.4811    0.8940 C   0  0  0  0  0  0  0  0  0  0  0  0
   -0.0302   -5.9785    1.2267 C   0  0  0  0  0  0  0  0  0  0  0  0
    0.5559   -3.2120    1.5995 C   0  0  0  0  0  0  0  0  0  0  0  0
    2.4321   -6.3005    1.3643 C   0  0  0  0  0  0  0  0  0  0  0  0
    1.0464   -7.2901    2.7849 C   0  0  1  0  0  0  0  0  0  0  0  0
    2.3459   -6.9053    3.1502 H   0  0  0  0  0  0  0  0  0  0  0  0
   -1.1848   -6.6485    3.4129 C   0  0  2  0  0  0  0  0  0  0  0  0
   -0.7762   -7.5020    2.1825 H   0  0  0  0  0  0  0  0  0  0  0  0
    0.0726   -5.0133    3.4778 C   0  0  0  0  0  0  0  0  0  0  0  0
   -1.4835   -5.3669    2.9571 O   0  0  0  0  0  0  0  0  0  0  0  0
   -1.7246   -4.1097    2.9487 C   0  0  0  0  0  0  0  0  0  0  0  0
   -3.0586   -4.3610    2.6856 C   0  0  0  0  0  0  0  0  0  0  0  0
   -3.6980   -5.4960    2.2354 C   0  0  0  0  0  0  0  0  0  0  0  0
   -5.0235   -5.5492    2.4394 C   0  0  0  0  0  0  0  0  0  0  0  0
   -5.6235   -4.3614    2.3618 C   0  0  0  0  0  0  0  0  0  0  0  0
   -4.9985   -3.1779    2.5076 C   0  0  0  0  0  0  0  0  0  0  0  0
   -3.7468   -3.2895    2.9539 C   0  0  0  0  0  0  0  0  0  0  0  0
   -5.6892   -1.8925    2.2837 C   0  0  1  0  0  0  0  0  0  0  0  0
   -6.1103   -1.9018    1.2682 H   0  0  0  0  0  0  0  0  0  0  0  0
   -6.7492   -1.7417    3.2231 N   0  0  0  0  0  0  0  0  0  0  0  0
   -7.7738   -2.5954    3.1939 C   0  0  0  0  0  0  0  0  0  0  0  0
   -8.0331   -3.5313    2.4643 O   0  0  0  0  0  0  0  0  0  0  0  0
   -8.8183   -2.4578    4.0613 C   0  0  0  0  0  0  0  0  0  0  0  0
   -8.8482   -3.8476    4.6179 C   0  0  0  0  0  0  0  0  0  0  0  0
   -7.4968   -4.3746    5.2954 C   0  0  0  0  0  0  0  0  0  0  0  0
   -5.4448   -5.4331    4.7438 C   0  0  0  0  0  0  0  0  0  0  0  0
   -6.8267   -5.9747    5.1748 O   0  0  0  0  0  0  0  0  0  0  0  0
   -3.4268   -6.1895    4.2081 N   0  0  0  0  0  0  0  0  0  0  0  0
   -9.0682   -3.2115    6.0004 C   0  0  0  0  0  0  0  0  0  0  0  0
   -9.9401   -1.5657    5.6090 C   0  0  0  0  0  0  0  0  0  0  0  0
   -9.2022   -1.2641    4.6018 C   0  0  0  0  0  0  0  0  0  0  0  0
  -10.6501   -0.0348    6.1278 N   0  0  0  0  0  0  0  0  0  0  0  0
  -11.9280    0.2918    7.2599 S   0  0  0  0  0  0  0  0  0  0  0  0
  -11.3460    0.9106    8.4375 O   0  0  0  0  0  0  0  0  0  0  0  0
  -13.0125    1.0184    6.6151 O   0  0  0  0  0  0  0  0  0  0  0  0
  -12.5065   -1.3522    7.6842 C   0  0  0  0  0  0  0  0  0  0  0  0
  -10.0396    1.2930    5.5772 C   0  0  0  0  0  0  0  0  0  0  0  0
   -4.7511   -0.7299    2.3886 C   0  0  0  0  0  0  0  0  0  0  0  0
   -5.1795    0.5555    2.5633 C   0  0  0  0  0  0  0  0  0  0  0  0
   -4.2989    1.6011    2.3964 C   0  0  0  0  0  0  0  0  0  0  0  0
   -2.9491    1.3640    2.3657 C   0  0  0  0  0  0  0  0  0  0  0  0
   -2.4859    0.1025    2.5018 C   0  0  0  0  0  0  0  0  0  0  0  0
   -3.3836   -0.8724    2.2508 C   0  0  0  0  0  0  0  0  0  0  0  0
    2.3874   -8.3573    1.8201 O   0  0  0  0  0  0  0  0  0  0  0  0
    3.1576   -0.9850    6.3029 C   0  0  0  0  0  0  0  0  0  0  0  0
    2.9648   -0.6028    2.9000 H   0  0  0  0  0  0  0  0  0  0  0  0
    4.3821   -0.4201    3.9428 H   0  0  0  0  0  0  0  0  0  0  0  0
    2.9796    0.6500    4.1431 H   0  0  0  0  0  0  0  0  0  0  0  0
    1.6053   -1.2789    4.8621 H   0  0  0  0  0  0  0  0  0  0  0  0
    2.7061   -3.4597    5.2808 H   0  0  0  0  0  0  0  0  0  0  0  0
    4.2253   -2.8269    4.6185 H   0  0  0  0  0  0  0  0  0  0  0  0
    2.2544   -2.4136    2.7082 H   0  0  0  0  0  0  0  0  0  0  0  0
    0.5892   -4.8798   -0.0071 H   0  0  0  0  0  0  0  0  0  0  0  0
    0.0769   -6.2982    2.6239 H   0  0  0  0  0  0  0  0  0  0  0  0
    0.7554   -6.3904    1.5181 H   0  0  0  0  0  0  0  0  0  0  0  0
   -0.4389   -5.6841    1.9809 H   0  0  0  0  0  0  0  0  0  0  0  0
    0.7382   -3.0530    2.6884 H   0  0  0  0  0  0  0  0  0  0  0  0
   -0.4331   -2.9530    1.4853 H   0  0  0  0  0  0  0  0  0  0  0  0
    0.9008   -2.4399    0.9927 H   0  0  0  0  0  0  0  0  0  0  0  0
    3.8572   -6.2170    1.1295 H   0  0  0  0  0  0  0  0  0  0  0  0
    2.5161   -6.4164    0.0994 H   0  0  0  0  0  0  0  0  0  0  0  0
    0.9423   -5.0515    2.5173 H   0  0  0  0  0  0  0  0  0  0  0  0
    1.1036   -5.3209    3.8821 H   0  0  0  0  0  0  0  0  0  0  0  0
   -1.4010   -3.8446    2.0237 H   0  0  0  0  0  0  0  0  0  0  0  0
   -1.1919   -3.9859    3.8562 H   0  0  0  0  0  0  0  0  0  0  0  0
   -3.1599   -6.4617    2.3336 H   0  0  0  0  0  0  0  0  0  0  0  0
   -5.5688   -6.4421    2.7255 H   0  0  0  0  0  0  0  0  0  0  0  0
   -6.6223   -4.4444    2.1336 H   0  0  0  0  0  0  0  0  0  0  0  0
   -3.1659   -2.5211    3.4106 H   0  0  0  0  0  0  0  0  0  0  0  0
   -6.7269   -0.9731    3.8663 H   0  0  0  0  0  0  0  0  0  0  0  0
   -9.3173   -4.7038    4.2023 H   0  0  0  0  0  0  0  0  0  0  0  0
   -2.8867   -7.2548    4.0732 H   0  0  0  0  0  0  0  0  0  0  0  0
  -10.6133   -2.8766    6.3841 H   0  0  0  0  0  0  0  0  0  0  0  0
   -8.7531   -0.3826    4.2418 H   0  0  0  0  0  0  0  0  0  0  0  0
  -11.6957   -1.9280    8.1371 H   0  0  0  0  0  0  0  0  0  0  0  0
  -12.9123   -1.8517    6.7998 H   0  0  0  0  0  0  0  0  0  0  0  0
  -13.3055   -1.2878    8.4226 H   0  0  0  0  0  0  0  0  0  0  0  0
   -9.2607    1.1094    4.8472 H   0  0  0  0  0  0  0  0  0  0  0  0
   -9.5558    1.8627    6.3756 H   0  0  0  0  0  0  0  0  0  0  0  0
  -10.7645    1.9386    5.0662 H   0  0  0  0  0  0  0  0  0  0  0  0
   -6.2058    0.7599    2.7829 H   0  0  0  0  0  0  0  0  0  0  0  0
   -4.6376    2.6151    2.3081 H   0  0  0  0  0  0  0  0  0  0  0  0
   -2.2705    2.1793    2.2386 H   0  0  0  0  0  0  0  0  0  0  0  0
   -1.4563   -0.1301    2.6721 H   0  0  0  0  0  0  0  0  0  0  0  0
   -2.9355   -1.7945    1.9316 H   0  0  0  0  0  0  0  0  0  0  0  0
    3.6068   -8.2867    1.7185 H   0  0  0  0  0  0  0  0  0  0  0  0
    4.2472   -1.0408    6.3645 H   0  0  0  0  0  0  0  0  0  0  0  0
    2.7321   -1.6764    7.0311 H   0  0  0  0  0  0  0  0  0  0  0  0
    2.8462    0.0286    6.5571 H   0  0  0  0  0  0  0  0  0  0  0  0
  1  2  1  0  0  0  0
  1 54  1  0  0  0  0
  1 55  1  0  0  0  0
  1 56  1  0  0  0  0
  2  3  1  0  0  0  0
  2 53  1  0  0  0  0
  2 57  1  0  0  0  0
  3  4  1  0  0  0  0
  3 58  1  0  0  0  0
  3 59  1  0  0  0  0
  4  5  1  0  0  0  0
  4 60  1  0  0  0  0
  5  6  2  0  0  0  0
  7  9  1  0  0  0  0
  7 12  1  0  0  0  0
  7  8  1  6  0  0  0
  7  5  1  0  0  0  0
  9 10  1  0  0  0  0
  9 11  1  0  0  0  0
  9 61  1  0  0  0  0
 10 62  1  0  0  0  0
 10 63  1  0  0  0  0
 10 64  1  0  0  0  0
 11 65  1  0  0  0  0
 11 66  1  0  0  0  0
 11 67  1  0  0  0  0
 12 13  1  0  0  0  0
 12 68  1  0  0  0  0
 12 69  1  0  0  0  0
 13 14  1  1  0  0  0
 13 15  1  0  0  0  0
 13 52  1  0  0  0  0
 15 16  1  6  0  0  0
 15 17  1  0  0  0  0
 15 36  1  0  0  0  0
 17 18  1  0  0  0  0
 17 70  1  0  0  0  0
 17 71  1  0  0  0  0
 18 19  1  0  0  0  0
 19 20  1  0  0  0  0
 19 72  1  0  0  0  0
 19 73  1  0  0  0  0
 20 21  2  0  0  0  0
 20 25  1  0  0  0  0
 21 22  1  0  0  0  0
 21 74  1  0  0  0  0
 22 23  2  0  0  0  0
 22 75  1  0  0  0  0
 23 24  1  0  0  0  0
 23 76  1  0  0  0  0
 24 25  2  0  0  0  0
 24 26  1  0  0  0  0
 25 77  1  0  0  0  0
 26 27  1  6  0  0  0
 26 28  1  0  0  0  0
 26 46  1  0  0  0  0
 28 29  1  0  0  0  0
 28 78  1  0  0  0  0
 29 30  2  0  0  0  0
 29 31  1  0  0  0  0
 31 32  2  0  0  0  0
 31 39  1  0  0  0  0
 32 33  1  0  0  0  0
 32 79  1  0  0  0  0
 33 34  1  0  0  0  0
 33 37  2  0  0  0  0
 34 35  2  0  0  0  0
 34 36  1  0  0  0  0
 36 80  1  0  0  0  0
 37 38  1  0  0  0  0
 37 81  1  0  0  0  0
 38 39  2  0  0  0  0
 38 40  1  0  0  0  0
 39 82  1  0  0  0  0
 40 41  1  0  0  0  0
 40 45  1  0  0  0  0
 41 42  2  0  0  0  0
 41 43  2  0  0  0  0
 41 44  1  0  0  0  0
 44 83  1  0  0  0  0
 44 84  1  0  0  0  0
 44 85  1  0  0  0  0
 45 86  1  0  0  0  0
 45 87  1  0  0  0  0
 45 88  1  0  0  0  0
 46 47  2  0  0  0  0
 46 51  1  0  0  0  0
 47 48  1  0  0  0  0
 47 89  1  0  0  0  0
 48 49  2  0  0  0  0
 48 90  1  0  0  0  0
 49 50  1  0  0  0  0
 49 91  1  0  0  0  0
 50 51  2  0  0  0  0
 50 92  1  0  0  0  0
 51 93  1  0  0  0  0
 52 94  1  0  0  0  0
 53 95  1  0  0  0  0
 53 96  1  0  0  0  0
 53 97  1  0  0  0  0
M  END
$$$$
