3OX
 OpenBabel04121316053D

 97100  0  0  1  0  0  0  0  0999 V2000
    1.5373   -3.0921    3.3245 C   0  0  0  0  0  0  0  0  0  0  0  0
    1.4868   -4.6050    3.3850 C   0  0  0  0  0  0  0  0  0  0  0  0
    2.4616   -5.2099    2.3900 C   0  0  0  0  0  0  0  0  0  0  0  0
    2.2052   -4.8047    1.0721 N   0  0  0  0  0  0  0  0  0  0  0  0
    2.8540   -5.1588   -0.0480 C   0  0  0  0  0  0  0  0  0  0  0  0
    3.8045   -5.9209    0.0647 O   0  0  0  0  0  0  0  0  0  0  0  0
    2.2782   -4.6868   -1.4188 C   0  0  2  0  0  0  0  0  0  0  0  0
    2.7498   -3.7213   -1.6293 H   0  0  0  0  0  0  0  0  0  0  0  0
    0.7994   -4.2476   -1.6826 C   0  0  0  0  0  0  0  0  0  0  0  0
   -0.2304   -5.7762   -2.1579 C   0  0  0  0  0  0  0  0  0  0  0  0
    0.3398   -3.5823   -0.4345 C   0  0  0  0  0  0  0  0  0  0  0  0
    2.2418   -6.0552   -2.2637 C   0  0  0  0  0  0  0  0  0  0  0  0
    0.7731   -7.6179   -1.5921 C   0  0  1  0  0  0  0  0  0  0  0  0
    2.1969   -7.4937   -1.1175 H   0  0  0  0  0  0  0  0  0  0  0  0
   -1.4972   -7.3060   -0.6720 C   0  0  2  0  0  0  0  0  0  0  0  0
   -0.9566   -7.4281   -2.1892 H   0  0  0  0  0  0  0  0  0  0  0  0
   -0.0708   -6.0007    0.1880 C   0  0  0  0  0  0  0  0  0  0  0  0
   -1.6647   -6.0187   -0.6180 O   0  0  0  0  0  0  0  0  0  0  0  0
   -1.8253   -5.0500    0.2397 C   0  0  0  0  0  0  0  0  0  0  0  0
   -3.1370   -4.8139   -0.0397 C   0  0  0  0  0  0  0  0  0  0  0  0
   -3.9435   -5.6697   -0.5701 C   0  0  0  0  0  0  0  0  0  0  0  0
   -5.2311   -6.1523   -0.6716 C   0  0  0  0  0  0  0  0  0  0  0  0
   -5.8387   -5.0480   -0.4597 C   0  0  0  0  0  0  0  0  0  0  0  0
   -5.1889   -3.8751   -0.2938 C   0  0  0  0  0  0  0  0  0  0  0  0
   -3.8734   -3.8318    0.0169 C   0  0  0  0  0  0  0  0  0  0  0  0
   -5.9156   -2.6835   -0.5622 C   0  0  2  0  0  0  0  0  0  0  0  0
   -5.1857   -1.8858   -0.4555 H   0  0  0  0  0  0  0  0  0  0  0  0
   -6.9334   -2.5330    0.3969 N   0  0  0  0  0  0  0  0  0  0  0  0
   -7.9498   -3.3920    0.3727 C   0  0  0  0  0  0  0  0  0  0  0  0
   -8.2206   -4.3457   -0.3321 O   0  0  0  0  0  0  0  0  0  0  0  0
   -8.9946   -3.1998    1.1964 C   0  0  0  0  0  0  0  0  0  0  0  0
   -9.1744   -4.5653    1.6479 C   0  0  0  0  0  0  0  0  0  0  0  0
   -7.7139   -5.2933    2.1063 C   0  0  0  0  0  0  0  0  0  0  0  0
   -5.7083   -6.4043    1.2677 C   0  0  0  0  0  0  0  0  0  0  0  0
   -7.1886   -6.7658    1.6906 O   0  0  0  0  0  0  0  0  0  0  0  0
   -3.7397   -7.2127    0.4441 N   0  0  0  0  0  0  0  0  0  0  0  0
   -9.3092   -4.1276    2.9266 C   0  0  0  0  0  0  0  0  0  0  0  0
  -10.1623   -2.3893    2.7351 C   0  0  0  0  0  0  0  0  0  0  0  0
   -9.3926   -2.0472    1.7819 C   0  0  0  0  0  0  0  0  0  0  0  0
  -10.8521   -0.8317    3.2928 N   0  0  0  0  0  0  0  0  0  0  0  0
  -12.1214   -0.5165    4.4317 S   0  0  0  0  0  0  0  0  0  0  0  0
  -11.5448    0.1016    5.6129 O   0  0  0  0  0  0  0  0  0  0  0  0
  -13.2110    0.2098    3.7970 O   0  0  0  0  0  0  0  0  0  0  0  0
  -12.6941   -2.1704    4.8546 C   0  0  0  0  0  0  0  0  0  0  0  0
  -10.2304    0.4861    2.7468 C   0  0  0  0  0  0  0  0  0  0  0  0
   -6.4497   -2.7105   -1.9546 C   0  0  0  0  0  0  0  0  0  0  0  0
   -6.8274   -3.8781   -2.6218 C   0  0  0  0  0  0  0  0  0  0  0  0
   -7.0771   -3.9388   -3.9473 C   0  0  0  0  0  0  0  0  0  0  0  0
   -7.2437   -2.7646   -4.5926 C   0  0  0  0  0  0  0  0  0  0  0  0
   -7.1654   -1.5807   -3.8884 C   0  0  0  0  0  0  0  0  0  0  0  0
   -6.6362   -1.5408   -2.6170 C   0  0  0  0  0  0  0  0  0  0  0  0
    2.2057   -7.9965   -2.9621 O   0  0  0  0  0  0  0  0  0  0  0  0
    1.8768   -5.0669    4.7677 C   0  0  0  0  0  0  0  0  0  0  0  0
    1.2499   -2.7355    2.3370 H   0  0  0  0  0  0  0  0  0  0  0  0
    2.5494   -2.7441    3.5333 H   0  0  0  0  0  0  0  0  0  0  0  0
    0.8560   -2.6592    4.0524 H   0  0  0  0  0  0  0  0  0  0  0  0
    0.4680   -4.9351    3.1673 H   0  0  0  0  0  0  0  0  0  0  0  0
    2.4019   -6.2879    2.4059 H   0  0  0  0  0  0  0  0  0  0  0  0
    3.4647   -4.8686    2.5806 H   0  0  0  0  0  0  0  0  0  0  0  0
    1.5736   -4.0761    1.0815 H   0  0  0  0  0  0  0  0  0  0  0  0
    0.3865   -4.1984   -2.6237 H   0  0  0  0  0  0  0  0  0  0  0  0
   -0.1501   -6.8769   -0.9996 H   0  0  0  0  0  0  0  0  0  0  0  0
    0.5484   -6.2035   -1.9883 H   0  0  0  0  0  0  0  0  0  0  0  0
   -0.5003   -5.9351   -1.3420 H   0  0  0  0  0  0  0  0  0  0  0  0
    0.2920   -4.0365    0.5518 H   0  0  0  0  0  0  0  0  0  0  0  0
   -0.6383   -3.3200   -0.3872 H   0  0  0  0  0  0  0  0  0  0  0  0
    0.6966   -2.6284   -0.4847 H   0  0  0  0  0  0  0  0  0  0  0  0
    3.7097   -5.8336   -2.4238 H   0  0  0  0  0  0  0  0  0  0  0  0
    2.3534   -5.4511   -3.3955 H   0  0  0  0  0  0  0  0  0  0  0  0
    0.7705   -5.5447   -0.6609 H   0  0  0  0  0  0  0  0  0  0  0  0
    0.9424   -6.5555    0.3295 H   0  0  0  0  0  0  0  0  0  0  0  0
   -1.5308   -4.3545   -0.3804 H   0  0  0  0  0  0  0  0  0  0  0  0
   -1.3495   -5.5181    1.0424 H   0  0  0  0  0  0  0  0  0  0  0  0
   -3.0916   -6.1467   -0.2274 H   0  0  0  0  0  0  0  0  0  0  0  0
   -5.6970   -7.2335   -0.3055 H   0  0  0  0  0  0  0  0  0  0  0  0
   -6.8323   -5.2437   -0.5870 H   0  0  0  0  0  0  0  0  0  0  0  0
   -3.3131   -3.0283    0.2749 H   0  0  0  0  0  0  0  0  0  0  0  0
   -6.9143   -1.7655    1.0311 H   0  0  0  0  0  0  0  0  0  0  0  0
   -9.5826   -5.4906    1.3844 H   0  0  0  0  0  0  0  0  0  0  0  0
   -3.1011   -8.0579   -0.3464 H   0  0  0  0  0  0  0  0  0  0  0  0
  -10.8282   -3.6707    3.4688 H   0  0  0  0  0  0  0  0  0  0  0  0
   -8.9371   -1.1841    1.4256 H   0  0  0  0  0  0  0  0  0  0  0  0
  -11.8818   -2.7496    5.3020 H   0  0  0  0  0  0  0  0  0  0  0  0
  -13.0982   -2.6727    3.9709 H   0  0  0  0  0  0  0  0  0  0  0  0
  -13.4920   -2.1092    5.5925 H   0  0  0  0  0  0  0  0  0  0  0  0
   -9.4531    0.2891    2.0199 H   0  0  0  0  0  0  0  0  0  0  0  0
   -9.7491    1.0511    3.5476 H   0  0  0  0  0  0  0  0  0  0  0  0
  -10.9551    1.1282    2.2398 H   0  0  0  0  0  0  0  0  0  0  0  0
   -6.9295   -4.8155   -2.1396 H   0  0  0  0  0  0  0  0  0  0  0  0
   -7.1561   -4.8695   -4.4693 H   0  0  0  0  0  0  0  0  0  0  0  0
   -7.4449   -2.7979   -5.6433 H   0  0  0  0  0  0  0  0  0  0  0  0
   -7.5062   -0.6803   -4.3548 H   0  0  0  0  0  0  0  0  0  0  0  0
   -6.3710   -0.6182   -2.1367 H   0  0  0  0  0  0  0  0  0  0  0  0
    3.4780   -7.9330   -3.0602 H   0  0  0  0  0  0  0  0  0  0  0  0
    2.8927   -4.7406    4.9977 H   0  0  0  0  0  0  0  0  0  0  0  0
    1.8394   -6.1541    4.8258 H   0  0  0  0  0  0  0  0  0  0  0  0
    1.2000   -4.6512    5.5119 H   0  0  0  0  0  0  0  0  0  0  0  0
  1  2  1  0  0  0  0
  1 54  1  0  0  0  0
  1 55  1  0  0  0  0
  1 56  1  0  0  0  0
  2  3  1  0  0  0  0
  2 53  1  0  0  0  0
  2 57  1  0  0  0  0
  3  4  1  0  0  0  0
  3 58  1  0  0  0  0
  3 59  1  0  0  0  0
  4  5  1  0  0  0  0
  4 60  1  0  0  0  0
  5  6  2  0  0  0  0
  7  9  1  0  0  0  0
  7 12  1  0  0  0  0
  7  8  1  6  0  0  0
  7  5  1  0  0  0  0
  9 10  1  0  0  0  0
  9 11  1  0  0  0  0
  9 61  1  0  0  0  0
 10 62  1  0  0  0  0
 10 63  1  0  0  0  0
 10 64  1  0  0  0  0
 11 65  1  0  0  0  0
 11 66  1  0  0  0  0
 11 67  1  0  0  0  0
 12 13  1  0  0  0  0
 12 68  1  0  0  0  0
 12 69  1  0  0  0  0
 13 14  1  1  0  0  0
 13 15  1  0  0  0  0
 13 52  1  0  0  0  0
 15 16  1  6  0  0  0
 15 17  1  0  0  0  0
 15 36  1  0  0  0  0
 17 18  1  0  0  0  0
 17 70  1  0  0  0  0
 17 71  1  0  0  0  0
 18 19  1  0  0  0  0
 19 20  1  0  0  0  0
 19 72  1  0  0  0  0
 19 73  1  0  0  0  0
 20 21  2  0  0  0  0
 20 25  1  0  0  0  0
 21 22  1  0  0  0  0
 21 74  1  0  0  0  0
 22 23  2  0  0  0  0
 22 75  1  0  0  0  0
 23 24  1  0  0  0  0
 23 76  1  0  0  0  0
 24 25  2  0  0  0  0
 24 26  1  0  0  0  0
 25 77  1  0  0  0  0
 26 28  1  0  0  0  0
 26 46  1  0  0  0  0
 26 27  1  1  0  0  0
 28 29  1  0  0  0  0
 28 78  1  0  0  0  0
 29 30  2  0  0  0  0
 29 31  1  0  0  0  0
 31 32  2  0  0  0  0
 31 39  1  0  0  0  0
 32 33  1  0  0  0  0
 32 79  1  0  0  0  0
 33 34  1  0  0  0  0
 33 37  2  0  0  0  0
 34 35  2  0  0  0  0
 34 36  1  0  0  0  0
 36 80  1  0  0  0  0
 37 38  1  0  0  0  0
 37 81  1  0  0  0  0
 38 39  2  0  0  0  0
 38 40  1  0  0  0  0
 39 82  1  0  0  0  0
 40 41  1  0  0  0  0
 40 45  1  0  0  0  0
 41 42  2  0  0  0  0
 41 43  2  0  0  0  0
 41 44  1  0  0  0  0
 44 83  1  0  0  0  0
 44 84  1  0  0  0  0
 44 85  1  0  0  0  0
 45 86  1  0  0  0  0
 45 87  1  0  0  0  0
 45 88  1  0  0  0  0
 46 47  2  0  0  0  0
 46 51  1  0  0  0  0
 47 48  1  0  0  0  0
 47 89  1  0  0  0  0
 48 49  2  0  0  0  0
 48 90  1  0  0  0  0
 49 50  1  0  0  0  0
 49 91  1  0  0  0  0
 50 51  2  0  0  0  0
 50 92  1  0  0  0  0
 51 93  1  0  0  0  0
 52 94  1  0  0  0  0
 53 95  1  0  0  0  0
 53 96  1  0  0  0  0
 53 97  1  0  0  0  0
M  END
$$$$
