3P1
 OpenBabel04121316053D

 52 56  0  0  1  0  0  0  0  0999 V2000
    1.0881    0.0002    0.0247 O   0  0  0  0  0  0  0  0  0  0  0  0
    2.5193    0.0240    0.0531 C   0  0  0  0  0  0  0  0  0  0  0  0
    3.0973    1.3173    0.6925 C   0  0  1  0  0  0  0  0  0  0  0  0
    4.1312    1.0674    0.9492 H   0  0  0  0  0  0  0  0  0  0  0  0
    3.2192    2.4691   -0.1695 O   0  0  0  0  0  0  0  0  0  0  0  0
    3.0239    3.6803    0.5854 C   0  0  2  0  0  0  0  0  0  0  0  0
    4.0348    4.0325    0.8208 H   0  0  0  0  0  0  0  0  0  0  0  0
    2.2494    3.2895    1.8424 C   0  0  1  0  0  0  0  0  0  0  0  0
    1.2033    3.6098    1.7686 H   0  0  0  0  0  0  0  0  0  0  0  0
    2.3001    1.7588    1.9037 C   0  0  2  0  0  0  0  0  0  0  0  0
    1.2736    1.3785    1.8919 H   0  0  0  0  0  0  0  0  0  0  0  0
    2.9282    1.2311    3.0682 O   0  0  0  0  0  0  0  0  0  0  0  0
    2.7950    3.8851    3.0215 O   0  0  0  0  0  0  0  0  0  0  0  0
    2.4037    4.8142   -0.1453 N   0  0  0  0  0  0  0  0  0  0  0  0
    1.6692    4.9252   -1.3143 C   0  0  0  0  0  0  0  0  0  0  0  0
    1.2223    3.9526   -2.1169 N   0  0  0  0  0  0  0  0  0  0  0  0
    1.5965    2.5761   -1.9821 C   0  0  0  0  0  0  0  0  0  0  0  0
    1.0468    1.5996   -2.9631 C   0  0  0  0  0  0  0  0  0  0  0  0
    0.2172    2.0227   -3.9685 C   0  0  0  0  0  0  0  0  0  0  0  0
   -0.1716    1.1007   -4.9040 C   0  0  0  0  0  0  0  0  0  0  0  0
    0.2901   -0.2067   -4.7971 C   0  0  0  0  0  0  0  0  0  0  0  0
    1.0988   -0.5908   -3.7249 C   0  0  0  0  0  0  0  0  0  0  0  0
    1.4718    0.3099   -2.8121 N   0  0  0  0  0  0  0  0  0  0  0  0
    1.5360   -1.9098   -3.6446 C   0  0  0  0  0  0  0  0  0  0  0  0
    1.3176   -2.7761   -4.7183 C   0  0  0  0  0  0  0  0  0  0  0  0
    0.5961   -2.3411   -5.8245 C   0  0  0  0  0  0  0  0  0  0  0  0
   -0.0183   -1.0987   -5.8134 C   0  0  0  0  0  0  0  0  0  0  0  0
    1.3808    6.1716   -1.6159 N   0  0  0  0  0  0  0  0  0  0  0  0
    1.8637    6.9242   -0.5908 C   0  0  0  0  0  0  0  0  0  0  0  0
    2.4865    6.1169    0.3474 C   0  0  0  0  0  0  0  0  0  0  0  0
    3.0519    6.5291    1.4991 N   0  0  0  0  0  0  0  0  0  0  0  0
    2.9656    7.8796    1.6152 C   0  0  0  0  0  0  0  0  0  0  0  0
    2.3963    8.7747    0.7763 N   0  0  0  0  0  0  0  0  0  0  0  0
    1.8215    8.3100   -0.3526 C   0  0  0  0  0  0  0  0  0  0  0  0
    1.2247    9.2088   -1.2114 N   0  0  0  0  0  0  0  0  0  0  0  0
    0.8279   -0.7791   -0.5038 H   0  0  0  0  0  0  0  0  0  0  0  0
    2.9039   -0.1224   -0.9586 H   0  0  0  0  0  0  0  0  0  0  0  0
    2.8169   -0.8468    0.6461 H   0  0  0  0  0  0  0  0  0  0  0  0
    2.5963    1.7649    3.8113 H   0  0  0  0  0  0  0  0  0  0  0  0
    2.9084    4.8393    2.8240 H   0  0  0  0  0  0  0  0  0  0  0  0
    0.9553    4.2811   -3.0349 H   0  0  0  0  0  0  0  0  0  0  0  0
    1.2097    2.2469   -1.0166 H   0  0  0  0  0  0  0  0  0  0  0  0
    2.6755    2.5003   -2.1392 H   0  0  0  0  0  0  0  0  0  0  0  0
   -0.1075    3.0474   -4.0597 H   0  0  0  0  0  0  0  0  0  0  0  0
   -0.7814    1.4372   -5.7282 H   0  0  0  0  0  0  0  0  0  0  0  0
    2.0910   -2.2553   -2.7774 H   0  0  0  0  0  0  0  0  0  0  0  0
    1.7222   -3.7838   -4.6978 H   0  0  0  0  0  0  0  0  0  0  0  0
    0.5096   -2.9582   -6.7125 H   0  0  0  0  0  0  0  0  0  0  0  0
   -0.6864   -0.7984   -6.6093 H   0  0  0  0  0  0  0  0  0  0  0  0
    3.4179    8.3097    2.5047 H   0  0  0  0  0  0  0  0  0  0  0  0
    1.2527   10.1904   -0.9856 H   0  0  0  0  0  0  0  0  0  0  0  0
    0.8049    8.8709   -2.0662 H   0  0  0  0  0  0  0  0  0  0  0  0
  1  2  1  0  0  0  0
  1 36  1  0  0  0  0
  2  3  1  0  0  0  0
  2 37  1  0  0  0  0
  2 38  1  0  0  0  0
  3  4  1  1  0  0  0
  3  5  1  0  0  0  0
  3 10  1  0  0  0  0
  5  6  1  0  0  0  0
  6  8  1  0  0  0  0
  6 14  1  0  0  0  0
  6  7  1  1  0  0  0
  8  9  1  6  0  0  0
  8 10  1  0  0  0  0
  8 13  1  0  0  0  0
 10 11  1  6  0  0  0
 10 12  1  0  0  0  0
 12 39  1  0  0  0  0
 13 40  1  0  0  0  0
 14 15  1  0  0  0  0
 14 30  1  0  0  0  0
 15 16  1  0  0  0  0
 15 28  2  0  0  0  0
 16 17  1  0  0  0  0
 16 41  1  0  0  0  0
 17 18  1  0  0  0  0
 17 42  1  0  0  0  0
 17 43  1  0  0  0  0
 18 19  2  0  0  0  0
 18 23  1  0  0  0  0
 19 20  1  0  0  0  0
 19 44  1  0  0  0  0
 20 21  2  0  0  0  0
 20 45  1  0  0  0  0
 21 22  1  0  0  0  0
 21 27  1  0  0  0  0
 22 23  2  0  0  0  0
 22 24  1  0  0  0  0
 24 25  2  0  0  0  0
 24 46  1  0  0  0  0
 25 26  1  0  0  0  0
 25 47  1  0  0  0  0
 26 27  2  0  0  0  0
 26 48  1  0  0  0  0
 27 49  1  0  0  0  0
 28 29  1  0  0  0  0
 29 30  2  0  0  0  0
 29 34  1  0  0  0  0
 30 31  1  0  0  0  0
 31 32  2  0  0  0  0
 32 33  1  0  0  0  0
 32 50  1  0  0  0  0
 33 34  2  0  0  0  0
 34 35  1  0  0  0  0
 35 51  1  0  0  0  0
 35 52  1  0  0  0  0
M  END
$$$$
