3P5
 OpenBabel04121316053D

 55 58  0  0  1  0  0  0  0  0999 V2000
    0.8777    0.0331   -0.0922 O   0  0  0  0  0  0  0  0  0  0  0  0
    2.3105    0.0880   -0.0464 C   0  0  1  0  0  0  0  0  0  0  0  0
    2.5175    0.4612    0.9544 H   0  0  0  0  0  0  0  0  0  0  0  0
    2.8380   -1.3603   -0.2972 C   0  0  2  0  0  0  0  0  0  0  0  0
    2.3055   -2.0440    0.3749 H   0  0  0  0  0  0  0  0  0  0  0  0
    4.3401   -1.5958   -0.0084 C   0  0  0  0  0  0  0  0  0  0  0  0
    4.7716   -1.3495    1.4463 C   0  0  0  0  0  0  0  0  0  0  0  0
    3.8804   -0.9406    2.4283 C   0  0  0  0  0  0  0  0  0  0  0  0
    4.3122   -0.2457    3.5603 C   0  0  0  0  0  0  0  0  0  0  0  0
    5.6553    0.0370    3.7425 C   0  0  0  0  0  0  0  0  0  0  0  0
    6.5855   -0.5342    2.9006 C   0  0  0  0  0  0  0  0  0  0  0  0
    6.1246   -1.2931    1.8073 C   0  0  0  0  0  0  0  0  0  0  0  0
    8.4243   -0.1661    3.2379 Br  0  0  0  0  0  0  0  0  0  0  0  0
    6.0625    0.8705    4.7403 O   0  0  0  0  0  0  0  0  0  0  0  0
    2.4303   -1.8061   -1.7051 C   0  0  0  0  0  0  0  0  0  0  0  0
    2.9885   -0.7372   -3.0080 S   0  0  0  0  0  0  0  0  0  0  0  0
    2.2545   -1.0846   -4.1982 O   0  0  0  0  0  0  0  0  0  0  0  0
    4.4486   -0.7592   -3.0382 O   0  0  0  0  0  0  0  0  0  0  0  0
    2.4139    0.8535   -2.4535 C   0  0  0  0  0  0  0  0  0  0  0  0
    2.8283    1.1783   -1.0213 C   0  0  2  0  0  0  0  0  0  0  0  0
    2.3373    2.1258   -0.7595 H   0  0  0  0  0  0  0  0  0  0  0  0
    4.2658    1.3878   -0.9536 N   0  0  0  0  0  0  0  0  0  0  0  0
    4.8149    1.8148    0.3143 C   0  0  0  0  0  0  0  0  0  0  0  0
    6.3243    1.8161    0.2152 C   0  0  0  0  0  0  0  0  0  0  0  0
    7.0155    2.9922    0.4283 C   0  0  0  0  0  0  0  0  0  0  0  0
    8.4019    2.9565    0.4130 C   0  0  0  0  0  0  0  0  0  0  0  0
    9.0974    1.7501    0.2064 C   0  0  0  0  0  0  0  0  0  0  0  0
    8.4619    0.5156    0.0157 C   0  0  0  0  0  0  0  0  0  0  0  0
    7.0738    0.6372   -0.0781 C   0  0  0  0  0  0  0  0  0  0  0  0
    9.3254   -0.7680    0.0252 C   0  0  0  0  0  0  0  0  0  0  0  0
    9.0997   -2.2023    0.4886 C   0  0  0  0  0  0  0  0  0  0  0  0
    9.1505   -1.8816   -0.9723 C   0  0  0  0  0  0  0  0  0  0  0  0
    0.5888   -0.5368    0.6468 H   0  0  0  0  0  0  0  0  0  0  0  0
    4.6651   -2.5888   -0.3403 H   0  0  0  0  0  0  0  0  0  0  0  0
    4.8736   -0.9269   -0.6790 H   0  0  0  0  0  0  0  0  0  0  0  0
    2.8135   -1.0281    2.2820 H   0  0  0  0  0  0  0  0  0  0  0  0
    3.5671    0.1195    4.2518 H   0  0  0  0  0  0  0  0  0  0  0  0
    6.8171   -1.6933    1.0977 H   0  0  0  0  0  0  0  0  0  0  0  0
    5.3153    1.0544    5.3247 H   0  0  0  0  0  0  0  0  0  0  0  0
    1.3359   -1.8031   -1.7827 H   0  0  0  0  0  0  0  0  0  0  0  0
    2.7769   -2.8169   -1.9304 H   0  0  0  0  0  0  0  0  0  0  0  0
    1.3208    0.8170   -2.5247 H   0  0  0  0  0  0  0  0  0  0  0  0
    2.7745    1.6031   -3.1631 H   0  0  0  0  0  0  0  0  0  0  0  0
    4.6431    1.9654   -1.7021 H   0  0  0  0  0  0  0  0  0  0  0  0
    4.5312    1.1573    1.1292 H   0  0  0  0  0  0  0  0  0  0  0  0
    4.4091    2.7886    0.6163 H   0  0  0  0  0  0  0  0  0  0  0  0
    6.4798    3.9251    0.5786 H   0  0  0  0  0  0  0  0  0  0  0  0
    8.9590    3.8683    0.5930 H   0  0  0  0  0  0  0  0  0  0  0  0
   10.1828    1.7729    0.2193 H   0  0  0  0  0  0  0  0  0  0  0  0
    6.5415   -0.2548   -0.3352 H   0  0  0  0  0  0  0  0  0  0  0  0
   10.3434   -0.5101    0.3216 H   0  0  0  0  0  0  0  0  0  0  0  0
    8.2163   -2.7346    0.8038 H   0  0  0  0  0  0  0  0  0  0  0  0
    9.9457   -2.7004    0.9653 H   0  0  0  0  0  0  0  0  0  0  0  0
    8.2179   -2.0134   -1.5103 H   0  0  0  0  0  0  0  0  0  0  0  0
   10.0284   -2.1697   -1.5350 H   0  0  0  0  0  0  0  0  0  0  0  0
  1  2  1  0  0  0  0
  1 33  1  0  0  0  0
  2  3  1  1  0  0  0
  2  4  1  0  0  0  0
  2 20  1  0  0  0  0
  4 15  1  0  0  0  0
  4  6  1  0  0  0  0
  4  5  1  1  0  0  0
  6  7  1  0  0  0  0
  6 34  1  0  0  0  0
  6 35  1  0  0  0  0
  7  8  2  0  0  0  0
  7 12  1  0  0  0  0
  8  9  1  0  0  0  0
  8 36  1  0  0  0  0
  9 10  2  0  0  0  0
  9 37  1  0  0  0  0
 10 11  1  0  0  0  0
 10 14  1  0  0  0  0
 11 12  2  0  0  0  0
 11 13  1  0  0  0  0
 12 38  1  0  0  0  0
 14 39  1  0  0  0  0
 15 16  1  0  0  0  0
 15 40  1  0  0  0  0
 15 41  1  0  0  0  0
 16 17  2  0  0  0  0
 16 18  2  0  0  0  0
 16 19  1  0  0  0  0
 19 20  1  0  0  0  0
 19 42  1  0  0  0  0
 19 43  1  0  0  0  0
 20 21  1  1  0  0  0
 20 22  1  0  0  0  0
 22 23  1  0  0  0  0
 22 44  1  0  0  0  0
 23 24  1  0  0  0  0
 23 45  1  0  0  0  0
 23 46  1  0  0  0  0
 24 25  2  0  0  0  0
 24 29  1  0  0  0  0
 25 26  1  0  0  0  0
 25 47  1  0  0  0  0
 26 27  2  0  0  0  0
 26 48  1  0  0  0  0
 27 28  1  0  0  0  0
 27 49  1  0  0  0  0
 28 29  2  0  0  0  0
 28 30  1  0  0  0  0
 29 50  1  0  0  0  0
 30 31  1  0  0  0  0
 30 32  1  0  0  0  0
 30 51  1  0  0  0  0
 31 32  1  0  0  0  0
 31 52  1  0  0  0  0
 31 53  1  0  0  0  0
 32 54  1  0  0  0  0
 32 55  1  0  0  0  0
M  END
$$$$
