3PB
 OpenBabel04121316053D

 20 19  0  0  1  0  0  0  0  0999 V2000
    6.3247    1.1997    1.5136 O   0  0  0  0  0  0  0  0  0  0  0  0
    5.9591    1.8726    0.4319 C   0  0  0  0  0  0  0  0  0  0  0  0
    6.1959    3.0896    0.3975 O   0  0  0  0  0  0  0  0  0  0  0  0
    5.3478    1.1514   -0.7811 C   0  0  0  0  0  0  0  0  0  0  0  0
    4.8057   -0.3298   -0.8338 C   0  0  2  0  0  0  0  0  0  0  0  0
    3.7267   -0.3481   -1.0683 H   0  0  0  0  0  0  0  0  0  0  0  0
    4.9400   -1.1174    0.3596 O   0  0  0  0  0  0  0  0  0  0  0  0
    4.0750   -0.4661    1.7088 P   0  0  0  0  0  0  0  0  0  0  0  0
    5.3023   -0.6202    2.5812 O   0  0  0  0  0  0  0  0  0  0  0  0
    3.7396    0.9399    1.0041 O   0  0  0  0  0  0  0  0  0  0  0  0
    3.2100    0.1851    3.0581 O   0  0  0  0  0  0  0  0  0  0  0  0
    5.4409   -1.0282   -2.0229 C   0  0  0  0  0  0  0  0  0  0  0  0
    6.2101    0.2221    1.5622 H   0  0  0  0  0  0  0  0  0  0  0  0
    6.1037    1.2823   -1.5555 H   0  0  0  0  0  0  0  0  0  0  0  0
    4.5023    1.7851   -1.1153 H   0  0  0  0  0  0  0  0  0  0  0  0
    3.0302    0.9541    0.3327 H   0  0  0  0  0  0  0  0  0  0  0  0
    3.2402   -0.4705    3.7785 H   0  0  0  0  0  0  0  0  0  0  0  0
    5.1182   -2.0687   -2.1093 H   0  0  0  0  0  0  0  0  0  0  0  0
    6.5272   -1.0131   -1.9176 H   0  0  0  0  0  0  0  0  0  0  0  0
    5.1654   -0.5019   -2.9462 H   0  0  0  0  0  0  0  0  0  0  0  0
  1  2  1  0  0  0  0
  1 13  1  0  0  0  0
  2  3  2  0  0  0  0
  2  4  1  0  0  0  0
  4 14  1  0  0  0  0
  4 15  1  0  0  0  0
  5  7  1  0  0  0  0
  5 12  1  0  0  0  0
  5  6  1  6  0  0  0
  5  4  1  0  0  0  0
  7  8  1  0  0  0  0
  8  9  2  0  0  0  0
  8 10  1  0  0  0  0
  8 11  1  0  0  0  0
 10 16  1  0  0  0  0
 11 17  1  0  0  0  0
 12 18  1  0  0  0  0
 12 19  1  0  0  0  0
 12 20  1  0  0  0  0
M  END
$$$$
