3PZ
 OpenBabel04121316053D

 67 71  0  0  1  0  0  0  0  0999 V2000
    0.9863   -0.0585   -0.0057 C   0  0  0  0  0  0  0  0  0  0  0  0
    2.4154    0.0287    0.1081 O   0  0  0  0  0  0  0  0  0  0  0  0
    2.9762   -0.2260   -1.1116 C   0  0  0  0  0  0  0  0  0  0  0  0
    3.5280    0.8237   -1.8466 C   0  0  0  0  0  0  0  0  0  0  0  0
    3.9391    0.6047   -3.1575 C   0  0  0  0  0  0  0  0  0  0  0  0
    3.7810   -0.6642   -3.7166 C   0  0  0  0  0  0  0  0  0  0  0  0
    3.2276   -1.6980   -2.9652 C   0  0  0  0  0  0  0  0  0  0  0  0
    2.9266   -1.5112   -1.6272 C   0  0  0  0  0  0  0  0  0  0  0  0
    4.3748   -0.8847   -5.3667 S   0  0  0  0  0  0  0  0  0  0  0  0
    3.2676   -0.4913   -6.2117 O   0  0  0  0  0  0  0  0  0  0  0  0
    5.6109   -0.1307   -5.4034 O   0  0  0  0  0  0  0  0  0  0  0  0
    4.6899   -2.6029   -5.6641 N   0  0  0  0  0  0  0  0  0  0  0  0
    4.9099   -2.9061   -7.1257 C   0  0  0  0  0  0  0  0  0  0  0  0
    5.7340   -1.8451   -7.7952 C   0  0  0  0  0  0  0  0  0  0  0  0
    5.0298   -0.9053   -8.5933 C   0  0  0  0  0  0  0  0  0  0  0  0
    5.6395    0.2652   -9.0125 C   0  0  0  0  0  0  0  0  0  0  0  0
    4.8816    1.2441   -9.7564 C   0  0  0  0  0  0  0  0  0  0  0  0
    4.2693    1.9981  -10.3775 N   0  0  0  0  0  0  0  0  0  0  0  0
    6.9753    0.4668   -8.6690 C   0  0  0  0  0  0  0  0  0  0  0  0
    7.6888   -0.4861   -7.8908 C   0  0  0  0  0  0  0  0  0  0  0  0
    7.0832   -1.6593   -7.4089 C   0  0  0  0  0  0  0  0  0  0  0  0
    7.6887   -2.4773   -6.4445 N   0  0  0  0  0  0  0  0  0  0  0  0
    7.1405   -2.4827   -5.0669 C   0  0  0  0  0  0  0  0  0  0  0  0
    5.8326   -3.2653   -4.9026 C   0  0  1  0  0  0  0  0  0  0  0  0
    5.9659   -4.2923   -5.2823 H   0  0  0  0  0  0  0  0  0  0  0  0
    5.4335   -3.4009   -3.4436 C   0  0  0  0  0  0  0  0  0  0  0  0
    6.3738   -3.9378   -2.4410 C   0  0  0  0  0  0  0  0  0  0  0  0
    7.2264   -3.0450   -1.7769 C   0  0  0  0  0  0  0  0  0  0  0  0
    8.2931   -3.5538   -1.0745 C   0  0  0  0  0  0  0  0  0  0  0  0
    8.3646   -4.9286   -0.8661 C   0  0  0  0  0  0  0  0  0  0  0  0
    7.3651   -5.7868   -1.3349 C   0  0  0  0  0  0  0  0  0  0  0  0
    6.3964   -5.3002   -2.1869 C   0  0  0  0  0  0  0  0  0  0  0  0
    8.8053   -3.3811   -6.7794 C   0  0  0  0  0  0  0  0  0  0  0  0
    9.2835   -4.2733   -5.6611 C   0  0  0  0  0  0  0  0  0  0  0  0
    9.8731   -3.9512   -4.4491 C   0  0  0  0  0  0  0  0  0  0  0  0
    9.9722   -5.0442   -3.6351 N   0  0  0  0  0  0  0  0  0  0  0  0
    9.4840   -6.0396   -4.3351 C   0  0  0  0  0  0  0  0  0  0  0  0
    9.1272   -5.6376   -5.5906 N   0  0  0  0  0  0  0  0  0  0  0  0
    8.6735   -6.5124   -6.6400 C   0  0  0  0  0  0  0  0  0  0  0  0
    0.5632    0.1423    0.9807 H   0  0  0  0  0  0  0  0  0  0  0  0
    0.6456   -1.0558   -0.3152 H   0  0  0  0  0  0  0  0  0  0  0  0
    0.6031    0.6945   -0.7053 H   0  0  0  0  0  0  0  0  0  0  0  0
    3.6080    1.8160   -1.4179 H   0  0  0  0  0  0  0  0  0  0  0  0
    4.3284    1.4234   -3.7626 H   0  0  0  0  0  0  0  0  0  0  0  0
    3.1021   -2.6885   -3.3755 H   0  0  0  0  0  0  0  0  0  0  0  0
    2.6144   -2.3536   -1.0167 H   0  0  0  0  0  0  0  0  0  0  0  0
    3.9428   -3.0483   -7.6212 H   0  0  0  0  0  0  0  0  0  0  0  0
    5.4329   -3.8628   -7.2690 H   0  0  0  0  0  0  0  0  0  0  0  0
    3.9578   -1.0361   -8.7623 H   0  0  0  0  0  0  0  0  0  0  0  0
    7.4617    1.3941   -8.9676 H   0  0  0  0  0  0  0  0  0  0  0  0
    8.6991   -0.2293   -7.5834 H   0  0  0  0  0  0  0  0  0  0  0  0
    7.0776   -1.4790   -4.6544 H   0  0  0  0  0  0  0  0  0  0  0  0
    7.8344   -2.9154   -4.3610 H   0  0  0  0  0  0  0  0  0  0  0  0
    4.5122   -3.9882   -3.3700 H   0  0  0  0  0  0  0  0  0  0  0  0
    5.3170   -2.3912   -3.0879 H   0  0  0  0  0  0  0  0  0  0  0  0
    7.1077   -1.9663   -1.8814 H   0  0  0  0  0  0  0  0  0  0  0  0
    9.0807   -2.8890   -0.7367 H   0  0  0  0  0  0  0  0  0  0  0  0
    9.2310   -5.3386   -0.3629 H   0  0  0  0  0  0  0  0  0  0  0  0
    7.3778   -6.8404   -1.0874 H   0  0  0  0  0  0  0  0  0  0  0  0
    5.6755   -5.9603   -2.6620 H   0  0  0  0  0  0  0  0  0  0  0  0
    9.6681   -2.8014   -7.1271 H   0  0  0  0  0  0  0  0  0  0  0  0
    8.4966   -4.0122   -7.6214 H   0  0  0  0  0  0  0  0  0  0  0  0
   10.1123   -2.9583   -4.0853 H   0  0  0  0  0  0  0  0  0  0  0  0
    9.3773   -7.0571   -3.9805 H   0  0  0  0  0  0  0  0  0  0  0  0
    8.6222   -7.5390   -6.2685 H   0  0  0  0  0  0  0  0  0  0  0  0
    9.3940   -6.4522   -7.4601 H   0  0  0  0  0  0  0  0  0  0  0  0
    7.6847   -6.1827   -6.9639 H   0  0  0  0  0  0  0  0  0  0  0  0
  1  2  1  0  0  0  0
  1 40  1  0  0  0  0
  1 41  1  0  0  0  0
  1 42  1  0  0  0  0
  2  3  1  0  0  0  0
  3  4  2  0  0  0  0
  3  8  1  0  0  0  0
  4  5  1  0  0  0  0
  4 43  1  0  0  0  0
  5  6  2  0  0  0  0
  5 44  1  0  0  0  0
  6  7  1  0  0  0  0
  6  9  1  0  0  0  0
  7  8  2  0  0  0  0
  7 45  1  0  0  0  0
  8 46  1  0  0  0  0
  9 10  2  0  0  0  0
  9 11  2  0  0  0  0
  9 12  1  0  0  0  0
 12 13  1  0  0  0  0
 12 24  1  0  0  0  0
 13 14  1  0  0  0  0
 13 47  1  0  0  0  0
 13 48  1  0  0  0  0
 14 15  2  0  0  0  0
 14 21  1  0  0  0  0
 15 16  1  0  0  0  0
 15 49  1  0  0  0  0
 16 17  1  0  0  0  0
 16 19  2  0  0  0  0
 17 18  3  0  0  0  0
 19 20  1  0  0  0  0
 19 50  1  0  0  0  0
 20 21  2  0  0  0  0
 20 51  1  0  0  0  0
 21 22  1  0  0  0  0
 22 23  1  0  0  0  0
 22 33  1  0  0  0  0
 23 24  1  0  0  0  0
 23 52  1  0  0  0  0
 23 53  1  0  0  0  0
 24 25  1  6  0  0  0
 24 26  1  0  0  0  0
 26 27  1  0  0  0  0
 26 54  1  0  0  0  0
 26 55  1  0  0  0  0
 27 28  2  0  0  0  0
 27 32  1  0  0  0  0
 28 29  1  0  0  0  0
 28 56  1  0  0  0  0
 29 30  2  0  0  0  0
 29 57  1  0  0  0  0
 30 31  1  0  0  0  0
 30 58  1  0  0  0  0
 31 32  2  0  0  0  0
 31 59  1  0  0  0  0
 32 60  1  0  0  0  0
 33 34  1  0  0  0  0
 33 61  1  0  0  0  0
 33 62  1  0  0  0  0
 34 35  2  0  0  0  0
 34 38  1  0  0  0  0
 35 36  1  0  0  0  0
 35 63  1  0  0  0  0
 36 37  2  0  0  0  0
 37 38  1  0  0  0  0
 37 64  1  0  0  0  0
 38 39  1  0  0  0  0
 39 65  1  0  0  0  0
 39 66  1  0  0  0  0
 39 67  1  0  0  0  0
M  END
$$$$
