3Q6
 OpenBabel04121316053D

 62 65  0  0  1  0  0  0  0  0999 V2000
    3.0886    0.3540    1.4870 C   0  0  0  0  0  0  0  0  0  0  0  0
    2.6063    0.0253    0.0768 C   0  0  2  0  0  0  0  0  0  0  0  0
    1.5081    0.0421    0.1054 H   0  0  0  0  0  0  0  0  0  0  0  0
    3.0714   -1.3917   -0.3001 C   0  0  0  0  0  0  0  0  0  0  0  0
    2.5707   -1.7222   -1.7082 C   0  0  1  0  0  0  0  0  0  0  0  0
    2.8958   -2.7332   -1.9800 H   0  0  0  0  0  0  0  0  0  0  0  0
    1.0971   -1.7144   -1.6828 N   0  0  0  0  0  0  0  0  0  0  0  0
    0.4165   -1.4591   -2.8366 C   0  0  0  0  0  0  0  0  0  0  0  0
    0.9794   -1.4917   -3.9028 O   0  0  0  0  0  0  0  0  0  0  0  0
   -0.9156   -1.1978   -2.6382 O   0  0  0  0  0  0  0  0  0  0  0  0
   -1.6386   -0.6970   -3.8042 C   0  0  0  0  0  0  0  0  0  0  0  0
   -1.3486    0.7763   -3.9440 C   0  0  0  0  0  0  0  0  0  0  0  0
   -1.3413   -1.5139   -5.0926 C   0  0  0  0  0  0  0  0  0  0  0  0
   -3.1330   -0.6826   -3.5664 C   0  0  0  0  0  0  0  0  0  0  0  0
    3.2127   -0.6817   -2.6958 C   0  0  0  0  0  0  0  0  0  0  0  0
    2.7437    0.6679   -2.3509 N   0  0  0  0  0  0  0  0  0  0  0  0
    3.0831    1.0733   -0.9676 C   0  0  0  0  0  0  0  0  0  0  0  0
    2.2072    1.5040   -3.3408 C   0  0  0  0  0  0  0  0  0  0  0  0
    1.6977    1.0559   -4.5251 N   0  0  0  0  0  0  0  0  0  0  0  0
    0.9906    1.8845   -5.3563 C   0  0  0  0  0  0  0  0  0  0  0  0
    0.1781    1.3671   -6.3777 N   0  0  0  0  0  0  0  0  0  0  0  0
    0.8156    3.1669   -5.1177 N   0  0  0  0  0  0  0  0  0  0  0  0
    1.5235    3.6309   -4.0810 C   0  0  0  0  0  0  0  0  0  0  0  0
    2.1839    2.8521   -3.1468 C   0  0  0  0  0  0  0  0  0  0  0  0
    1.7382    5.0617   -4.0986 C   0  0  0  0  0  0  0  0  0  0  0  0
    0.6108    5.9429   -4.0486 C   0  0  0  0  0  0  0  0  0  0  0  0
    0.7234    7.3387   -4.0584 C   0  0  0  0  0  0  0  0  0  0  0  0
    2.0548    7.7331   -4.1381 C   0  0  0  0  0  0  0  0  0  0  0  0
    3.2189    6.8903   -4.2090 C   0  0  0  0  0  0  0  0  0  0  0  0
    3.0865    5.5053   -4.1980 C   0  0  0  0  0  0  0  0  0  0  0  0
    4.3282    7.6440   -4.2725 N   0  0  0  0  0  0  0  0  0  0  0  0
    3.8669    8.9106   -4.2505 N   0  0  0  0  0  0  0  0  0  0  0  0
    4.5434    9.6607   -4.2938 H   0  0  0  0  0  0  0  0  0  0  0  0
    2.5036    9.0218   -4.1638 C   0  0  0  0  0  0  0  0  0  0  0  0
    1.8622   10.2018   -4.1186 N   0  0  0  0  0  0  0  0  0  0  0  0
    4.1815    0.3540    1.5392 H   0  0  0  0  0  0  0  0  0  0  0  0
    2.7181   -0.3890    2.2042 H   0  0  0  0  0  0  0  0  0  0  0  0
    2.7223    1.3345    1.8038 H   0  0  0  0  0  0  0  0  0  0  0  0
    2.6924   -2.1279    0.4208 H   0  0  0  0  0  0  0  0  0  0  0  0
    4.1680   -1.4494   -0.2617 H   0  0  0  0  0  0  0  0  0  0  0  0
    0.5713   -1.8302   -0.8324 H   0  0  0  0  0  0  0  0  0  0  0  0
   -0.3128    0.7315   -4.1125 H   0  0  0  0  0  0  0  0  0  0  0  0
   -1.4148    1.4106   -3.0549 H   0  0  0  0  0  0  0  0  0  0  0  0
   -1.8758    1.2543   -4.7780 H   0  0  0  0  0  0  0  0  0  0  0  0
   -0.3039   -1.4986   -5.4390 H   0  0  0  0  0  0  0  0  0  0  0  0
   -1.8894   -1.1433   -5.9601 H   0  0  0  0  0  0  0  0  0  0  0  0
   -1.5612   -2.5713   -4.9207 H   0  0  0  0  0  0  0  0  0  0  0  0
   -3.3724   -0.0206   -2.7264 H   0  0  0  0  0  0  0  0  0  0  0  0
   -3.5028   -1.6805   -3.3528 H   0  0  0  0  0  0  0  0  0  0  0  0
   -3.6362   -0.2808   -4.4583 H   0  0  0  0  0  0  0  0  0  0  0  0
    3.0638   -0.9472   -3.7441 H   0  0  0  0  0  0  0  0  0  0  0  0
    4.3056   -0.7081   -2.5773 H   0  0  0  0  0  0  0  0  0  0  0  0
    2.6507    2.0374   -0.6839 H   0  0  0  0  0  0  0  0  0  0  0  0
    4.1738    1.1667   -0.8970 H   0  0  0  0  0  0  0  0  0  0  0  0
   -0.0837    0.4169   -6.1515 H   0  0  0  0  0  0  0  0  0  0  0  0
   -0.6283    1.9737   -6.5118 H   0  0  0  0  0  0  0  0  0  0  0  0
    2.7536    3.3204   -2.3584 H   0  0  0  0  0  0  0  0  0  0  0  0
   -0.3868    5.5006   -4.0030 H   0  0  0  0  0  0  0  0  0  0  0  0
   -0.1316    7.9940   -4.0118 H   0  0  0  0  0  0  0  0  0  0  0  0
    3.9302    4.8305   -4.2694 H   0  0  0  0  0  0  0  0  0  0  0  0
    2.3152   11.1074   -4.1646 H   0  0  0  0  0  0  0  0  0  0  0  0
    0.8468   10.2348   -4.0742 H   0  0  0  0  0  0  0  0  0  0  0  0
  1 36  1  0  0  0  0
  1 37  1  0  0  0  0
  1 38  1  0  0  0  0
  2  4  1  0  0  0  0
  2 17  1  0  0  0  0
  2  3  1  1  0  0  0
  2  1  1  0  0  0  0
  4  5  1  0  0  0  0
  4 39  1  0  0  0  0
  4 40  1  0  0  0  0
  5 15  1  0  0  0  0
  5  7  1  0  0  0  0
  5  6  1  6  0  0  0
  7  8  1  0  0  0  0
  7 41  1  0  0  0  0
  8  9  2  0  0  0  0
  8 10  1  0  0  0  0
 10 11  1  0  0  0  0
 11 12  1  0  0  0  0
 11 13  1  0  0  0  0
 11 14  1  0  0  0  0
 12 42  1  0  0  0  0
 12 43  1  0  0  0  0
 12 44  1  0  0  0  0
 13 45  1  0  0  0  0
 13 46  1  0  0  0  0
 13 47  1  0  0  0  0
 14 48  1  0  0  0  0
 14 49  1  0  0  0  0
 14 50  1  0  0  0  0
 15 16  1  0  0  0  0
 15 51  1  0  0  0  0
 15 52  1  0  0  0  0
 16 17  1  0  0  0  0
 16 18  1  0  0  0  0
 17 53  1  0  0  0  0
 17 54  1  0  0  0  0
 18 19  2  0  0  0  0
 18 24  1  0  0  0  0
 19 20  1  0  0  0  0
 20 21  1  0  0  0  0
 20 22  2  0  0  0  0
 21 55  1  0  0  0  0
 21 56  1  0  0  0  0
 22 23  1  0  0  0  0
 23 24  2  0  0  0  0
 23 25  1  0  0  0  0
 24 57  1  0  0  0  0
 25 26  1  0  0  0  0
 25 30  2  0  0  0  0
 26 27  2  0  0  0  0
 26 58  1  0  0  0  0
 27 28  1  0  0  0  0
 27 59  1  0  0  0  0
 28 29  1  0  0  0  0
 28 34  2  0  0  0  0
 29 30  1  0  0  0  0
 29 31  2  0  0  0  0
 30 60  1  0  0  0  0
 31 32  1  0  0  0  0
 32 33  1  0  0  0  0
 32 34  1  0  0  0  0
 34 35  1  0  0  0  0
 35 61  1  0  0  0  0
 35 62  1  0  0  0  0
M  END
$$$$
