3QC
 OpenBabel04121316053D

 48 50  0  0  1  0  0  0  0  0999 V2000
    5.6077    0.5022   -4.2208 O   0  0  0  0  0  0  0  0  0  0  0  0
    5.6727   -0.7875   -3.7766 C   0  0  0  0  0  0  0  0  0  0  0  0
    5.6060   -1.8278   -4.7132 C   0  0  0  0  0  0  0  0  0  0  0  0
    5.6923   -3.1217   -4.2758 C   0  0  0  0  0  0  0  0  0  0  0  0
    5.7922   -3.3334   -2.9138 C   0  0  0  0  0  0  0  0  0  0  0  0
    5.7110   -2.2995   -1.9025 C   0  0  0  0  0  0  0  0  0  0  0  0
    5.7419   -0.9973   -2.3859 C   0  0  0  0  0  0  0  0  0  0  0  0
    5.1491   -2.6355   -0.4743 C   0  0  1  0  0  0  0  0  0  0  0  0
    4.2248   -2.0471   -0.3379 H   0  0  0  0  0  0  0  0  0  0  0  0
    4.8617   -4.1097   -0.6515 C   0  0  0  0  0  0  0  0  0  0  0  0
    4.1321   -4.7403    0.3402 N   0  0  0  0  0  0  0  0  0  0  0  0
    5.0427   -5.0086    1.4246 C   0  0  0  0  0  0  0  0  0  0  0  0
    5.7955   -3.7096    1.7962 C   0  0  0  0  0  0  0  0  0  0  0  0
    5.8652   -2.5703    0.8917 C   0  0  0  0  0  0  0  0  0  0  0  0
    6.3882   -1.3737    1.3894 C   0  0  0  0  0  0  0  0  0  0  0  0
    6.9416   -1.3310    2.6773 C   0  0  0  0  0  0  0  0  0  0  0  0
    6.9962   -2.4756    3.4949 C   0  0  0  0  0  0  0  0  0  0  0  0
    6.4270   -3.6797    3.0550 C   0  0  0  0  0  0  0  0  0  0  0  0
    6.4689   -4.9408    3.8844 C   0  0  0  0  0  0  0  0  0  0  0  0
    7.6469   -2.4022    4.8451 C   0  0  0  0  0  0  0  0  0  0  0  0
    2.8806   -5.2887    0.1764 C   0  0  0  0  0  0  0  0  0  0  0  0
    2.4567   -6.0314    1.0537 O   0  0  0  0  0  0  0  0  0  0  0  0
    2.1010   -5.0010   -0.9703 N   0  0  0  0  0  0  0  0  0  0  0  0
    2.2859   -4.2181   -2.2195 C   0  0  0  0  0  0  0  0  0  0  0  0
    0.7699   -5.5935   -0.9850 C   0  0  0  0  0  0  0  0  0  0  0  0
    5.5362    0.4721   -5.1897 H   0  0  0  0  0  0  0  0  0  0  0  0
    5.4863   -1.6587   -5.7764 H   0  0  0  0  0  0  0  0  0  0  0  0
    5.6230   -3.9804   -4.9405 H   0  0  0  0  0  0  0  0  0  0  0  0
    5.7564   -4.4033   -2.7026 H   0  0  0  0  0  0  0  0  0  0  0  0
    5.7316   -0.1431   -1.7167 H   0  0  0  0  0  0  0  0  0  0  0  0
    5.8251   -4.6365   -0.7504 H   0  0  0  0  0  0  0  0  0  0  0  0
    4.3402   -4.3518   -1.5302 H   0  0  0  0  0  0  0  0  0  0  0  0
    5.8070   -5.7204    1.0611 H   0  0  0  0  0  0  0  0  0  0  0  0
    4.5203   -5.4889    2.2493 H   0  0  0  0  0  0  0  0  0  0  0  0
    6.3277   -0.4523    0.8150 H   0  0  0  0  0  0  0  0  0  0  0  0
    7.3350   -0.3857    3.0503 H   0  0  0  0  0  0  0  0  0  0  0  0
    6.9891   -4.8243    4.8349 H   0  0  0  0  0  0  0  0  0  0  0  0
    6.9929   -5.7256    3.3264 H   0  0  0  0  0  0  0  0  0  0  0  0
    5.4552   -5.2754    4.1246 H   0  0  0  0  0  0  0  0  0  0  0  0
    8.0276   -1.4023    5.0626 H   0  0  0  0  0  0  0  0  0  0  0  0
    8.4899   -3.1007    4.8798 H   0  0  0  0  0  0  0  0  0  0  0  0
    6.9199   -2.6645    5.6218 H   0  0  0  0  0  0  0  0  0  0  0  0
    3.1346   -3.5630   -2.3637 H   0  0  0  0  0  0  0  0  0  0  0  0
    1.4522   -3.5195   -2.3105 H   0  0  0  0  0  0  0  0  0  0  0  0
    2.2781   -4.9238   -3.0617 H   0  0  0  0  0  0  0  0  0  0  0  0
    0.5245   -6.1768   -0.0998 H   0  0  0  0  0  0  0  0  0  0  0  0
    0.6787   -6.2314   -1.8718 H   0  0  0  0  0  0  0  0  0  0  0  0
    0.0460   -4.7754   -1.0742 H   0  0  0  0  0  0  0  0  0  0  0  0
  1  2  1  0  0  0  0
  1 26  1  0  0  0  0
  2  3  2  0  0  0  0
  2  7  1  0  0  0  0
  3  4  1  0  0  0  0
  3 27  1  0  0  0  0
  4  5  2  0  0  0  0
  4 28  1  0  0  0  0
  5  6  1  0  0  0  0
  5 29  1  0  0  0  0
  6  7  2  0  0  0  0
  7 30  1  0  0  0  0
  8 10  1  0  0  0  0
  8 14  1  0  0  0  0
  8  9  1  1  0  0  0
  8  6  1  0  0  0  0
 10 11  1  0  0  0  0
 10 31  1  0  0  0  0
 10 32  1  0  0  0  0
 11 12  1  0  0  0  0
 11 21  1  0  0  0  0
 12 13  1  0  0  0  0
 12 33  1  0  0  0  0
 12 34  1  0  0  0  0
 13 14  2  0  0  0  0
 13 18  1  0  0  0  0
 14 15  1  0  0  0  0
 15 16  2  0  0  0  0
 15 35  1  0  0  0  0
 16 17  1  0  0  0  0
 16 36  1  0  0  0  0
 17 18  2  0  0  0  0
 17 20  1  0  0  0  0
 18 19  1  0  0  0  0
 19 37  1  0  0  0  0
 19 38  1  0  0  0  0
 19 39  1  0  0  0  0
 20 40  1  0  0  0  0
 20 41  1  0  0  0  0
 20 42  1  0  0  0  0
 21 22  2  0  0  0  0
 21 23  1  0  0  0  0
 23 24  1  0  0  0  0
 23 25  1  0  0  0  0
 24 43  1  0  0  0  0
 24 44  1  0  0  0  0
 24 45  1  0  0  0  0
 25 46  1  0  0  0  0
 25 47  1  0  0  0  0
 25 48  1  0  0  0  0
M  END
$$$$
