3QP
 OpenBabel04121316053D

 40 40  0  0  1  0  0  0  0  0999 V2000
    1.0336   -0.0104   -0.4066 O   0  0  0  0  0  0  0  0  0  0  0  0
    2.3468   -0.2712   -0.2148 C   0  0  0  0  0  0  0  0  0  0  0  0
    2.7524   -1.1624    0.4930 O   0  0  0  0  0  0  0  0  0  0  0  0
    3.1976    0.6377   -1.0451 C   0  0  0  0  0  0  0  0  0  0  0  0
    4.7314    0.4280   -0.9270 C   0  0  1  0  0  0  0  0  0  0  0  0
    5.0726    0.3636    0.1189 H   0  0  0  0  0  0  0  0  0  0  0  0
    5.1247   -0.8572   -1.6080 C   0  0  0  0  0  0  0  0  0  0  0  0
    5.9173   -0.9307   -2.5254 O   0  0  0  0  0  0  0  0  0  0  0  0
    4.5828   -1.9562   -1.0408 O   0  0  0  0  0  0  0  0  0  0  0  0
    5.4781    1.4864   -1.6558 N   0  0  0  0  0  0  0  0  0  0  0  0
    6.6906    1.7429   -1.2766 C   0  0  0  0  0  0  0  0  0  0  0  0
    7.3744    3.0094   -1.6812 C   0  0  0  0  0  0  0  0  0  0  0  0
    6.7749    4.2770   -1.5172 C   0  0  0  0  0  0  0  0  0  0  0  0
    7.4747    5.4350   -1.8909 C   0  0  0  0  0  0  0  0  0  0  0  0
    8.8115    5.3429   -2.2536 C   0  0  0  0  0  0  0  0  0  0  0  0
    9.3934    4.0862   -2.4726 C   0  0  0  0  0  0  0  0  0  0  0  0
    8.6646    2.9237   -2.1817 C   0  0  0  0  0  0  0  0  0  0  0  0
    9.1795    1.6757   -2.3866 O   0  0  0  0  0  0  0  0  0  0  0  0
   10.7444    4.0069   -3.1091 C   0  0  0  0  0  0  0  0  0  0  0  0
    5.4390    4.4525   -0.8759 C   0  0  0  0  0  0  0  0  0  0  0  0
    5.0171    3.2053   -0.3634 O   0  0  0  0  0  0  0  0  0  0  0  0
    3.4713    3.3617    0.3973 P   0  0  0  0  0  0  0  0  0  0  0  0
    2.7560    3.4590   -0.9392 O   0  0  0  0  0  0  0  0  0  0  0  0
    3.7021    1.9720    1.1841 O   0  0  0  0  0  0  0  0  0  0  0  0
    1.9254    3.5181    1.1580 O   0  0  0  0  0  0  0  0  0  0  0  0
    0.5447   -0.8280   -0.2071 H   0  0  0  0  0  0  0  0  0  0  0  0
    2.8176    1.5226   -0.6019 H   0  0  0  0  0  0  0  0  0  0  0  0
    2.8647    0.7603   -2.0715 H   0  0  0  0  0  0  0  0  0  0  0  0
    4.0273   -1.7719   -0.2457 H   0  0  0  0  0  0  0  0  0  0  0  0
    7.2578    1.1112   -0.5650 H   0  0  0  0  0  0  0  0  0  0  0  0
    6.9873    6.4103   -1.8934 H   0  0  0  0  0  0  0  0  0  0  0  0
    9.3889    6.2572   -2.3819 H   0  0  0  0  0  0  0  0  0  0  0  0
    9.9496    1.7275   -2.9706 H   0  0  0  0  0  0  0  0  0  0  0  0
   11.1825    4.9968   -3.2622 H   0  0  0  0  0  0  0  0  0  0  0  0
   10.6338    3.5369   -4.0925 H   0  0  0  0  0  0  0  0  0  0  0  0
   11.4216    3.4142   -2.4895 H   0  0  0  0  0  0  0  0  0  0  0  0
    4.7167    4.8592   -1.5898 H   0  0  0  0  0  0  0  0  0  0  0  0
    5.5277    5.1437   -0.0259 H   0  0  0  0  0  0  0  0  0  0  0  0
    4.6573    1.8535    1.3295 H   0  0  0  0  0  0  0  0  0  0  0  0
    1.4573    4.2505    0.7173 H   0  0  0  0  0  0  0  0  0  0  0  0
  1  2  1  0  0  0  0
  1 26  1  0  0  0  0
  2  3  2  0  0  0  0
  2  4  1  0  0  0  0
  4  5  1  0  0  0  0
  4 27  1  0  0  0  0
  4 28  1  0  0  0  0
  5  6  1  1  0  0  0
  5  7  1  0  0  0  0
  5 10  1  0  0  0  0
  7  8  2  0  0  0  0
  7  9  1  0  0  0  0
  9 29  1  0  0  0  0
 10 11  2  0  0  0  0
 11 12  1  0  0  0  0
 11 30  1  0  0  0  0
 12 13  2  0  0  0  0
 12 17  1  0  0  0  0
 13 14  1  0  0  0  0
 13 20  1  0  0  0  0
 14 15  2  0  0  0  0
 14 31  1  0  0  0  0
 15 16  1  0  0  0  0
 15 32  1  0  0  0  0
 16 17  2  0  0  0  0
 16 19  1  0  0  0  0
 17 18  1  0  0  0  0
 18 33  1  0  0  0  0
 19 34  1  0  0  0  0
 19 35  1  0  0  0  0
 19 36  1  0  0  0  0
 20 21  1  0  0  0  0
 20 37  1  0  0  0  0
 20 38  1  0  0  0  0
 21 22  1  0  0  0  0
 22 23  2  0  0  0  0
 22 24  1  0  0  0  0
 22 25  1  0  0  0  0
 24 39  1  0  0  0  0
 25 40  1  0  0  0  0
M  END
$$$$
