3QT
 OpenBabel04121316053D

 42 46  0  0  0  0  0  0  0  0999 V2000
    1.0192    0.0938    0.0601 C   0  0  0  0  0  0  0  0  0  0  0  0
    2.4570    0.0362    0.0598 N   0  0  0  0  0  0  0  0  0  0  0  0
    3.1948    1.1578    0.0562 N   0  0  0  0  0  0  0  0  0  0  0  0
    4.4472    0.6985    0.0466 C   0  0  0  0  0  0  0  0  0  0  0  0
    4.5144   -0.7187    0.0422 C   0  0  0  0  0  0  0  0  0  0  0  0
    3.1928   -1.1051    0.0571 C   0  0  0  0  0  0  0  0  0  0  0  0
    5.6424   -1.6162    0.0275 C   0  0  0  0  0  0  0  0  0  0  0  0
    6.9548   -0.9181    0.0295 C   0  0  0  0  0  0  0  0  0  0  0  0
    8.0347   -1.6789    0.0188 C   0  0  0  0  0  0  0  0  0  0  0  0
    7.8860   -3.0711    0.0428 C   0  0  0  0  0  0  0  0  0  0  0  0
    6.6040   -3.6057    0.0369 N   0  0  0  0  0  0  0  0  0  0  0  0
    5.4366   -2.9019    0.0183 N   0  0  0  0  0  0  0  0  0  0  0  0
    6.7634   -4.9728    0.1321 C   0  0  0  0  0  0  0  0  0  0  0  0
    8.1295   -5.1073    0.3641 C   0  0  0  0  0  0  0  0  0  0  0  0
    8.8179   -3.9642    0.1632 N   0  0  0  0  0  0  0  0  0  0  0  0
    5.6468   -5.9889    0.0425 C   0  0  0  0  0  0  0  0  0  0  0  0
    6.1317   -7.4347    0.0070 C   0  0  0  0  0  0  0  0  0  0  0  0
    7.4303   -7.7563   -0.4086 C   0  0  0  0  0  0  0  0  0  0  0  0
    8.0180   -8.9848   -0.1753 C   0  0  0  0  0  0  0  0  0  0  0  0
    7.2157  -10.0437    0.1171 C   0  0  0  0  0  0  0  0  0  0  0  0
    5.8309   -9.8096    0.2999 C   0  0  0  0  0  0  0  0  0  0  0  0
    5.3021   -8.5045    0.3246 C   0  0  0  0  0  0  0  0  0  0  0  0
    5.0029  -10.9226    0.3407 C   0  0  0  0  0  0  0  0  0  0  0  0
    5.5450  -12.1656    0.0411 C   0  0  0  0  0  0  0  0  0  0  0  0
    6.9217  -12.2920   -0.0270 C   0  0  0  0  0  0  0  0  0  0  0  0
    7.7699  -11.2555    0.0543 N   0  0  0  0  0  0  0  0  0  0  0  0
    0.6898    1.1341    0.0608 H   0  0  0  0  0  0  0  0  0  0  0  0
    0.6678   -0.4213    0.9571 H   0  0  0  0  0  0  0  0  0  0  0  0
    0.6680   -0.4195   -0.8382 H   0  0  0  0  0  0  0  0  0  0  0  0
    5.2540    1.4212    0.0411 H   0  0  0  0  0  0  0  0  0  0  0  0
    2.7378   -2.0855    0.0617 H   0  0  0  0  0  0  0  0  0  0  0  0
    7.0442    0.1577    0.0473 H   0  0  0  0  0  0  0  0  0  0  0  0
    9.0435   -1.2831    0.0402 H   0  0  0  0  0  0  0  0  0  0  0  0
    8.7029   -5.9894    0.6053 H   0  0  0  0  0  0  0  0  0  0  0  0
    5.0318   -5.8234   -0.8520 H   0  0  0  0  0  0  0  0  0  0  0  0
    4.9896   -5.8618    0.9153 H   0  0  0  0  0  0  0  0  0  0  0  0
    8.0465   -7.0386   -0.9356 H   0  0  0  0  0  0  0  0  0  0  0  0
    9.0802   -9.1153   -0.3573 H   0  0  0  0  0  0  0  0  0  0  0  0
    4.2362   -8.3469    0.4790 H   0  0  0  0  0  0  0  0  0  0  0  0
    3.9379  -10.8156    0.5157 H   0  0  0  0  0  0  0  0  0  0  0  0
    4.9046  -13.0150   -0.1535 H   0  0  0  0  0  0  0  0  0  0  0  0
    7.3967  -13.2558   -0.1703 H   0  0  0  0  0  0  0  0  0  0  0  0
  1  2  1  0  0  0  0
  1 27  1  0  0  0  0
  1 28  1  0  0  0  0
  1 29  1  0  0  0  0
  2  3  1  0  0  0  0
  2  6  1  0  0  0  0
  3  4  2  0  0  0  0
  4  5  1  0  0  0  0
  4 30  1  0  0  0  0
  5  6  2  0  0  0  0
  5  7  1  0  0  0  0
  6 31  1  0  0  0  0
  7  8  1  0  0  0  0
  7 12  2  0  0  0  0
  8  9  2  0  0  0  0
  8 32  1  0  0  0  0
  9 10  1  0  0  0  0
  9 33  1  0  0  0  0
 10 11  1  0  0  0  0
 10 15  2  0  0  0  0
 11 12  1  0  0  0  0
 11 13  1  0  0  0  0
 13 14  2  0  0  0  0
 13 16  1  0  0  0  0
 14 15  1  0  0  0  0
 14 34  1  0  0  0  0
 16 17  1  0  0  0  0
 16 35  1  0  0  0  0
 16 36  1  0  0  0  0
 17 18  2  0  0  0  0
 17 22  1  0  0  0  0
 18 19  1  0  0  0  0
 18 37  1  0  0  0  0
 19 20  2  0  0  0  0
 19 38  1  0  0  0  0
 20 21  1  0  0  0  0
 20 26  1  0  0  0  0
 21 22  2  0  0  0  0
 21 23  1  0  0  0  0
 22 39  1  0  0  0  0
 23 24  2  0  0  0  0
 23 40  1  0  0  0  0
 24 25  1  0  0  0  0
 24 41  1  0  0  0  0
 25 26  2  0  0  0  0
 25 42  1  0  0  0  0
M  END
$$$$
