3RA
 OpenBabel04121316053D

 36 39  0  0  0  0  0  0  0  0999 V2000
    0.7813   -0.0370   -0.0672 O   0  0  0  0  0  0  0  0  0  0  0  0
    1.9948    0.0923   -0.0295 C   0  0  0  0  0  0  0  0  0  0  0  0
    2.7385    1.2309    0.0227 N   0  0  0  0  0  0  0  0  0  0  0  0
    3.9786    0.8295   -0.0257 C   0  0  0  0  0  0  0  0  0  0  0  0
    4.1228   -0.5208   -0.0891 N   0  0  0  0  0  0  0  0  0  0  0  0
    2.9392   -1.0477   -0.0689 C   0  0  0  0  0  0  0  0  0  0  0  0
    2.5172   -2.4881   -0.0639 C   0  0  0  0  0  0  0  0  0  0  0  0
    3.6689   -3.4881   -0.0638 C   0  0  0  0  0  0  0  0  0  0  0  0
    3.4811   -4.8826   -0.0581 C   0  0  0  0  0  0  0  0  0  0  0  0
    4.6012   -5.7649   -0.0687 C   0  0  0  0  0  0  0  0  0  0  0  0
    5.8886   -5.2373   -0.0811 C   0  0  0  0  0  0  0  0  0  0  0  0
    6.0525   -3.8956   -0.0825 C   0  0  0  0  0  0  0  0  0  0  0  0
    4.9946   -3.0475   -0.0719 C   0  0  0  0  0  0  0  0  0  0  0  0
    7.3284   -3.4474   -0.0959 O   0  0  0  0  0  0  0  0  0  0  0  0
    8.0147   -4.6971   -0.0841 C   0  0  0  0  0  0  0  0  0  0  0  0
    7.1094   -5.8446   -0.0926 O   0  0  0  0  0  0  0  0  0  0  0  0
    5.1053    1.6002    0.0060 N   0  0  0  0  0  0  0  0  0  0  0  0
    5.0748    2.9885   -0.1381 C   0  0  0  0  0  0  0  0  0  0  0  0
    4.0748    3.5853   -0.9171 C   0  0  0  0  0  0  0  0  0  0  0  0
    3.9850    4.9572   -1.0594 C   0  0  0  0  0  0  0  0  0  0  0  0
    4.8310    5.7677   -0.3213 C   0  0  0  0  0  0  0  0  0  0  0  0
    5.7606    5.1977    0.5509 C   0  0  0  0  0  0  0  0  0  0  0  0
    5.9326    3.8109    0.5938 C   0  0  0  0  0  0  0  0  0  0  0  0
    1.8815   -2.6539   -0.9431 H   0  0  0  0  0  0  0  0  0  0  0  0
    1.8942   -2.6458    0.8267 H   0  0  0  0  0  0  0  0  0  0  0  0
    2.4707   -5.2956   -0.0458 H   0  0  0  0  0  0  0  0  0  0  0  0
    4.4323   -6.8367   -0.0679 H   0  0  0  0  0  0  0  0  0  0  0  0
    5.3354   -2.0352   -0.0716 H   0  0  0  0  0  0  0  0  0  0  0  0
    8.6435   -4.7125    0.8143 H   0  0  0  0  0  0  0  0  0  0  0  0
    8.6706   -4.7162   -0.9628 H   0  0  0  0  0  0  0  0  0  0  0  0
    6.0128    1.1490    0.0078 H   0  0  0  0  0  0  0  0  0  0  0  0
    3.3376    2.9768   -1.4339 H   0  0  0  0  0  0  0  0  0  0  0  0
    3.2350    5.3676   -1.7265 H   0  0  0  0  0  0  0  0  0  0  0  0
    4.7489    6.8446   -0.4182 H   0  0  0  0  0  0  0  0  0  0  0  0
    6.3391    5.8397    1.2090 H   0  0  0  0  0  0  0  0  0  0  0  0
    6.6955    3.3894    1.2443 H   0  0  0  0  0  0  0  0  0  0  0  0
  1  2  2  0  0  0  0
  2  3  1  0  0  0  0
  2  6  1  0  0  0  0
  3  4  2  0  0  0  0
  4  5  1  0  0  0  0
  4 17  1  0  0  0  0
  5  6  2  0  0  0  0
  6  7  1  0  0  0  0
  7  8  1  0  0  0  0
  7 24  1  0  0  0  0
  7 25  1  0  0  0  0
  8  9  2  0  0  0  0
  8 13  1  0  0  0  0
  9 10  1  0  0  0  0
  9 26  1  0  0  0  0
 10 11  2  0  0  0  0
 10 27  1  0  0  0  0
 11 12  1  0  0  0  0
 11 16  1  0  0  0  0
 12 13  2  0  0  0  0
 12 14  1  0  0  0  0
 13 28  1  0  0  0  0
 14 15  1  0  0  0  0
 15 16  1  0  0  0  0
 15 29  1  0  0  0  0
 15 30  1  0  0  0  0
 17 18  1  0  0  0  0
 17 31  1  0  0  0  0
 18 19  2  0  0  0  0
 18 23  1  0  0  0  0
 19 20  1  0  0  0  0
 19 32  1  0  0  0  0
 20 21  2  0  0  0  0
 20 33  1  0  0  0  0
 21 22  1  0  0  0  0
 21 34  1  0  0  0  0
 22 23  2  0  0  0  0
 22 35  1  0  0  0  0
 23 36  1  0  0  0  0
M  END
$$$$
