3RQ
 OpenBabel04121316053D

 32 34  0  0  0  0  0  0  0  0999 V2000
    1.1936   -0.1071   -0.1146 C   0  0  0  0  0  0  0  0  0  0  0  0
    2.6221   -0.1358   -0.0662 O   0  0  0  0  0  0  0  0  0  0  0  0
    3.1821    0.6879    0.8781 C   0  0  0  0  0  0  0  0  0  0  0  0
    2.9505    2.0626    0.8812 C   0  0  0  0  0  0  0  0  0  0  0  0
    3.5782    2.9711    1.7740 C   0  0  0  0  0  0  0  0  0  0  0  0
    4.5023    2.4168    2.6753 C   0  0  0  0  0  0  0  0  0  0  0  0
    4.7347    1.0349    2.6938 C   0  0  0  0  0  0  0  0  0  0  0  0
    4.1264    0.1888    1.7625 C   0  0  0  0  0  0  0  0  0  0  0  0
    4.6353   -1.4547    1.6751 Cl  0  0  0  0  0  0  0  0  0  0  0  0
    5.4574    3.3563    3.7781 Cl  0  0  0  0  0  0  0  0  0  0  0  0
    3.2620    4.4086    1.6967 C   0  0  0  0  0  0  0  0  0  0  0  0
    4.2439    5.3102    1.9675 N   0  0  0  0  0  0  0  0  0  0  0  0
    3.9913    6.6338    1.9218 C   0  0  0  0  0  0  0  0  0  0  0  0
    5.1267    7.5408    2.3232 C   0  0  0  0  0  0  0  0  0  0  0  0
    2.8221    7.1931    1.5461 N   0  0  0  0  0  0  0  0  0  0  0  0
    1.8823    6.2790    1.2405 C   0  0  0  0  0  0  0  0  0  0  0  0
    2.0005    4.8951    1.3171 C   0  0  0  0  0  0  0  0  0  0  0  0
    0.7048    4.3762    1.0144 C   0  0  0  0  0  0  0  0  0  0  0  0
    0.1694    3.0651    1.1272 C   0  0  0  0  0  0  0  0  0  0  0  0
   -0.3148    2.0119    1.2287 N   0  0  0  0  0  0  0  0  0  0  0  0
   -0.0940    5.4164    0.6096 C   0  0  0  0  0  0  0  0  0  0  0  0
    0.6094    6.5698    0.8085 N   0  0  0  0  0  0  0  0  0  0  0  0
    0.2405    7.5013    0.6907 H   0  0  0  0  0  0  0  0  0  0  0  0
    0.8417   -0.8618   -0.8248 H   0  0  0  0  0  0  0  0  0  0  0  0
    0.8365    0.8434   -0.5156 H   0  0  0  0  0  0  0  0  0  0  0  0
    0.7597   -0.3489    0.8633 H   0  0  0  0  0  0  0  0  0  0  0  0
    2.2919    2.4371    0.1083 H   0  0  0  0  0  0  0  0  0  0  0  0
    5.4172    0.6222    3.4307 H   0  0  0  0  0  0  0  0  0  0  0  0
    6.0114    6.9650    2.6240 H   0  0  0  0  0  0  0  0  0  0  0  0
    4.8414    8.1703    3.1723 H   0  0  0  0  0  0  0  0  0  0  0  0
    5.4177    8.1827    1.4867 H   0  0  0  0  0  0  0  0  0  0  0  0
   -1.1241    5.3978    0.2762 H   0  0  0  0  0  0  0  0  0  0  0  0
  1  2  1  0  0  0  0
  1 24  1  0  0  0  0
  1 25  1  0  0  0  0
  1 26  1  0  0  0  0
  2  3  1  0  0  0  0
  3  4  2  0  0  0  0
  3  8  1  0  0  0  0
  4  5  1  0  0  0  0
  4 27  1  0  0  0  0
  5  6  2  0  0  0  0
  5 11  1  0  0  0  0
  6  7  1  0  0  0  0
  6 10  1  0  0  0  0
  7  8  2  0  0  0  0
  7 28  1  0  0  0  0
  8  9  1  0  0  0  0
 11 12  2  0  0  0  0
 11 17  1  0  0  0  0
 12 13  1  0  0  0  0
 13 14  1  0  0  0  0
 13 15  2  0  0  0  0
 14 29  1  0  0  0  0
 14 30  1  0  0  0  0
 14 31  1  0  0  0  0
 15 16  1  0  0  0  0
 16 17  2  0  0  0  0
 16 22  1  0  0  0  0
 17 18  1  0  0  0  0
 18 19  1  0  0  0  0
 18 21  2  0  0  0  0
 19 20  3  0  0  0  0
 21 22  1  0  0  0  0
 21 32  1  0  0  0  0
 22 23  1  0  0  0  0
M  END
$$$$
