3RR
 OpenBabel04121316053D

 35 37  0  0  0  0  0  0  0  0999 V2000
    1.0993    0.0578    0.0340 C   0  0  0  0  0  0  0  0  0  0  0  0
    2.5054   -0.1036    0.1288 O   0  0  0  0  0  0  0  0  0  0  0  0
    3.0112   -1.3693    0.2170 C   0  0  0  0  0  0  0  0  0  0  0  0
    4.3945   -1.4151    0.4392 C   0  0  0  0  0  0  0  0  0  0  0  0
    5.2496   -2.5120    0.2417 C   0  0  0  0  0  0  0  0  0  0  0  0
    4.5693   -3.7218    0.1965 C   0  0  0  0  0  0  0  0  0  0  0  0
    3.1704   -3.7443    0.2729 C   0  0  0  0  0  0  0  0  0  0  0  0
    2.3893   -2.5935    0.1648 C   0  0  0  0  0  0  0  0  0  0  0  0
    0.6977   -2.8814    0.0393 Cl  0  0  0  0  0  0  0  0  0  0  0  0
    5.3128   -5.2769    0.0919 Cl  0  0  0  0  0  0  0  0  0  0  0  0
    6.7166   -2.3280    0.1445 C   0  0  0  0  0  0  0  0  0  0  0  0
    7.4980   -3.4424    0.0913 N   0  0  0  0  0  0  0  0  0  0  0  0
    8.8353   -3.3641   -0.0353 C   0  0  0  0  0  0  0  0  0  0  0  0
    9.5656   -4.6860   -0.0954 C   0  0  0  0  0  0  0  0  0  0  0  0
    9.5377   -2.2153   -0.0988 N   0  0  0  0  0  0  0  0  0  0  0  0
    8.7523   -1.1168   -0.0491 C   0  0  0  0  0  0  0  0  0  0  0  0
    7.3581   -1.0746    0.0446 C   0  0  0  0  0  0  0  0  0  0  0  0
    7.0064    0.3141   -0.0053 C   0  0  0  0  0  0  0  0  0  0  0  0
    5.7599    1.0374    0.0106 C   0  0  0  0  0  0  0  0  0  0  0  0
    4.8130    1.6881    0.1193 N   0  0  0  0  0  0  0  0  0  0  0  0
    8.1592    1.0584   -0.0232 C   0  0  0  0  0  0  0  0  0  0  0  0
    9.2163    0.1840   -0.0837 N   0  0  0  0  0  0  0  0  0  0  0  0
   10.1930    0.4342   -0.1505 H   0  0  0  0  0  0  0  0  0  0  0  0
    8.2248    2.5437   -0.0044 C   0  0  0  0  0  0  0  0  0  0  0  0
    0.8402    1.1159   -0.0758 H   0  0  0  0  0  0  0  0  0  0  0  0
    0.6430   -0.2936    0.9628 H   0  0  0  0  0  0  0  0  0  0  0  0
    0.7034   -0.4404   -0.8558 H   0  0  0  0  0  0  0  0  0  0  0  0
    4.7952   -0.5770    0.9796 H   0  0  0  0  0  0  0  0  0  0  0  0
    2.6677   -4.6936    0.4054 H   0  0  0  0  0  0  0  0  0  0  0  0
    8.8667   -5.5324   -0.0386 H   0  0  0  0  0  0  0  0  0  0  0  0
   10.2614   -4.7846    0.7433 H   0  0  0  0  0  0  0  0  0  0  0  0
   10.1212   -4.7894   -1.0330 H   0  0  0  0  0  0  0  0  0  0  0  0
    7.2171    2.9757    0.0872 H   0  0  0  0  0  0  0  0  0  0  0  0
    8.6238    2.9217   -0.9442 H   0  0  0  0  0  0  0  0  0  0  0  0
    8.7747    2.9062    0.8629 H   0  0  0  0  0  0  0  0  0  0  0  0
  1  2  1  0  0  0  0
  1 25  1  0  0  0  0
  1 26  1  0  0  0  0
  1 27  1  0  0  0  0
  2  3  1  0  0  0  0
  3  4  2  0  0  0  0
  3  8  1  0  0  0  0
  4  5  1  0  0  0  0
  4 28  1  0  0  0  0
  5  6  2  0  0  0  0
  5 11  1  0  0  0  0
  6  7  1  0  0  0  0
  6 10  1  0  0  0  0
  7  8  2  0  0  0  0
  7 29  1  0  0  0  0
  8  9  1  0  0  0  0
 11 12  2  0  0  0  0
 11 17  1  0  0  0  0
 12 13  1  0  0  0  0
 13 14  1  0  0  0  0
 13 15  2  0  0  0  0
 14 30  1  0  0  0  0
 14 31  1  0  0  0  0
 14 32  1  0  0  0  0
 15 16  1  0  0  0  0
 16 17  2  0  0  0  0
 16 22  1  0  0  0  0
 17 18  1  0  0  0  0
 18 19  1  0  0  0  0
 18 21  2  0  0  0  0
 19 20  3  0  0  0  0
 21 22  1  0  0  0  0
 21 24  1  0  0  0  0
 22 23  1  0  0  0  0
 24 33  1  0  0  0  0
 24 34  1  0  0  0  0
 24 35  1  0  0  0  0
M  END
$$$$
