3RZ
 OpenBabel04121316053D

 32 34  0  0  0  0  0  0  0  0999 V2000
    1.0396   -0.0978   -0.0608 C   0  0  0  0  0  0  0  0  0  0  0  0
    2.5336   -0.1594   -0.0439 C   0  0  0  0  0  0  0  0  0  0  0  0
    3.1384   -1.3517   -0.0362 N   0  0  0  0  0  0  0  0  0  0  0  0
    4.4778   -1.3417   -0.0411 C   0  0  0  0  0  0  0  0  0  0  0  0
    5.0692   -2.5856   -0.1013 N   0  0  0  0  0  0  0  0  0  0  0  0
    5.2362   -0.1660   -0.0664 C   0  0  0  0  0  0  0  0  0  0  0  0
    4.5222    1.0337   -0.0373 C   0  0  0  0  0  0  0  0  0  0  0  0
    3.1795    1.0074   -0.0362 N   0  0  0  0  0  0  0  0  0  0  0  0
    5.2619    2.2341   -0.0354 C   0  0  0  0  0  0  0  0  0  0  0  0
    6.6446    2.2161   -0.3109 C   0  0  0  0  0  0  0  0  0  0  0  0
    7.3162    1.0142   -0.4505 C   0  0  0  0  0  0  0  0  0  0  0  0
    6.6419   -0.1580   -0.1748 C   0  0  0  0  0  0  0  0  0  0  0  0
    4.5440    3.5149    0.2773 C   0  0  0  0  0  0  0  0  0  0  0  0
    3.3334    3.4984    0.5023 O   0  0  0  0  0  0  0  0  0  0  0  0
    5.3069    4.6644    0.3017 N   0  0  0  0  0  0  0  0  0  0  0  0
    4.7766    5.9034    0.5790 C   0  0  0  0  0  0  0  0  0  0  0  0
    3.5743    6.1258    1.1039 N   0  0  0  0  0  0  0  0  0  0  0  0
    3.4632    7.4498    1.1611 N   0  0  0  0  0  0  0  0  0  0  0  0
    2.5949    7.8317    1.5204 H   0  0  0  0  0  0  0  0  0  0  0  0
    4.5724    8.0989    0.7105 C   0  0  0  0  0  0  0  0  0  0  0  0
    5.4561    7.1157    0.3367 C   0  0  0  0  0  0  0  0  0  0  0  0
    0.6097   -1.1021   -0.0784 H   0  0  0  0  0  0  0  0  0  0  0  0
    0.6918    0.4469   -0.9454 H   0  0  0  0  0  0  0  0  0  0  0  0
    0.6800    0.4241    0.8315 H   0  0  0  0  0  0  0  0  0  0  0  0
    4.4460   -3.3778   -0.0989 H   0  0  0  0  0  0  0  0  0  0  0  0
    6.0635   -2.7192   -0.0947 H   0  0  0  0  0  0  0  0  0  0  0  0
    7.2423    3.1118   -0.4130 H   0  0  0  0  0  0  0  0  0  0  0  0
    8.3590    0.9848   -0.7522 H   0  0  0  0  0  0  0  0  0  0  0  0
    7.2178   -1.0730   -0.0957 H   0  0  0  0  0  0  0  0  0  0  0  0
    6.2766    4.6718    0.0439 H   0  0  0  0  0  0  0  0  0  0  0  0
    4.6275    9.1751    0.6880 H   0  0  0  0  0  0  0  0  0  0  0  0
    6.4377    7.2486   -0.0923 H   0  0  0  0  0  0  0  0  0  0  0  0
  1  2  1  0  0  0  0
  1 22  1  0  0  0  0
  1 23  1  0  0  0  0
  1 24  1  0  0  0  0
  2  3  2  0  0  0  0
  2  8  1  0  0  0  0
  3  4  1  0  0  0  0
  4  5  1  0  0  0  0
  4  6  2  0  0  0  0
  5 25  1  0  0  0  0
  5 26  1  0  0  0  0
  6  7  1  0  0  0  0
  6 12  1  0  0  0  0
  7  8  2  0  0  0  0
  7  9  1  0  0  0  0
  9 10  2  0  0  0  0
  9 13  1  0  0  0  0
 10 11  1  0  0  0  0
 10 27  1  0  0  0  0
 11 12  2  0  0  0  0
 11 28  1  0  0  0  0
 12 29  1  0  0  0  0
 13 14  2  0  0  0  0
 13 15  1  0  0  0  0
 15 16  1  0  0  0  0
 15 30  1  0  0  0  0
 16 17  2  0  0  0  0
 16 21  1  0  0  0  0
 17 18  1  0  0  0  0
 18 19  1  0  0  0  0
 18 20  1  0  0  0  0
 20 21  2  0  0  0  0
 20 31  1  0  0  0  0
 21 32  1  0  0  0  0
M  END
$$$$
