3S2
 OpenBabel04121316053D

 43 43  0  0  1  0  0  0  0  0999 V2000
    1.0786   -0.0606   -0.0080 C   0  0  0  0  0  0  0  0  0  0  0  0
    2.5357   -0.0723   -0.0053 N   0  0  0  0  0  0  0  0  0  0  0  0
    3.0312   -1.2457    0.7118 C   0  0  0  0  0  0  0  0  0  0  0  0
    4.5598   -1.2571    0.7154 C   0  0  0  0  0  0  0  0  0  0  0  0
    5.0902   -2.4911    1.4526 C   0  0  0  0  0  0  0  0  0  0  0  0
    6.6180   -2.5318    1.4533 C   0  0  0  0  0  0  0  0  0  0  0  0
    7.1382   -3.7573    2.0507 N   0  0  0  0  0  0  0  0  0  0  0  0
    8.4889   -3.8791    2.2950 C   0  0  0  0  0  0  0  0  0  0  0  0
    9.2985   -3.0338    1.9238 O   0  0  0  0  0  0  0  0  0  0  0  0
    8.8734   -5.0197    2.9594 N   0  0  0  0  0  0  0  0  0  0  0  0
   10.2096   -5.1826    3.4936 C   0  0  0  0  0  0  0  0  0  0  0  0
   10.5080   -6.6357    3.1902 C   0  0  0  0  0  0  0  0  0  0  0  0
    9.1755   -7.3455    3.5120 C   0  0  2  0  0  0  0  0  0  0  0  0
    9.0379   -8.1794    2.8086 H   0  0  0  0  0  0  0  0  0  0  0  0
    8.1029   -6.2367    3.2177 C   0  0  1  0  0  0  0  0  0  0  0  0
    7.4905   -6.4722    2.3394 H   0  0  0  0  0  0  0  0  0  0  0  0
    7.1851   -5.9687    4.4014 C   0  0  0  0  0  0  0  0  0  0  0  0
    7.2077   -4.9584    5.0990 O   0  0  0  0  0  0  0  0  0  0  0  0
    9.1088   -7.9385    4.9043 N   0  0  0  0  0  0  0  0  0  0  0  0
   10.5696   -8.2968    5.6725 S   0  0  0  0  0  0  0  0  0  0  0  0
   11.2372   -9.3052    4.8799 O   0  0  0  0  0  0  0  0  0  0  0  0
   11.1650   -7.0389    6.0256 O   0  0  0  0  0  0  0  0  0  0  0  0
   10.0790   -8.9971    7.0244 O   0  0  0  0  0  0  0  0  0  0  0  0
    0.7159    0.8188   -0.5478 H   0  0  0  0  0  0  0  0  0  0  0  0
    0.6797   -0.0225    1.0110 H   0  0  0  0  0  0  0  0  0  0  0  0
    0.6821   -0.9472   -0.5137 H   0  0  0  0  0  0  0  0  0  0  0  0
    2.8794    0.7764    0.4447 H   0  0  0  0  0  0  0  0  0  0  0  0
    2.6651   -2.1581    0.2260 H   0  0  0  0  0  0  0  0  0  0  0  0
    2.6631   -1.2391    1.7448 H   0  0  0  0  0  0  0  0  0  0  0  0
    4.9382   -0.3460    1.1963 H   0  0  0  0  0  0  0  0  0  0  0  0
    4.9322   -1.2578   -0.3168 H   0  0  0  0  0  0  0  0  0  0  0  0
    4.6970   -3.3988    0.9793 H   0  0  0  0  0  0  0  0  0  0  0  0
    4.7169   -2.4879    2.4852 H   0  0  0  0  0  0  0  0  0  0  0  0
    7.0166   -1.6612    1.9900 H   0  0  0  0  0  0  0  0  0  0  0  0
    6.9979   -2.4924    0.4272 H   0  0  0  0  0  0  0  0  0  0  0  0
    6.5203   -4.2364    2.6838 H   0  0  0  0  0  0  0  0  0  0  0  0
   10.1380   -5.0185    4.5777 H   0  0  0  0  0  0  0  0  0  0  0  0
   10.9515   -4.4928    3.0900 H   0  0  0  0  0  0  0  0  0  0  0  0
   11.3996   -6.9817    3.7081 H   0  0  0  0  0  0  0  0  0  0  0  0
   10.7445   -6.7619    2.1279 H   0  0  0  0  0  0  0  0  0  0  0  0
    6.4754   -6.7757    4.6384 H   0  0  0  0  0  0  0  0  0  0  0  0
    8.5950   -7.3811    5.5880 H   0  0  0  0  0  0  0  0  0  0  0  0
    9.9425   -9.9482    6.8546 H   0  0  0  0  0  0  0  0  0  0  0  0
  1  2  1  0  0  0  0
  1 24  1  0  0  0  0
  1 25  1  0  0  0  0
  1 26  1  0  0  0  0
  2  3  1  0  0  0  0
  2 27  1  0  0  0  0
  3  4  1  0  0  0  0
  3 28  1  0  0  0  0
  3 29  1  0  0  0  0
  4  5  1  0  0  0  0
  4 30  1  0  0  0  0
  4 31  1  0  0  0  0
  5  6  1  0  0  0  0
  5 32  1  0  0  0  0
  5 33  1  0  0  0  0
  6  7  1  0  0  0  0
  6 34  1  0  0  0  0
  6 35  1  0  0  0  0
  7  8  1  0  0  0  0
  7 36  1  0  0  0  0
  8  9  2  0  0  0  0
  8 10  1  0  0  0  0
 10 11  1  0  0  0  0
 10 15  1  0  0  0  0
 11 12  1  0  0  0  0
 11 37  1  0  0  0  0
 11 38  1  0  0  0  0
 12 13  1  0  0  0  0
 12 39  1  0  0  0  0
 12 40  1  0  0  0  0
 13 15  1  0  0  0  0
 13 19  1  0  0  0  0
 13 14  1  6  0  0  0
 15 17  1  0  0  0  0
 15 16  1  6  0  0  0
 17 18  2  0  0  0  0
 17 41  1  0  0  0  0
 19 20  1  0  0  0  0
 19 42  1  0  0  0  0
 20 21  2  0  0  0  0
 20 22  2  0  0  0  0
 20 23  1  0  0  0  0
 23 43  1  0  0  0  0
M  END
$$$$
