3TH
 OpenBabel04121316053D

 35 38  0  0  1  0  0  0  0  0999 V2000
    1.1550    0.0848    0.2343 O   0  0  0  0  0  0  0  0  0  0  0  0
    2.3674   -0.0334    0.0952 C   0  0  0  0  0  0  0  0  0  0  0  0
    3.1804    1.0310   -0.2488 N   0  0  0  0  0  0  0  0  0  0  0  0
    4.1939    0.8489   -1.2093 C   0  0  0  0  0  0  0  0  0  0  0  0
    4.8219    1.9553   -1.7765 C   0  0  0  0  0  0  0  0  0  0  0  0
    5.7772    1.7654   -2.7795 C   0  0  0  0  0  0  0  0  0  0  0  0
    6.1059    0.4793   -3.2105 C   0  0  0  0  0  0  0  0  0  0  0  0
    5.4748   -0.6253   -2.6488 C   0  0  0  0  0  0  0  0  0  0  0  0
    4.5186   -0.4481   -1.6454 C   0  0  0  0  0  0  0  0  0  0  0  0
    3.8176   -1.6595   -1.0819 C   0  0  0  0  0  0  0  0  0  0  0  0
    3.1286   -1.3472    0.2362 C   0  0  1  0  0  0  0  0  0  0  0  0
    2.4401   -2.1499    0.5138 H   0  0  0  0  0  0  0  0  0  0  0  0
    4.1186   -1.1496    1.2980 N   0  0  0  0  0  0  0  0  0  0  0  0
    3.9906   -1.7504    2.5207 C   0  0  0  0  0  0  0  0  0  0  0  0
    3.1539   -2.6037    2.7616 O   0  0  0  0  0  0  0  0  0  0  0  0
    4.9787   -1.3332    3.4828 C   0  0  0  0  0  0  0  0  0  0  0  0
    5.5595   -0.0792    3.7094 C   0  0  0  0  0  0  0  0  0  0  0  0
    6.3949   -0.2654    4.8019 C   0  0  0  0  0  0  0  0  0  0  0  0
    6.3507   -1.5386    5.2086 C   0  0  0  0  0  0  0  0  0  0  0  0
    5.4879   -2.2218    4.4284 N   0  0  0  0  0  0  0  0  0  0  0  0
    5.2400   -3.2008    4.5011 H   0  0  0  0  0  0  0  0  0  0  0  0
    7.3161   -1.8758    6.5168 S   0  0  0  0  0  0  0  0  0  0  0  0
    7.8078   -0.2223    6.5420 C   0  0  0  0  0  0  0  0  0  0  0  0
    7.2273    0.5602    5.5544 C   0  0  0  0  0  0  0  0  0  0  0  0
    8.9277    0.2877    7.7411 Cl  0  0  0  0  0  0  0  0  0  0  0  0
    2.8204    1.9584   -0.0638 H   0  0  0  0  0  0  0  0  0  0  0  0
    4.5654    2.9664   -1.4730 H   0  0  0  0  0  0  0  0  0  0  0  0
    6.2630    2.6228   -3.2385 H   0  0  0  0  0  0  0  0  0  0  0  0
    6.8498    0.3337   -3.9898 H   0  0  0  0  0  0  0  0  0  0  0  0
    5.7262   -1.6258   -2.9937 H   0  0  0  0  0  0  0  0  0  0  0  0
    4.5529   -2.4589   -0.9266 H   0  0  0  0  0  0  0  0  0  0  0  0
    3.0787   -2.0075   -1.8131 H   0  0  0  0  0  0  0  0  0  0  0  0
    4.8294   -0.4422    1.1591 H   0  0  0  0  0  0  0  0  0  0  0  0
    5.3410    0.8283    3.1623 H   0  0  0  0  0  0  0  0  0  0  0  0
    7.4073    1.6178    5.4199 H   0  0  0  0  0  0  0  0  0  0  0  0
  1  2  2  0  0  0  0
  2  3  1  0  0  0  0
  2 11  1  0  0  0  0
  3  4  1  0  0  0  0
  3 26  1  0  0  0  0
  4  5  2  0  0  0  0
  4  9  1  0  0  0  0
  5  6  1  0  0  0  0
  5 27  1  0  0  0  0
  6  7  2  0  0  0  0
  6 28  1  0  0  0  0
  7  8  1  0  0  0  0
  7 29  1  0  0  0  0
  8  9  2  0  0  0  0
  8 30  1  0  0  0  0
  9 10  1  0  0  0  0
 10 11  1  0  0  0  0
 10 31  1  0  0  0  0
 10 32  1  0  0  0  0
 11 13  1  0  0  0  0
 11 12  1  1  0  0  0
 13 14  1  0  0  0  0
 13 33  1  0  0  0  0
 14 15  2  0  0  0  0
 14 16  1  0  0  0  0
 16 17  2  0  0  0  0
 16 20  1  0  0  0  0
 17 18  1  0  0  0  0
 17 34  1  0  0  0  0
 18 19  2  0  0  0  0
 18 24  1  0  0  0  0
 19 20  1  0  0  0  0
 19 22  1  0  0  0  0
 20 21  1  0  0  0  0
 22 23  1  0  0  0  0
 23 24  2  0  0  0  0
 23 25  1  0  0  0  0
 24 35  1  0  0  0  0
M  END
$$$$
