3TL
 OpenBabel04121316053D

130133  0  0  1  0  0  0  0  0999 V2000
    9.5328   -8.9898   -1.6227 O   0  0  0  0  0  0  0  0  0  0  0  0
    8.4401   -9.8752   -1.7824 C   0  0  1  0  0  0  0  0  0  0  0  0
    8.6109  -10.8882   -1.3835 H   0  0  0  0  0  0  0  0  0  0  0  0
    7.3092   -9.3051   -0.9698 C   0  0  1  0  0  0  0  0  0  0  0  0
    7.2069   -8.2601   -1.2889 H   0  0  0  0  0  0  0  0  0  0  0  0
    5.8586  -10.1005   -1.0733 C   0  0  2  0  0  0  0  0  0  0  0  0
    6.0413  -11.1605   -0.9250 H   0  0  0  0  0  0  0  0  0  0  0  0
    4.7901  -10.1589   -2.6478 C   0  0  0  0  0  0  0  0  0  0  0  0
    5.0273  -10.0829   -4.5102 C   0  0  0  0  0  0  0  0  0  0  0  0
    4.2547   -9.8698   -5.5982 C   0  0  0  0  0  0  0  0  0  0  0  0
    4.8364  -10.2664   -6.8767 C   0  0  0  0  0  0  0  0  0  0  0  0
    6.1608  -10.7535   -6.9690 C   0  0  0  0  0  0  0  0  0  0  0  0
    6.9169  -10.5952   -5.8921 C   0  0  0  0  0  0  0  0  0  0  0  0
    6.2263   -9.7178   -5.1531 C   0  0  0  0  0  0  0  0  0  0  0  0
    5.0993   -9.6195    0.1314 N   0  0  0  0  0  0  0  0  0  0  0  0
    5.1786   -8.2871    0.5637 C   0  0  0  0  0  0  0  0  0  0  0  0
    6.0042   -7.4908    0.1088 O   0  0  0  0  0  0  0  0  0  0  0  0
    4.2241   -7.7145    1.6242 C   0  0  2  0  0  0  0  0  0  0  0  0
    3.1720   -7.8252    1.3162 H   0  0  0  0  0  0  0  0  0  0  0  0
    4.5469   -6.2047    1.9979 C   0  0  0  0  0  0  0  0  0  0  0  0
    6.0224   -5.9805    2.3581 C   0  0  0  0  0  0  0  0  0  0  0  0
    4.2177   -5.1143    0.9785 C   0  0  0  0  0  0  0  0  0  0  0  0
    4.4492   -8.5830    2.7527 N   0  0  0  0  0  0  0  0  0  0  0  0
    5.7439   -8.9157    3.0915 C   0  0  0  0  0  0  0  0  0  0  0  0
    6.7374   -8.5307    2.4849 O   0  0  0  0  0  0  0  0  0  0  0  0
    5.9396   -9.8372    4.2536 C   0  0  1  0  0  0  0  0  0  0  0  0
    5.3681   -9.4453    5.0989 H   0  0  0  0  0  0  0  0  0  0  0  0
    5.4535  -11.1494    3.8573 N   0  0  0  0  0  0  0  0  0  0  0  0
    4.1432  -11.3902    3.6224 C   0  0  0  0  0  0  0  0  0  0  0  0
    3.2396  -10.5328    3.7440 O   0  0  0  0  0  0  0  0  0  0  0  0
    3.9075  -12.6318    3.1821 O   0  0  0  0  0  0  0  0  0  0  0  0
    2.5140  -12.8323    2.9125 C   0  0  0  0  0  0  0  0  0  0  0  0
    2.3156  -14.2767    2.5813 C   0  0  0  0  0  0  0  0  0  0  0  0
    2.2990  -15.2323    3.6024 C   0  0  0  0  0  0  0  0  0  0  0  0
    2.3568  -16.5850    3.2834 C   0  0  0  0  0  0  0  0  0  0  0  0
    2.2758  -16.9889    1.9525 C   0  0  0  0  0  0  0  0  0  0  0  0
    2.1262  -16.0425    0.9426 C   0  0  0  0  0  0  0  0  0  0  0  0
    2.2216  -14.6905    1.2493 C   0  0  0  0  0  0  0  0  0  0  0  0
    7.4512   -9.8034    4.5149 C   0  0  0  0  0  0  0  0  0  0  0  0
    7.9332   -9.2138    0.3088 O   0  0  0  0  0  0  0  0  0  0  0  0
    8.1187   -9.8850   -3.2314 C   0  0  2  0  0  0  0  0  0  0  0  0
    8.1511  -10.9655   -3.5678 H   0  0  0  0  0  0  0  0  0  0  0  0
    8.8538   -8.9746   -4.2292 C   0  0  0  0  0  0  0  0  0  0  0  0
   10.1988   -9.4916   -4.4700 C   0  0  0  0  0  0  0  0  0  0  0  0
   10.7311  -10.3874   -3.5546 C   0  0  0  0  0  0  0  0  0  0  0  0
   12.0398  -10.2828   -3.2590 C   0  0  0  0  0  0  0  0  0  0  0  0
   12.8339   -9.6912   -4.2147 C   0  0  0  0  0  0  0  0  0  0  0  0
   12.2944   -9.1398   -5.3909 C   0  0  0  0  0  0  0  0  0  0  0  0
   10.9463   -8.9231   -5.4755 C   0  0  0  0  0  0  0  0  0  0  0  0
    6.7663   -9.5391   -3.1124 N   0  0  0  0  0  0  0  0  0  0  0  0
    6.1045   -8.1210   -3.2001 C   0  0  0  0  0  0  0  0  0  0  0  0
    6.9611   -7.2343   -3.3297 O   0  0  0  0  0  0  0  0  0  0  0  0
    4.2867   -7.6711   -3.4813 C   0  0  2  0  0  0  0  0  0  0  0  0
    4.2033   -7.4340   -4.5504 H   0  0  0  0  0  0  0  0  0  0  0  0
    4.0479   -6.3364   -2.7775 C   0  0  0  0  0  0  0  0  0  0  0  0
    3.9882   -6.8293   -1.4273 C   0  0  0  0  0  0  0  0  0  0  0  0
    5.1870   -5.3379   -2.8023 C   0  0  0  0  0  0  0  0  0  0  0  0
    2.8426   -8.5929   -3.1480 N   0  0  0  0  0  0  0  0  0  0  0  0
    2.4800   -9.2804   -1.9437 C   0  0  0  0  0  0  0  0  0  0  0  0
    2.9084   -9.0165   -0.8189 O   0  0  0  0  0  0  0  0  0  0  0  0
    1.7036  -10.6062   -1.8998 C   0  0  1  0  0  0  0  0  0  0  0  0
    0.6574  -10.3255   -1.9989 H   0  0  0  0  0  0  0  0  0  0  0  0
    2.0677  -11.6000   -2.8970 N   0  0  0  0  0  0  0  0  0  0  0  0
    1.9352  -11.3654   -4.2030 C   0  0  0  0  0  0  0  0  0  0  0  0
    1.5117  -10.2456   -4.6403 O   0  0  0  0  0  0  0  0  0  0  0  0
    2.3271  -12.3677   -4.9838 O   0  0  0  0  0  0  0  0  0  0  0  0
    2.1694  -12.0710   -6.3737 C   0  0  0  0  0  0  0  0  0  0  0  0
    2.3767  -13.3153   -7.1576 C   0  0  0  0  0  0  0  0  0  0  0  0
    1.2945  -14.1777   -7.2975 C   0  0  0  0  0  0  0  0  0  0  0  0
    1.5124  -15.4734   -7.7320 C   0  0  0  0  0  0  0  0  0  0  0  0
    2.7736  -15.8510   -8.1886 C   0  0  0  0  0  0  0  0  0  0  0  0
    3.8137  -14.9255   -8.2321 C   0  0  0  0  0  0  0  0  0  0  0  0
    3.6374  -13.6768   -7.6511 C   0  0  0  0  0  0  0  0  0  0  0  0
    2.0175  -11.2071   -0.4751 C   0  0  0  0  0  0  0  0  0  0  0  0
    9.9063   -9.1884   -0.7609 H   0  0  0  0  0  0  0  0  0  0  0  0
    4.4901   -9.2091   -2.3076 H   0  0  0  0  0  0  0  0  0  0  0  0
    4.1248  -10.9696   -2.4793 H   0  0  0  0  0  0  0  0  0  0  0  0
    3.3101   -9.3445   -5.6103 H   0  0  0  0  0  0  0  0  0  0  0  0
    4.2730  -10.1858   -7.7859 H   0  0  0  0  0  0  0  0  0  0  0  0
    6.6949  -11.0598   -7.8495 H   0  0  0  0  0  0  0  0  0  0  0  0
    8.0011  -10.6691   -5.9064 H   0  0  0  0  0  0  0  0  0  0  0  0
    6.7360   -8.7649   -5.0017 H   0  0  0  0  0  0  0  0  0  0  0  0
    4.6857  -10.2914    0.7589 H   0  0  0  0  0  0  0  0  0  0  0  0
    3.9354   -5.9679    2.8735 H   0  0  0  0  0  0  0  0  0  0  0  0
    6.7352   -6.3039    1.5935 H   0  0  0  0  0  0  0  0  0  0  0  0
    6.2554   -6.5028    3.2800 H   0  0  0  0  0  0  0  0  0  0  0  0
    6.2597   -4.9314    2.4973 H   0  0  0  0  0  0  0  0  0  0  0  0
    4.9493   -5.1521    0.1568 H   0  0  0  0  0  0  0  0  0  0  0  0
    4.3753   -4.0977    1.3260 H   0  0  0  0  0  0  0  0  0  0  0  0
    3.1674   -5.1771    0.6489 H   0  0  0  0  0  0  0  0  0  0  0  0
    3.6610   -9.1015    3.1369 H   0  0  0  0  0  0  0  0  0  0  0  0
    6.1247  -11.8881    3.6787 H   0  0  0  0  0  0  0  0  0  0  0  0
    2.2110  -12.2047    2.0676 H   0  0  0  0  0  0  0  0  0  0  0  0
    1.8964  -12.5610    3.7786 H   0  0  0  0  0  0  0  0  0  0  0  0
    2.2753  -14.9235    4.6452 H   0  0  0  0  0  0  0  0  0  0  0  0
    2.4671  -17.3240    4.0715 H   0  0  0  0  0  0  0  0  0  0  0  0
    2.3243  -18.0444    1.7033 H   0  0  0  0  0  0  0  0  0  0  0  0
    1.9611  -16.3561   -0.0835 H   0  0  0  0  0  0  0  0  0  0  0  0
    2.2332  -13.9637    0.4447 H   0  0  0  0  0  0  0  0  0  0  0  0
    7.7793   -8.7744    4.7335 H   0  0  0  0  0  0  0  0  0  0  0  0
    8.0229  -10.1179    3.6261 H   0  0  0  0  0  0  0  0  0  0  0  0
    7.7339  -10.4509    5.3381 H   0  0  0  0  0  0  0  0  0  0  0  0
    8.3133   -8.3047    0.2447 H   0  0  0  0  0  0  0  0  0  0  0  0
    8.8707   -7.9486   -3.8715 H   0  0  0  0  0  0  0  0  0  0  0  0
    8.4849   -8.8322   -5.2529 H   0  0  0  0  0  0  0  0  0  0  0  0
   10.1350  -10.9691   -2.8712 H   0  0  0  0  0  0  0  0  0  0  0  0
   12.3621  -10.6692   -2.3012 H   0  0  0  0  0  0  0  0  0  0  0  0
   13.8934   -9.6882   -4.0369 H   0  0  0  0  0  0  0  0  0  0  0  0
   12.9242   -8.8167   -6.2032 H   0  0  0  0  0  0  0  0  0  0  0  0
   10.4794   -8.3137   -6.2506 H   0  0  0  0  0  0  0  0  0  0  0  0
    6.4010  -10.5095   -3.2240 H   0  0  0  0  0  0  0  0  0  0  0  0
    3.0718   -5.8853   -2.9568 H   0  0  0  0  0  0  0  0  0  0  0  0
    4.8589   -7.4401   -1.3605 H   0  0  0  0  0  0  0  0  0  0  0  0
    3.0633   -7.2684   -1.1808 H   0  0  0  0  0  0  0  0  0  0  0  0
    3.9023   -6.1039   -0.7139 H   0  0  0  0  0  0  0  0  0  0  0  0
    6.1284   -5.7163   -2.3989 H   0  0  0  0  0  0  0  0  0  0  0  0
    5.0087   -4.5190   -2.1062 H   0  0  0  0  0  0  0  0  0  0  0  0
    5.3394   -4.9991   -3.8212 H   0  0  0  0  0  0  0  0  0  0  0  0
    2.3592   -8.9418   -3.9684 H   0  0  0  0  0  0  0  0  0  0  0  0
    2.4294  -12.5133   -2.6169 H   0  0  0  0  0  0  0  0  0  0  0  0
    2.9060  -11.3675   -6.7001 H   0  0  0  0  0  0  0  0  0  0  0  0
    1.2019  -11.6068   -6.5916 H   0  0  0  0  0  0  0  0  0  0  0  0
    0.2993  -13.8471   -7.0130 H   0  0  0  0  0  0  0  0  0  0  0  0
    0.6986  -16.1889   -7.7008 H   0  0  0  0  0  0  0  0  0  0  0  0
    2.9418  -16.8717   -8.5148 H   0  0  0  0  0  0  0  0  0  0  0  0
    4.7664  -15.1897   -8.6815 H   0  0  0  0  0  0  0  0  0  0  0  0
    4.4888  -13.0063   -7.5652 H   0  0  0  0  0  0  0  0  0  0  0  0
    1.9406  -10.4769    0.3480 H   0  0  0  0  0  0  0  0  0  0  0  0
    3.0544  -11.5897   -0.4086 H   0  0  0  0  0  0  0  0  0  0  0  0
    1.3397  -12.0148   -0.2236 H   0  0  0  0  0  0  0  0  0  0  0  0
  1  2  1  0  0  0  0
  1 75  1  0  0  0  0
  2  3  1  1  0  0  0
  2  4  1  0  0  0  0
  4  5  1  6  0  0  0
  4 40  1  0  0  0  0
  6  8  1  0  0  0  0
  6 15  1  0  0  0  0
  6  7  1  1  0  0  0
  6  4  1  0  0  0  0
  8  9  1  0  0  0  0
  8 76  1  0  0  0  0
  8 77  1  0  0  0  0
  9 10  2  0  0  0  0
  9 14  1  0  0  0  0
 10 11  1  0  0  0  0
 10 78  1  0  0  0  0
 11 12  2  0  0  0  0
 11 79  1  0  0  0  0
 12 13  1  0  0  0  0
 12 80  1  0  0  0  0
 13 14  2  0  0  0  0
 13 81  1  0  0  0  0
 14 82  1  0  0  0  0
 15 16  1  0  0  0  0
 15 83  1  0  0  0  0
 16 17  2  0  0  0  0
 18 20  1  0  0  0  0
 18 23  1  0  0  0  0
 18 19  1  6  0  0  0
 18 16  1  0  0  0  0
 20 21  1  0  0  0  0
 20 22  1  0  0  0  0
 20 84  1  0  0  0  0
 21 85  1  0  0  0  0
 21 86  1  0  0  0  0
 21 87  1  0  0  0  0
 22 88  1  0  0  0  0
 22 89  1  0  0  0  0
 22 90  1  0  0  0  0
 23 24  1  0  0  0  0
 23 91  1  0  0  0  0
 24 25  2  0  0  0  0
 24 26  1  0  0  0  0
 26 27  1  1  0  0  0
 26 28  1  0  0  0  0
 26 39  1  0  0  0  0
 28 29  1  0  0  0  0
 28 92  1  0  0  0  0
 29 30  2  0  0  0  0
 29 31  1  0  0  0  0
 31 32  1  0  0  0  0
 32 33  1  0  0  0  0
 32 93  1  0  0  0  0
 32 94  1  0  0  0  0
 33 34  2  0  0  0  0
 33 38  1  0  0  0  0
 34 35  1  0  0  0  0
 34 95  1  0  0  0  0
 35 36  2  0  0  0  0
 35 96  1  0  0  0  0
 36 37  1  0  0  0  0
 36 97  1  0  0  0  0
 37 38  2  0  0  0  0
 37 98  1  0  0  0  0
 38 99  1  0  0  0  0
 39100  1  0  0  0  0
 39101  1  0  0  0  0
 39102  1  0  0  0  0
 40103  1  0  0  0  0
 41 43  1  0  0  0  0
 41 50  1  0  0  0  0
 41 42  1  6  0  0  0
 41  2  1  0  0  0  0
 43 44  1  0  0  0  0
 43104  1  0  0  0  0
 43105  1  0  0  0  0
 44 45  2  0  0  0  0
 44 49  1  0  0  0  0
 45 46  1  0  0  0  0
 45106  1  0  0  0  0
 46 47  2  0  0  0  0
 46107  1  0  0  0  0
 47 48  1  0  0  0  0
 47108  1  0  0  0  0
 48 49  2  0  0  0  0
 48109  1  0  0  0  0
 49110  1  0  0  0  0
 50 51  1  0  0  0  0
 50111  1  0  0  0  0
 51 52  2  0  0  0  0
 53 55  1  0  0  0  0
 53 58  1  0  0  0  0
 53 54  1  6  0  0  0
 53 51  1  0  0  0  0
 55 56  1  0  0  0  0
 55 57  1  0  0  0  0
 55112  1  0  0  0  0
 56113  1  0  0  0  0
 56114  1  0  0  0  0
 56115  1  0  0  0  0
 57116  1  0  0  0  0
 57117  1  0  0  0  0
 57118  1  0  0  0  0
 58 59  1  0  0  0  0
 58119  1  0  0  0  0
 59 60  2  0  0  0  0
 59 61  1  0  0  0  0
 61 62  1  6  0  0  0
 61 63  1  0  0  0  0
 61 74  1  0  0  0  0
 63 64  1  0  0  0  0
 63120  1  0  0  0  0
 64 65  2  0  0  0  0
 64 66  1  0  0  0  0
 66 67  1  0  0  0  0
 67 68  1  0  0  0  0
 67121  1  0  0  0  0
 67122  1  0  0  0  0
 68 69  2  0  0  0  0
 68 73  1  0  0  0  0
 69 70  1  0  0  0  0
 69123  1  0  0  0  0
 70 71  2  0  0  0  0
 70124  1  0  0  0  0
 71 72  1  0  0  0  0
 71125  1  0  0  0  0
 72 73  2  0  0  0  0
 72126  1  0  0  0  0
 73127  1  0  0  0  0
 74128  1  0  0  0  0
 74129  1  0  0  0  0
 74130  1  0  0  0  0
M  END
$$$$
