3TR
 OpenBabel04121316053D

 10 10  0  0  0  0  0  0  0  0999 V2000
    1.0451    0.0971   -0.0310 N   0  0  0  0  0  0  0  0  0  0  0  0
    2.3678    0.1337   -0.0360 C   0  0  0  0  0  0  0  0  0  0  0  0
    3.1157    1.2328   -0.0402 N   0  0  0  0  0  0  0  0  0  0  0  0
    4.3517    0.7134   -0.0456 N   0  0  0  0  0  0  0  0  0  0  0  0
    5.1531    1.3332   -0.0515 H   0  0  0  0  0  0  0  0  0  0  0  0
    4.3102   -0.6437   -0.0432 C   0  0  0  0  0  0  0  0  0  0  0  0
    3.0586   -1.0385   -0.0376 N   0  0  0  0  0  0  0  0  0  0  0  0
    0.5044    0.9484   -0.0357 H   0  0  0  0  0  0  0  0  0  0  0  0
    0.5521   -0.7829   -0.0362 H   0  0  0  0  0  0  0  0  0  0  0  0
    5.1906   -1.2694   -0.0461 H   0  0  0  0  0  0  0  0  0  0  0  0
  1  2  1  0  0  0  0
  1  8  1  0  0  0  0
  1  9  1  0  0  0  0
  2  3  2  0  0  0  0
  2  7  1  0  0  0  0
  3  4  1  0  0  0  0
  4  5  1  0  0  0  0
  4  6  1  0  0  0  0
  6  7  2  0  0  0  0
  6 10  1  0  0  0  0
M  END
$$$$
