3XB
 OpenBabel04121316053D

 56 58  0  0  1  0  0  0  0  0999 V2000
    0.8948    0.0283    0.0531 F   0  0  0  0  0  0  0  0  0  0  0  0
    2.2325    0.0174   -0.0109 C   0  0  0  0  0  0  0  0  0  0  0  0
    2.9227    1.2214   -0.0938 C   0  0  0  0  0  0  0  0  0  0  0  0
    4.3129    1.2145   -0.1766 C   0  0  0  0  0  0  0  0  0  0  0  0
    4.9947    0.0004   -0.2540 C   0  0  0  0  0  0  0  0  0  0  0  0
    4.2976   -1.2196   -0.1951 C   0  0  0  0  0  0  0  0  0  0  0  0
    2.9064   -1.1983   -0.0210 C   0  0  0  0  0  0  0  0  0  0  0  0
    5.0274   -2.5302   -0.4289 C   0  0  0  0  0  0  0  0  0  0  0  0
    5.6330   -2.5683   -1.8579 C   0  0  0  0  0  0  0  0  0  0  0  0
    4.6395   -2.4262   -2.9209 N   0  0  0  0  0  0  0  0  0  0  0  0
    5.2607   -2.4761   -4.2404 C   0  0  0  0  0  0  0  0  0  0  0  0
    4.0981   -2.4609   -5.1997 C   0  0  0  0  0  0  0  0  0  0  0  0
    4.5006   -2.2770   -6.5434 O   0  0  0  0  0  0  0  0  0  0  0  0
    3.4239   -2.0679   -7.4512 C   0  0  1  0  0  0  0  0  0  0  0  0
    3.8535   -2.2020   -8.4557 H   0  0  0  0  0  0  0  0  0  0  0  0
    2.2290   -3.0165   -7.3279 C   0  0  0  0  0  0  0  0  0  0  0  0
    1.1472   -2.3418   -8.0365 N   0  0  0  0  0  0  0  0  0  0  0  0
    1.3028   -0.9248   -7.7241 C   0  0  0  0  0  0  0  0  0  0  0  0
    2.7963   -0.6664   -7.4230 C   0  0  1  0  0  0  0  0  0  0  0  0
    3.2635   -0.1108   -8.2483 H   0  0  0  0  0  0  0  0  0  0  0  0
    2.9665    0.1542   -6.1236 C   0  0  0  0  0  0  0  0  0  0  0  0
    2.4401    1.5562   -6.1211 C   0  0  0  0  0  0  0  0  0  0  0  0
    1.9283    2.0731   -7.2842 C   0  0  0  0  0  0  0  0  0  0  0  0
    1.2558    3.2728   -7.2512 C   0  0  0  0  0  0  0  0  0  0  0  0
    0.6326    3.7435   -8.5159 C   0  0  0  0  0  0  0  0  0  0  0  0
    1.1999    3.9548   -6.0440 C   0  0  0  0  0  0  0  0  0  0  0  0
    1.7935    3.4128   -4.9141 C   0  0  0  0  0  0  0  0  0  0  0  0
    2.3962    2.2076   -4.9301 N   0  0  0  0  0  0  0  0  0  0  0  0
    1.6948    4.0630   -3.7011 N   0  0  0  0  0  0  0  0  0  0  0  0
    6.0502   -2.7133    0.4553 F   0  0  0  0  0  0  0  0  0  0  0  0
    4.2177   -3.6217   -0.2783 F   0  0  0  0  0  0  0  0  0  0  0  0
    2.3720    2.1560   -0.0957 H   0  0  0  0  0  0  0  0  0  0  0  0
    4.8660    2.1497   -0.2032 H   0  0  0  0  0  0  0  0  0  0  0  0
    6.0747    0.0090   -0.3940 H   0  0  0  0  0  0  0  0  0  0  0  0
    2.3375   -2.1208    0.0668 H   0  0  0  0  0  0  0  0  0  0  0  0
    6.1455   -3.5257   -1.9916 H   0  0  0  0  0  0  0  0  0  0  0  0
    6.3854   -1.7778   -1.9650 H   0  0  0  0  0  0  0  0  0  0  0  0
    4.1286   -1.5438   -2.8092 H   0  0  0  0  0  0  0  0  0  0  0  0
    5.8395   -3.3900   -4.3947 H   0  0  0  0  0  0  0  0  0  0  0  0
    5.9158   -1.6124   -4.4063 H   0  0  0  0  0  0  0  0  0  0  0  0
    3.4867   -1.6391   -4.8669 H   0  0  0  0  0  0  0  0  0  0  0  0
    3.4975   -3.3632   -5.0780 H   0  0  0  0  0  0  0  0  0  0  0  0
    1.9141   -3.1674   -6.2931 H   0  0  0  0  0  0  0  0  0  0  0  0
    2.4500   -3.9976   -7.7564 H   0  0  0  0  0  0  0  0  0  0  0  0
    0.2488   -2.6703   -7.6780 H   0  0  0  0  0  0  0  0  0  0  0  0
    0.6720   -0.6642   -6.8654 H   0  0  0  0  0  0  0  0  0  0  0  0
    0.9533   -0.3392   -8.5795 H   0  0  0  0  0  0  0  0  0  0  0  0
    2.3703   -0.3212   -5.3371 H   0  0  0  0  0  0  0  0  0  0  0  0
    4.0236    0.2076   -5.8393 H   0  0  0  0  0  0  0  0  0  0  0  0
    1.9900    1.5437   -8.2226 H   0  0  0  0  0  0  0  0  0  0  0  0
    0.7479    2.9928   -9.3102 H   0  0  0  0  0  0  0  0  0  0  0  0
    1.1293    4.6555   -8.8469 H   0  0  0  0  0  0  0  0  0  0  0  0
   -0.4387    3.8954   -8.3719 H   0  0  0  0  0  0  0  0  0  0  0  0
    0.7013    4.9170   -5.9904 H   0  0  0  0  0  0  0  0  0  0  0  0
    1.3973    5.0266   -3.6730 H   0  0  0  0  0  0  0  0  0  0  0  0
    2.2050    3.6643   -2.9312 H   0  0  0  0  0  0  0  0  0  0  0  0
  1  2  1  0  0  0  0
  2  3  2  0  0  0  0
  2  7  1  0  0  0  0
  3  4  1  0  0  0  0
  3 32  1  0  0  0  0
  4  5  2  0  0  0  0
  4 33  1  0  0  0  0
  5  6  1  0  0  0  0
  5 34  1  0  0  0  0
  6  7  2  0  0  0  0
  6  8  1  0  0  0  0
  7 35  1  0  0  0  0
  8  9  1  0  0  0  0
  8 30  1  0  0  0  0
  8 31  1  0  0  0  0
  9 10  1  0  0  0  0
  9 36  1  0  0  0  0
  9 37  1  0  0  0  0
 10 11  1  0  0  0  0
 10 38  1  0  0  0  0
 11 12  1  0  0  0  0
 11 39  1  0  0  0  0
 11 40  1  0  0  0  0
 12 13  1  0  0  0  0
 12 41  1  0  0  0  0
 12 42  1  0  0  0  0
 13 14  1  0  0  0  0
 14 15  1  6  0  0  0
 14 16  1  0  0  0  0
 14 19  1  0  0  0  0
 16 17  1  0  0  0  0
 16 43  1  0  0  0  0
 16 44  1  0  0  0  0
 17 18  1  0  0  0  0
 17 45  1  0  0  0  0
 18 19  1  0  0  0  0
 18 46  1  0  0  0  0
 18 47  1  0  0  0  0
 19 21  1  0  0  0  0
 19 20  1  6  0  0  0
 21 22  1  0  0  0  0
 21 48  1  0  0  0  0
 21 49  1  0  0  0  0
 22 23  2  0  0  0  0
 22 28  1  0  0  0  0
 23 24  1  0  0  0  0
 23 50  1  0  0  0  0
 24 25  1  0  0  0  0
 24 26  2  0  0  0  0
 25 51  1  0  0  0  0
 25 52  1  0  0  0  0
 25 53  1  0  0  0  0
 26 27  1  0  0  0  0
 26 54  1  0  0  0  0
 27 28  2  0  0  0  0
 27 29  1  0  0  0  0
 29 55  1  0  0  0  0
 29 56  1  0  0  0  0
M  END
$$$$
