3XC
 OpenBabel04121316053D

 56 58  0  0  1  0  0  0  0  0999 V2000
    1.2371   -0.2212    0.0000 F   0  0  0  0  0  0  0  0  0  0  0  0
    2.5274    0.0477   -0.1385 C   0  0  0  0  0  0  0  0  0  0  0  0
    2.9740    1.3199    0.2100 C   0  0  0  0  0  0  0  0  0  0  0  0
    4.2863    1.3682    0.5106 C   0  0  0  0  0  0  0  0  0  0  0  0
    4.9130    0.1684    0.7674 C   0  0  0  0  0  0  0  0  0  0  0  0
    4.8998   -0.7461   -0.2285 C   0  0  0  0  0  0  0  0  0  0  0  0
    3.5298   -0.9285   -0.5481 C   0  0  0  0  0  0  0  0  0  0  0  0
    6.3773   -0.4360   -0.7572 C   0  0  0  0  0  0  0  0  0  0  0  0
    6.6318    0.5278   -1.9318 C   0  0  0  0  0  0  0  0  0  0  0  0
    5.9738   -0.0026   -3.0836 N   0  0  0  0  0  0  0  0  0  0  0  0
    6.3182    0.6995   -4.2920 C   0  0  0  0  0  0  0  0  0  0  0  0
    5.7233   -0.2161   -5.3198 C   0  0  0  0  0  0  0  0  0  0  0  0
    5.7529    0.3957   -6.5880 O   0  0  0  0  0  0  0  0  0  0  0  0
    5.0178   -0.3182   -7.5615 C   0  0  1  0  0  0  0  0  0  0  0  0
    5.4949   -0.0751   -8.5210 H   0  0  0  0  0  0  0  0  0  0  0  0
    4.9859   -1.8383   -7.4329 C   0  0  0  0  0  0  0  0  0  0  0  0
    3.8825   -2.2469   -8.3020 N   0  0  0  0  0  0  0  0  0  0  0  0
    2.9383   -1.1087   -8.4208 C   0  0  0  0  0  0  0  0  0  0  0  0
    3.5355    0.0782   -7.6521 C   0  0  1  0  0  0  0  0  0  0  0  0
    3.4791    0.9635   -8.3016 H   0  0  0  0  0  0  0  0  0  0  0  0
    2.8250    0.4740   -6.2849 C   0  0  0  0  0  0  0  0  0  0  0  0
    2.0723   -0.5448   -5.3992 C   0  0  0  0  0  0  0  0  0  0  0  0
    1.8177   -1.8376   -5.8478 C   0  0  0  0  0  0  0  0  0  0  0  0
    0.8363   -2.6578   -5.3204 C   0  0  0  0  0  0  0  0  0  0  0  0
    0.4659   -3.8821   -6.1069 C   0  0  0  0  0  0  0  0  0  0  0  0
    0.3002   -2.2724   -4.1389 C   0  0  0  0  0  0  0  0  0  0  0  0
    0.7028   -1.0492   -3.5801 C   0  0  0  0  0  0  0  0  0  0  0  0
    1.5370   -0.1683   -4.2229 N   0  0  0  0  0  0  0  0  0  0  0  0
    0.0919   -0.6692   -2.3998 N   0  0  0  0  0  0  0  0  0  0  0  0
    7.0918    0.2538    0.2519 F   0  0  0  0  0  0  0  0  0  0  0  0
    7.1580   -1.5471   -0.9118 F   0  0  0  0  0  0  0  0  0  0  0  0
    2.3367    2.1912    0.2499 H   0  0  0  0  0  0  0  0  0  0  0  0
    4.8735    2.2113    0.1204 H   0  0  0  0  0  0  0  0  0  0  0  0
    5.0547   -0.2959    1.7269 H   0  0  0  0  0  0  0  0  0  0  0  0
    3.0649   -1.9373   -0.5338 H   0  0  0  0  0  0  0  0  0  0  0  0
    7.7214    0.6019   -2.0960 H   0  0  0  0  0  0  0  0  0  0  0  0
    6.3030    1.5572   -1.7308 H   0  0  0  0  0  0  0  0  0  0  0  0
    4.9637    0.0091   -2.9308 H   0  0  0  0  0  0  0  0  0  0  0  0
    7.3976    0.7757   -4.4647 H   0  0  0  0  0  0  0  0  0  0  0  0
    5.8893    1.7068   -4.3202 H   0  0  0  0  0  0  0  0  0  0  0  0
    4.7000   -0.4611   -5.0195 H   0  0  0  0  0  0  0  0  0  0  0  0
    6.2810   -1.1595   -5.3224 H   0  0  0  0  0  0  0  0  0  0  0  0
    4.7837   -2.1804   -6.4105 H   0  0  0  0  0  0  0  0  0  0  0  0
    5.9451   -2.2866   -7.7150 H   0  0  0  0  0  0  0  0  0  0  0  0
    3.4660   -3.0992   -7.9253 H   0  0  0  0  0  0  0  0  0  0  0  0
    1.9095   -1.2650   -8.0905 H   0  0  0  0  0  0  0  0  0  0  0  0
    2.7686   -0.9480   -9.4852 H   0  0  0  0  0  0  0  0  0  0  0  0
    3.5243    1.0362   -5.6514 H   0  0  0  0  0  0  0  0  0  0  0  0
    2.0949    1.2559   -6.5443 H   0  0  0  0  0  0  0  0  0  0  0  0
    2.3316   -2.2893   -6.6396 H   0  0  0  0  0  0  0  0  0  0  0  0
    0.9167   -3.8613   -7.1105 H   0  0  0  0  0  0  0  0  0  0  0  0
   -0.6149   -3.9238   -6.2714 H   0  0  0  0  0  0  0  0  0  0  0  0
    0.8247   -4.7818   -5.6075 H   0  0  0  0  0  0  0  0  0  0  0  0
   -0.4037   -2.9136   -3.6161 H   0  0  0  0  0  0  0  0  0  0  0  0
   -0.1655   -1.4284   -1.7794 H   0  0  0  0  0  0  0  0  0  0  0  0
    0.5723    0.0987   -1.9400 H   0  0  0  0  0  0  0  0  0  0  0  0
  1  2  1  0  0  0  0
  2  3  2  0  0  0  0
  2  7  1  0  0  0  0
  3  4  1  0  0  0  0
  3 32  1  0  0  0  0
  4  5  2  0  0  0  0
  4 33  1  0  0  0  0
  5  6  1  0  0  0  0
  5  8  1  0  0  0  0
  6  7  2  0  0  0  0
  6 34  1  0  0  0  0
  7 35  1  0  0  0  0
  8  9  1  0  0  0  0
  8 30  1  0  0  0  0
  8 31  1  0  0  0  0
  9 10  1  0  0  0  0
  9 36  1  0  0  0  0
  9 37  1  0  0  0  0
 10 11  1  0  0  0  0
 10 38  1  0  0  0  0
 11 12  1  0  0  0  0
 11 39  1  0  0  0  0
 11 40  1  0  0  0  0
 12 13  1  0  0  0  0
 12 41  1  0  0  0  0
 12 42  1  0  0  0  0
 13 14  1  0  0  0  0
 14 15  1  6  0  0  0
 14 16  1  0  0  0  0
 14 19  1  0  0  0  0
 16 17  1  0  0  0  0
 16 43  1  0  0  0  0
 16 44  1  0  0  0  0
 17 18  1  0  0  0  0
 17 45  1  0  0  0  0
 18 19  1  0  0  0  0
 18 46  1  0  0  0  0
 18 47  1  0  0  0  0
 19 21  1  0  0  0  0
 19 20  1  6  0  0  0
 21 22  1  0  0  0  0
 21 48  1  0  0  0  0
 21 49  1  0  0  0  0
 22 23  2  0  0  0  0
 22 28  1  0  0  0  0
 23 24  1  0  0  0  0
 23 50  1  0  0  0  0
 24 25  1  0  0  0  0
 24 26  2  0  0  0  0
 25 51  1  0  0  0  0
 25 52  1  0  0  0  0
 25 53  1  0  0  0  0
 26 27  1  0  0  0  0
 26 54  1  0  0  0  0
 27 28  2  0  0  0  0
 27 29  1  0  0  0  0
 29 55  1  0  0  0  0
 29 56  1  0  0  0  0
M  END
$$$$
