3XF
 OpenBabel04121316053D

 61 63  0  0  1  0  0  0  0  0999 V2000
    0.9278    0.0507    0.0597 C   0  0  0  0  0  0  0  0  0  0  0  0
    2.4129    0.0790   -0.1108 C   0  0  0  0  0  0  0  0  0  0  0  0
    3.1061    1.2826   -0.2569 C   0  0  0  0  0  0  0  0  0  0  0  0
    4.4763    1.2396   -0.4932 C   0  0  0  0  0  0  0  0  0  0  0  0
    5.3290    2.5122   -0.3734 C   0  0  0  0  0  0  0  0  0  0  0  0
    6.8211    2.2617    0.0292 C   0  0  1  0  0  0  0  0  0  0  0  0
    7.3806    2.2786   -0.9182 H   0  0  0  0  0  0  0  0  0  0  0  0
    7.4985    3.2961    0.9446 C   0  0  0  0  0  0  0  0  0  0  0  0
    8.7789    2.6617    1.3053 N   0  0  0  0  0  0  0  0  0  0  0  0
    8.5131    1.2300    1.4730 C   0  0  0  0  0  0  0  0  0  0  0  0
    7.1884    0.9507    0.7784 C   0  0  1  0  0  0  0  0  0  0  0  0
    7.3676    0.1633    0.0358 H   0  0  0  0  0  0  0  0  0  0  0  0
    6.2820    0.4242    1.7629 O   0  0  0  0  0  0  0  0  0  0  0  0
    5.5202    1.3662    2.4796 C   0  0  0  0  0  0  0  0  0  0  0  0
    4.2699    0.7638    3.0757 C   0  0  0  0  0  0  0  0  0  0  0  0
    3.4224    1.8956    3.4432 N   0  0  0  0  0  0  0  0  0  0  0  0
    2.2557    1.4125    4.1607 C   0  0  0  0  0  0  0  0  0  0  0  0
    1.4012    2.5581    4.6642 C   0  0  0  0  0  0  0  0  0  0  0  0
    2.2010    3.5855    5.5423 C   0  0  1  0  0  0  0  0  0  0  0  0
    3.1715    3.1410    5.8052 H   0  0  0  0  0  0  0  0  0  0  0  0
    2.5016    4.9032    4.8001 C   0  0  0  0  0  0  0  0  0  0  0  0
    1.2234    5.7091    4.5746 C   0  0  0  0  0  0  0  0  0  0  0  0
    0.4871    5.9037    5.8960 C   0  0  0  0  0  0  0  0  0  0  0  0
    0.2867    4.5862    6.6406 C   0  0  0  0  0  0  0  0  0  0  0  0
    1.5618    3.8964    6.8479 N   0  0  0  0  0  0  0  0  0  0  0  0
    0.8190    3.1462    3.5850 F   0  0  0  0  0  0  0  0  0  0  0  0
    0.3842    1.9990    5.3808 F   0  0  0  0  0  0  0  0  0  0  0  0
    5.1168    0.0450   -0.6187 N   0  0  0  0  0  0  0  0  0  0  0  0
    4.4900   -1.0936   -0.2833 C   0  0  0  0  0  0  0  0  0  0  0  0
    3.1201   -1.1276   -0.0801 C   0  0  0  0  0  0  0  0  0  0  0  0
    5.2528   -2.1889    0.1021 N   0  0  0  0  0  0  0  0  0  0  0  0
    0.5184    1.0640    0.0957 H   0  0  0  0  0  0  0  0  0  0  0  0
    0.6469   -0.4679    0.9812 H   0  0  0  0  0  0  0  0  0  0  0  0
    0.4895   -0.4664   -0.7990 H   0  0  0  0  0  0  0  0  0  0  0  0
    2.5967    2.2319   -0.1167 H   0  0  0  0  0  0  0  0  0  0  0  0
    4.8685    3.2074    0.3488 H   0  0  0  0  0  0  0  0  0  0  0  0
    5.2628    3.0812   -1.3080 H   0  0  0  0  0  0  0  0  0  0  0  0
    6.9288    3.5020    1.8565 H   0  0  0  0  0  0  0  0  0  0  0  0
    7.6808    4.2538    0.4512 H   0  0  0  0  0  0  0  0  0  0  0  0
    9.1446    3.0340    2.1804 H   0  0  0  0  0  0  0  0  0  0  0  0
    8.4617    0.9527    2.5319 H   0  0  0  0  0  0  0  0  0  0  0  0
    9.3145    0.6383    1.0162 H   0  0  0  0  0  0  0  0  0  0  0  0
    5.1299    2.1152    1.8188 H   0  0  0  0  0  0  0  0  0  0  0  0
    6.1238    1.9035    3.2117 H   0  0  0  0  0  0  0  0  0  0  0  0
    4.5303    0.1414    3.9337 H   0  0  0  0  0  0  0  0  0  0  0  0
    3.7387    0.1295    2.3629 H   0  0  0  0  0  0  0  0  0  0  0  0
    3.1144    2.3969    2.6035 H   0  0  0  0  0  0  0  0  0  0  0  0
    2.5649    0.8023    5.0143 H   0  0  0  0  0  0  0  0  0  0  0  0
    1.6439    0.7916    3.4969 H   0  0  0  0  0  0  0  0  0  0  0  0
    3.0086    4.7146    3.8470 H   0  0  0  0  0  0  0  0  0  0  0  0
    3.1967    5.5100    5.3992 H   0  0  0  0  0  0  0  0  0  0  0  0
    0.5572    5.1997    3.8728 H   0  0  0  0  0  0  0  0  0  0  0  0
    1.4561    6.6726    4.1112 H   0  0  0  0  0  0  0  0  0  0  0  0
   -0.4878    6.3620    5.7036 H   0  0  0  0  0  0  0  0  0  0  0  0
    1.0601    6.5934    6.5258 H   0  0  0  0  0  0  0  0  0  0  0  0
   -0.4184    3.9529    6.0916 H   0  0  0  0  0  0  0  0  0  0  0  0
   -0.1692    4.7756    7.6167 H   0  0  0  0  0  0  0  0  0  0  0  0
    1.3739    3.0102    7.3222 H   0  0  0  0  0  0  0  0  0  0  0  0
    2.6347   -2.0615    0.1614 H   0  0  0  0  0  0  0  0  0  0  0  0
    6.2455   -2.0373   -0.0635 H   0  0  0  0  0  0  0  0  0  0  0  0
    4.9039   -3.1067   -0.1105 H   0  0  0  0  0  0  0  0  0  0  0  0
  1  2  1  0  0  0  0
  1 32  1  0  0  0  0
  1 33  1  0  0  0  0
  1 34  1  0  0  0  0
  2  3  2  0  0  0  0
  2 30  1  0  0  0  0
  3  4  1  0  0  0  0
  3 35  1  0  0  0  0
  4  5  1  0  0  0  0
  4 28  2  0  0  0  0
  5  6  1  0  0  0  0
  5 36  1  0  0  0  0
  5 37  1  0  0  0  0
  6  7  1  6  0  0  0
  6  8  1  0  0  0  0
  6 11  1  0  0  0  0
  8  9  1  0  0  0  0
  8 38  1  0  0  0  0
  8 39  1  0  0  0  0
  9 10  1  0  0  0  0
  9 40  1  0  0  0  0
 10 11  1  0  0  0  0
 10 41  1  0  0  0  0
 10 42  1  0  0  0  0
 11 13  1  0  0  0  0
 11 12  1  6  0  0  0
 13 14  1  0  0  0  0
 14 15  1  0  0  0  0
 14 43  1  0  0  0  0
 14 44  1  0  0  0  0
 15 16  1  0  0  0  0
 15 45  1  0  0  0  0
 15 46  1  0  0  0  0
 16 17  1  0  0  0  0
 16 47  1  0  0  0  0
 17 18  1  0  0  0  0
 17 48  1  0  0  0  0
 17 49  1  0  0  0  0
 18 19  1  0  0  0  0
 18 26  1  0  0  0  0
 18 27  1  0  0  0  0
 19 20  1  1  0  0  0
 19 21  1  0  0  0  0
 19 25  1  0  0  0  0
 21 22  1  0  0  0  0
 21 50  1  0  0  0  0
 21 51  1  0  0  0  0
 22 23  1  0  0  0  0
 22 52  1  0  0  0  0
 22 53  1  0  0  0  0
 23 24  1  0  0  0  0
 23 54  1  0  0  0  0
 23 55  1  0  0  0  0
 24 25  1  0  0  0  0
 24 56  1  0  0  0  0
 24 57  1  0  0  0  0
 25 58  1  0  0  0  0
 28 29  1  0  0  0  0
 29 30  2  0  0  0  0
 29 31  1  0  0  0  0
 30 59  1  0  0  0  0
 31 60  1  0  0  0  0
 31 61  1  0  0  0  0
M  END
$$$$
