3XH
 OpenBabel04121316053D

 23 23  0  0  0  0  0  0  0  0999 V2000
    0.9574    0.0414    0.0723 O   0  0  0  0  0  0  0  0  0  0  0  0
    2.3081   -0.0275    0.1116 C   0  0  0  0  0  0  0  0  0  0  0  0
    2.8986   -0.9956    0.5660 O   0  0  0  0  0  0  0  0  0  0  0  0
    3.0108    1.2003   -0.4531 C   0  0  0  0  0  0  0  0  0  0  0  0
    4.4437    0.9973   -0.3631 N   0  0  0  0  0  0  0  0  0  0  0  0
    5.3309    1.9586   -0.7757 C   0  0  0  0  0  0  0  0  0  0  0  0
    4.9621    3.0353   -1.2329 O   0  0  0  0  0  0  0  0  0  0  0  0
    6.7824    1.6419   -0.6567 C   0  0  0  0  0  0  0  0  0  0  0  0
    7.6948    2.7062   -0.6785 C   0  0  0  0  0  0  0  0  0  0  0  0
    9.0689    2.4578   -0.6558 C   0  0  0  0  0  0  0  0  0  0  0  0
    9.5388    1.1469   -0.7248 C   0  0  0  0  0  0  0  0  0  0  0  0
    8.6292    0.0951   -0.6992 C   0  0  0  0  0  0  0  0  0  0  0  0
    7.2613    0.3285   -0.6011 C   0  0  0  0  0  0  0  0  0  0  0  0
    9.0384   -1.2023   -0.7971 O   0  0  0  0  0  0  0  0  0  0  0  0
    0.5985    0.8618   -0.3153 H   0  0  0  0  0  0  0  0  0  0  0  0
    2.7472    2.0885    0.1280 H   0  0  0  0  0  0  0  0  0  0  0  0
    2.7466    1.3375   -1.5058 H   0  0  0  0  0  0  0  0  0  0  0  0
    4.7517    0.1365    0.0777 H   0  0  0  0  0  0  0  0  0  0  0  0
    7.3349    3.7329   -0.7204 H   0  0  0  0  0  0  0  0  0  0  0  0
    9.7685    3.2883   -0.6086 H   0  0  0  0  0  0  0  0  0  0  0  0
   10.6067    0.9667   -0.7975 H   0  0  0  0  0  0  0  0  0  0  0  0
    6.5993   -0.5275   -0.5341 H   0  0  0  0  0  0  0  0  0  0  0  0
    9.9862   -1.2176   -1.0105 H   0  0  0  0  0  0  0  0  0  0  0  0
  1  2  1  0  0  0  0
  1 15  1  0  0  0  0
  2  3  2  0  0  0  0
  2  4  1  0  0  0  0
  4  5  1  0  0  0  0
  4 16  1  0  0  0  0
  4 17  1  0  0  0  0
  5  6  1  0  0  0  0
  5 18  1  0  0  0  0
  6  7  2  0  0  0  0
  6  8  1  0  0  0  0
  8  9  2  0  0  0  0
  8 13  1  0  0  0  0
  9 10  1  0  0  0  0
  9 19  1  0  0  0  0
 10 11  2  0  0  0  0
 10 20  1  0  0  0  0
 11 12  1  0  0  0  0
 11 21  1  0  0  0  0
 12 13  2  0  0  0  0
 12 14  1  0  0  0  0
 13 22  1  0  0  0  0
 14 23  1  0  0  0  0
M  END
$$$$
