3YY
 OpenBabel04121316053D

 38 41  0  0  1  0  0  0  0  0999 V2000
    1.2236    0.0966    0.1988 O   0  0  0  0  0  0  0  0  0  0  0  0
    2.4322    0.1082   -0.0022 C   0  0  0  0  0  0  0  0  0  0  0  0
    3.2384    1.1761   -0.0632 N   0  0  0  0  0  0  0  0  0  0  0  0
    4.2933    0.8421   -0.8584 C   0  0  0  0  0  0  0  0  0  0  0  0
    4.9897    1.6326   -1.4775 O   0  0  0  0  0  0  0  0  0  0  0  0
    4.4771   -0.6837   -0.8067 C   0  0  2  0  0  0  0  0  0  0  0  0
    4.6233   -1.1348   -1.7913 H   0  0  0  0  0  0  0  0  0  0  0  0
    3.1544   -0.9958   -0.3251 N   0  0  0  0  0  0  0  0  0  0  0  0
    5.5857   -1.0164    0.1430 C   0  0  0  0  0  0  0  0  0  0  0  0
    6.8462   -0.4451    0.1267 C   0  0  0  0  0  0  0  0  0  0  0  0
    7.5570   -0.9368    1.1929 N   0  0  0  0  0  0  0  0  0  0  0  0
    6.8167   -1.8218    1.8956 N   0  0  0  0  0  0  0  0  0  0  0  0
    5.6448   -1.9109    1.2479 C   0  0  0  0  0  0  0  0  0  0  0  0
    4.5939   -2.7935    1.7389 C   0  0  0  0  0  0  0  0  0  0  0  0
    4.3627   -2.8961    3.1121 C   0  0  0  0  0  0  0  0  0  0  0  0
    3.3393   -3.7157    3.5797 C   0  0  0  0  0  0  0  0  0  0  0  0
    2.4435   -4.2754    2.6761 C   0  0  0  0  0  0  0  0  0  0  0  0
    2.5932   -4.0878    1.3123 C   0  0  0  0  0  0  0  0  0  0  0  0
    3.7541   -3.4786    0.8492 C   0  0  0  0  0  0  0  0  0  0  0  0
    1.4326   -5.0286    3.1232 F   0  0  0  0  0  0  0  0  0  0  0  0
    8.9049   -0.6469    1.5392 C   0  0  0  0  0  0  0  0  0  0  0  0
    9.7074    0.1247    0.6869 C   0  0  0  0  0  0  0  0  0  0  0  0
   11.0774    0.2287    0.9251 C   0  0  0  0  0  0  0  0  0  0  0  0
   11.6255   -0.3109    2.0852 C   0  0  0  0  0  0  0  0  0  0  0  0
   10.8032   -0.9487    3.0127 C   0  0  0  0  0  0  0  0  0  0  0  0
    9.4569   -1.1726    2.7155 C   0  0  0  0  0  0  0  0  0  0  0  0
    2.9141    2.1118    0.0975 H   0  0  0  0  0  0  0  0  0  0  0  0
    2.6697   -1.8792   -0.3413 H   0  0  0  0  0  0  0  0  0  0  0  0
    7.2602    0.2981   -0.5387 H   0  0  0  0  0  0  0  0  0  0  0  0
    4.9819   -2.3386    3.8117 H   0  0  0  0  0  0  0  0  0  0  0  0
    3.2237   -3.8967    4.6412 H   0  0  0  0  0  0  0  0  0  0  0  0
    1.8166   -4.4135    0.6274 H   0  0  0  0  0  0  0  0  0  0  0  0
    3.9448   -3.4556   -0.2217 H   0  0  0  0  0  0  0  0  0  0  0  0
    9.3099    0.6283   -0.1879 H   0  0  0  0  0  0  0  0  0  0  0  0
   11.7150    0.7299    0.2013 H   0  0  0  0  0  0  0  0  0  0  0  0
   12.6933   -0.2274    2.2683 H   0  0  0  0  0  0  0  0  0  0  0  0
   11.2155   -1.2897    3.9589 H   0  0  0  0  0  0  0  0  0  0  0  0
    8.8528   -1.7558    3.4082 H   0  0  0  0  0  0  0  0  0  0  0  0
  1  2  2  0  0  0  0
  2  3  1  0  0  0  0
  2  8  1  0  0  0  0
  3  4  1  0  0  0  0
  3 27  1  0  0  0  0
  4  5  2  0  0  0  0
  4  6  1  0  0  0  0
  6  8  1  0  0  0  0
  6  9  1  0  0  0  0
  6  7  1  6  0  0  0
  8 28  1  0  0  0  0
  9 10  2  0  0  0  0
  9 13  1  0  0  0  0
 10 11  1  0  0  0  0
 10 29  1  0  0  0  0
 11 12  1  0  0  0  0
 11 21  1  0  0  0  0
 12 13  2  0  0  0  0
 13 14  1  0  0  0  0
 14 15  2  0  0  0  0
 14 19  1  0  0  0  0
 15 16  1  0  0  0  0
 15 30  1  0  0  0  0
 16 17  2  0  0  0  0
 16 31  1  0  0  0  0
 17 18  1  0  0  0  0
 17 20  1  0  0  0  0
 18 19  2  0  0  0  0
 18 32  1  0  0  0  0
 19 33  1  0  0  0  0
 21 22  2  0  0  0  0
 21 26  1  0  0  0  0
 22 23  1  0  0  0  0
 22 34  1  0  0  0  0
 23 24  2  0  0  0  0
 23 35  1  0  0  0  0
 24 25  1  0  0  0  0
 24 36  1  0  0  0  0
 25 26  2  0  0  0  0
 25 37  1  0  0  0  0
 26 38  1  0  0  0  0
M  END
$$$$
