412
 OpenBabel04121316053D

 37 38  0  0  1  0  0  0  0  0999 V2000
    2.2690   -0.4769   -3.6041 O   0  0  0  0  0  0  0  0  0  0  0  0
    2.1159    0.3200   -2.4387 C   0  0  0  0  0  0  0  0  0  0  0  0
    2.9025   -0.4537   -1.3932 C   0  0  2  0  0  0  0  0  0  0  0  0
    2.5459   -0.0814   -0.4557 H   0  0  0  0  0  0  0  0  0  0  0  0
    4.4227   -0.2527   -1.6087 C   0  0  0  0  0  0  0  0  0  0  0  0
    4.7608   -1.3326   -2.6707 O   0  0  0  0  0  0  0  0  0  0  0  0
    3.8885   -2.5417   -2.2728 B   0  0  0  0  0  0  0  0  0  0  0  0
    2.7071   -1.9825   -1.4606 O   0  0  0  0  0  0  0  0  0  0  0  0
    4.1458   -3.9999   -2.6161 C   0  0  0  0  0  0  0  0  0  0  0  0
    4.4078   -4.4005   -3.9559 C   0  0  0  0  0  0  0  0  0  0  0  0
    4.2808   -5.7543   -4.3077 C   0  0  0  0  0  0  0  0  0  0  0  0
    4.1970   -6.6624   -3.3804 C   0  0  0  0  0  0  0  0  0  0  0  0
    4.2438   -6.2933   -2.0295 C   0  0  0  0  0  0  0  0  0  0  0  0
    4.0661   -4.9356   -1.6685 C   0  0  0  0  0  0  0  0  0  0  0  0
    4.0516   -8.0894   -3.7532 C   0  0  0  0  0  0  0  0  0  0  0  0
    3.9763   -8.9369   -2.4936 C   0  0  0  0  0  0  0  0  0  0  0  0
    3.8356  -10.3182   -2.8544 N   0  0  0  0  0  0  0  0  0  0  0  0
    3.7455  -11.2940   -1.8595 C   0  0  0  0  0  0  0  0  0  0  0  0
    3.7881  -10.9584   -0.6345 N   0  0  0  0  0  0  0  0  0  0  0  0
    3.6086  -12.6387   -2.2107 N   0  0  0  0  0  0  0  0  0  0  0  0
    1.7958   -0.0633   -4.3430 H   0  0  0  0  0  0  0  0  0  0  0  0
    1.0857    0.4033   -2.1618 H   0  0  0  0  0  0  0  0  0  0  0  0
    2.4580    1.3257   -2.5664 H   0  0  0  0  0  0  0  0  0  0  0  0
    4.9664   -0.4190   -0.7023 H   0  0  0  0  0  0  0  0  0  0  0  0
    4.6813    0.7397   -1.9141 H   0  0  0  0  0  0  0  0  0  0  0  0
    4.6886   -3.7028   -4.6627 H   0  0  0  0  0  0  0  0  0  0  0  0
    4.2540   -6.0285   -5.3022 H   0  0  0  0  0  0  0  0  0  0  0  0
    4.4070   -7.0068   -1.3019 H   0  0  0  0  0  0  0  0  0  0  0  0
    3.8780   -4.6741   -0.6880 H   0  0  0  0  0  0  0  0  0  0  0  0
    4.8950   -8.3931   -4.3375 H   0  0  0  0  0  0  0  0  0  0  0  0
    3.1564   -8.2194   -4.3246 H   0  0  0  0  0  0  0  0  0  0  0  0
    3.1329   -8.6332   -1.9093 H   0  0  0  0  0  0  0  0  0  0  0  0
    4.8715   -8.8069   -1.9222 H   0  0  0  0  0  0  0  0  0  0  0  0
    3.8026  -10.5782   -3.8033 H   0  0  0  0  0  0  0  0  0  0  0  0
    3.8847  -10.0104   -0.3869 H   0  0  0  0  0  0  0  0  0  0  0  0
    3.5756  -12.8987   -3.1597 H   0  0  0  0  0  0  0  0  0  0  0  0
    3.5451  -13.3266   -1.5093 H   0  0  0  0  0  0  0  0  0  0  0  0
  1  2  1  0  0  0  0
  1 21  1  0  0  0  0
  2 22  1  0  0  0  0
  2 23  1  0  0  0  0
  3  5  1  0  0  0  0
  3  8  1  0  0  0  0
  3  4  1  1  0  0  0
  3  2  1  0  0  0  0
  5  6  1  0  0  0  0
  5 24  1  0  0  0  0
  5 25  1  0  0  0  0
  6  7  1  0  0  0  0
  7  8  1  0  0  0  0
  7  9  1  0  0  0  0
  9 10  2  0  0  0  0
  9 14  1  0  0  0  0
 10 11  1  0  0  0  0
 10 26  1  0  0  0  0
 11 12  2  0  0  0  0
 11 27  1  0  0  0  0
 12 13  1  0  0  0  0
 12 15  1  0  0  0  0
 13 14  2  0  0  0  0
 13 28  1  0  0  0  0
 14 29  1  0  0  0  0
 15 16  1  0  0  0  0
 15 30  1  0  0  0  0
 15 31  1  0  0  0  0
 16 17  1  0  0  0  0
 16 32  1  0  0  0  0
 16 33  1  0  0  0  0
 17 18  1  0  0  0  0
 17 34  1  0  0  0  0
 18 19  2  0  0  0  0
 18 20  1  0  0  0  0
 19 35  1  0  0  0  0
 20 36  1  0  0  0  0
 20 37  1  0  0  0  0
M  END
$$$$
