413
 OpenBabel04121316053D

 70 73  0  0  1  0  0  0  0  0999 V2000
    9.4628   -4.2497    6.8153 C   0  0  0  0  0  0  0  0  0  0  0  0
    8.9485   -3.1768    6.0399 O   0  0  0  0  0  0  0  0  0  0  0  0
    7.6351   -3.2111    5.6145 C   0  0  0  0  0  0  0  0  0  0  0  0
    7.5398   -2.9801    4.2442 C   0  0  0  0  0  0  0  0  0  0  0  0
    6.3648   -2.5080    3.6157 C   0  0  0  0  0  0  0  0  0  0  0  0
    5.1823   -2.5932    4.3317 C   0  0  0  0  0  0  0  0  0  0  0  0
    5.2134   -3.0577    5.6351 C   0  0  0  0  0  0  0  0  0  0  0  0
    6.4266   -3.2452    6.3190 C   0  0  0  0  0  0  0  0  0  0  0  0
    6.1689   -3.3792    7.6563 O   0  0  0  0  0  0  0  0  0  0  0  0
    7.3283   -3.6122    8.4032 C   0  0  0  0  0  0  0  0  0  0  0  0
    7.2002   -3.8188    9.8613 C   0  0  0  0  0  0  0  0  0  0  0  0
    5.9321   -3.7720   10.4017 C   0  0  0  0  0  0  0  0  0  0  0  0
    5.7982   -3.8196   11.7654 C   0  0  0  0  0  0  0  0  0  0  0  0
    6.9140   -4.0775   12.5644 C   0  0  0  0  0  0  0  0  0  0  0  0
    8.1740   -4.2917   12.0039 C   0  0  0  0  0  0  0  0  0  0  0  0
    8.3370   -4.0978   10.6450 C   0  0  0  0  0  0  0  0  0  0  0  0
    6.3327   -1.7692    2.2761 C   0  0  2  0  0  0  0  0  0  0  0  0
    5.3058   -1.8234    1.8893 H   0  0  0  0  0  0  0  0  0  0  0  0
    7.1520   -2.3937    1.1257 C   0  0  0  0  0  0  0  0  0  0  0  0
    7.6601   -1.7234    0.2350 O   0  0  0  0  0  0  0  0  0  0  0  0
    7.2736   -3.7697    1.1536 N   0  0  0  0  0  0  0  0  0  0  0  0
    8.2516   -4.4868    0.3377 C   0  0  1  0  0  0  0  0  0  0  0  0
    8.2171   -4.0624   -0.6738 H   0  0  0  0  0  0  0  0  0  0  0  0
    9.6677   -4.3359    0.9047 C   0  0  0  0  0  0  0  0  0  0  0  0
   10.2394   -3.0618    1.0753 C   0  0  0  0  0  0  0  0  0  0  0  0
   11.5536   -2.8681    1.4879 C   0  0  0  0  0  0  0  0  0  0  0  0
   12.3420   -3.9656    1.7668 C   0  0  0  0  0  0  0  0  0  0  0  0
   11.7914   -5.2401    1.6802 C   0  0  0  0  0  0  0  0  0  0  0  0
   10.4786   -5.4261    1.2368 C   0  0  0  0  0  0  0  0  0  0  0  0
    7.7789   -5.9513    0.2185 C   0  0  0  0  0  0  0  0  0  0  0  0
    6.8084   -6.4092    0.8425 O   0  0  0  0  0  0  0  0  0  0  0  0
    8.5028   -6.7329   -0.6158 O   0  0  0  0  0  0  0  0  0  0  0  0
    6.6180   -0.3229    2.5085 N   0  0  0  0  0  0  0  0  0  0  0  0
    7.8707    0.1743    2.8410 C   0  0  0  0  0  0  0  0  0  0  0  0
    8.0960    1.5211    3.0736 C   0  0  0  0  0  0  0  0  0  0  0  0
    9.3896    1.9846    3.3928 C   0  0  0  0  0  0  0  0  0  0  0  0
   10.4403    1.0915    3.6558 C   0  0  0  0  0  0  0  0  0  0  0  0
   10.1698   -0.2536    3.6085 C   0  0  0  0  0  0  0  0  0  0  0  0
    8.9540   -0.6486    3.0918 C   0  0  0  0  0  0  0  0  0  0  0  0
   11.8520    1.5069    3.8907 C   0  0  0  0  0  0  0  0  0  0  0  0
   12.2328    2.7437    3.8574 N   0  0  0  0  0  0  0  0  0  0  0  0
   12.8303    0.5888    4.1140 N   0  0  0  0  0  0  0  0  0  0  0  0
   10.5490   -4.3379    6.7698 H   0  0  0  0  0  0  0  0  0  0  0  0
    8.9758   -5.1987    6.5749 H   0  0  0  0  0  0  0  0  0  0  0  0
    9.3919   -3.9928    7.8659 H   0  0  0  0  0  0  0  0  0  0  0  0
    8.4670   -3.1250    3.7059 H   0  0  0  0  0  0  0  0  0  0  0  0
    4.2407   -2.2718    3.8964 H   0  0  0  0  0  0  0  0  0  0  0  0
    4.2770   -3.2015    6.1651 H   0  0  0  0  0  0  0  0  0  0  0  0
    7.9814   -2.7378    8.2900 H   0  0  0  0  0  0  0  0  0  0  0  0
    7.6426   -4.6076    8.0966 H   0  0  0  0  0  0  0  0  0  0  0  0
    5.0748   -3.6686    9.7433 H   0  0  0  0  0  0  0  0  0  0  0  0
    4.8149   -3.6520   12.1830 H   0  0  0  0  0  0  0  0  0  0  0  0
    6.7896   -4.1154   13.6386 H   0  0  0  0  0  0  0  0  0  0  0  0
    9.0167   -4.5862   12.6234 H   0  0  0  0  0  0  0  0  0  0  0  0
    9.3336   -4.1745   10.2072 H   0  0  0  0  0  0  0  0  0  0  0  0
    6.6022   -4.3336    1.6711 H   0  0  0  0  0  0  0  0  0  0  0  0
    9.6829   -2.1516    0.8961 H   0  0  0  0  0  0  0  0  0  0  0  0
   11.9369   -1.8540    1.5750 H   0  0  0  0  0  0  0  0  0  0  0  0
   13.3790   -3.8249    2.0504 H   0  0  0  0  0  0  0  0  0  0  0  0
   12.3851   -6.1060    1.9551 H   0  0  0  0  0  0  0  0  0  0  0  0
   10.1301   -6.4523    1.1562 H   0  0  0  0  0  0  0  0  0  0  0  0
    9.2878   -6.2915   -1.0036 H   0  0  0  0  0  0  0  0  0  0  0  0
    6.0576    0.3090    1.9467 H   0  0  0  0  0  0  0  0  0  0  0  0
    7.2845    2.2357    2.9799 H   0  0  0  0  0  0  0  0  0  0  0  0
    9.5397    3.0552    3.4253 H   0  0  0  0  0  0  0  0  0  0  0  0
   10.8688   -1.0360    3.8759 H   0  0  0  0  0  0  0  0  0  0  0  0
    8.9132   -1.6752    2.8202 H   0  0  0  0  0  0  0  0  0  0  0  0
   11.4514    3.3672    3.6581 H   0  0  0  0  0  0  0  0  0  0  0  0
   12.6962   -0.4092    4.1295 H   0  0  0  0  0  0  0  0  0  0  0  0
   13.7682    0.9410    4.2426 H   0  0  0  0  0  0  0  0  0  0  0  0
  1  2  1  0  0  0  0
  1 43  1  0  0  0  0
  1 44  1  0  0  0  0
  1 45  1  0  0  0  0
  2  3  1  0  0  0  0
  3  4  2  0  0  0  0
  3  8  1  0  0  0  0
  4  5  1  0  0  0  0
  4 46  1  0  0  0  0
  5  6  2  0  0  0  0
  6  7  1  0  0  0  0
  6 47  1  0  0  0  0
  7  8  2  0  0  0  0
  7 48  1  0  0  0  0
  8  9  1  0  0  0  0
  9 10  1  0  0  0  0
 10 11  1  0  0  0  0
 10 49  1  0  0  0  0
 10 50  1  0  0  0  0
 11 12  2  0  0  0  0
 11 16  1  0  0  0  0
 12 13  1  0  0  0  0
 12 51  1  0  0  0  0
 13 14  2  0  0  0  0
 13 52  1  0  0  0  0
 14 15  1  0  0  0  0
 14 53  1  0  0  0  0
 15 16  2  0  0  0  0
 15 54  1  0  0  0  0
 16 55  1  0  0  0  0
 17 19  1  0  0  0  0
 17 33  1  0  0  0  0
 17 18  1  6  0  0  0
 17  5  1  0  0  0  0
 19 20  2  0  0  0  0
 19 21  1  0  0  0  0
 21 22  1  0  0  0  0
 21 56  1  0  0  0  0
 22 23  1  6  0  0  0
 22 24  1  0  0  0  0
 22 30  1  0  0  0  0
 24 25  2  0  0  0  0
 24 29  1  0  0  0  0
 25 26  1  0  0  0  0
 25 57  1  0  0  0  0
 26 27  2  0  0  0  0
 26 58  1  0  0  0  0
 27 28  1  0  0  0  0
 27 59  1  0  0  0  0
 28 29  2  0  0  0  0
 28 60  1  0  0  0  0
 29 61  1  0  0  0  0
 30 31  2  0  0  0  0
 30 32  1  0  0  0  0
 32 62  1  0  0  0  0
 33 34  1  0  0  0  0
 33 63  1  0  0  0  0
 34 35  2  0  0  0  0
 34 39  1  0  0  0  0
 35 36  1  0  0  0  0
 35 64  1  0  0  0  0
 36 37  2  0  0  0  0
 36 65  1  0  0  0  0
 37 38  1  0  0  0  0
 37 40  1  0  0  0  0
 38 39  2  0  0  0  0
 38 66  1  0  0  0  0
 39 67  1  0  0  0  0
 40 41  2  0  0  0  0
 40 42  1  0  0  0  0
 41 68  1  0  0  0  0
 42 69  1  0  0  0  0
 42 70  1  0  0  0  0
M  END
$$$$
