414
 OpenBabel04121316053D

 67 69  0  0  1  0  0  0  0  0999 V2000
    1.4460    0.6869   -2.4528 N   0  0  0  0  0  0  0  0  0  0  0  0
    2.6516    0.1196   -2.2349 C   0  0  0  0  0  0  0  0  0  0  0  0
    3.0411   -0.4204   -1.1323 N   0  0  0  0  0  0  0  0  0  0  0  0
    3.4623    0.1950   -3.3164 N   0  0  0  0  0  0  0  0  0  0  0  0
    4.7721   -0.2878   -3.2419 C   0  0  0  0  0  0  0  0  0  0  0  0
    5.8637    0.5745   -3.2486 C   0  0  0  0  0  0  0  0  0  0  0  0
    7.1444    0.0643   -3.1605 C   0  0  0  0  0  0  0  0  0  0  0  0
    7.3259   -1.3034   -3.1939 C   0  0  0  0  0  0  0  0  0  0  0  0
    6.2576   -2.1883   -3.0547 C   0  0  0  0  0  0  0  0  0  0  0  0
    4.9773   -1.6498   -3.0208 C   0  0  0  0  0  0  0  0  0  0  0  0
    6.4844   -3.6817   -3.0279 C   0  0  1  0  0  0  0  0  0  0  0  0
    6.8964   -3.9024   -4.0277 H   0  0  0  0  0  0  0  0  0  0  0  0
    7.7730   -4.0312   -1.9067 C   0  0  0  0  0  0  0  0  0  0  0  0
    7.7246   -4.6202   -0.8338 O   0  0  0  0  0  0  0  0  0  0  0  0
    9.0041   -3.5576   -2.1946 O   0  0  0  0  0  0  0  0  0  0  0  0
    5.1072   -4.3375   -3.0470 O   0  0  0  0  0  0  0  0  0  0  0  0
    5.2825   -6.0551   -3.1578 P   0  0  1  0  0  0  0  0  0  0  0  0
    6.7653   -5.9958   -3.5548 O   0  0  0  0  0  0  0  0  0  0  0  0
    5.1816   -5.5988   -1.2220 C   0  0  2  0  0  0  0  0  0  0  0  0
    5.9328   -4.8720   -1.1408 H   0  0  0  0  0  0  0  0  0  0  0  0
    5.5067   -6.5490   -0.1289 C   0  0  0  0  0  0  0  0  0  0  0  0
    4.1987   -7.2711    0.0531 C   0  0  0  0  0  0  0  0  0  0  0  0
    3.8798   -8.0505   -1.2086 C   0  0  0  0  0  0  0  0  0  0  0  0
    5.0205   -9.0675   -1.4608 C   0  0  0  0  0  0  0  0  0  0  0  0
    6.5284   -8.5244   -1.4344 C   0  0  0  0  0  0  0  0  0  0  0  0
    6.7103   -7.4866   -0.3563 C   0  0  0  0  0  0  0  0  0  0  0  0
    4.1502   -4.5496   -0.9049 N   0  0  0  0  0  0  0  0  0  0  0  0
    2.8960   -4.7169   -1.3234 C   0  0  0  0  0  0  0  0  0  0  0  0
    2.5000   -5.7032   -1.9652 O   0  0  0  0  0  0  0  0  0  0  0  0
    2.1026   -3.7534   -0.8827 O   0  0  0  0  0  0  0  0  0  0  0  0
    0.7639   -4.2388   -0.8669 C   0  0  0  0  0  0  0  0  0  0  0  0
   -0.1779   -3.1177   -0.6025 C   0  0  0  0  0  0  0  0  0  0  0  0
   -1.5276   -3.3081   -0.3951 C   0  0  0  0  0  0  0  0  0  0  0  0
   -2.3667   -2.1939   -0.3875 C   0  0  0  0  0  0  0  0  0  0  0  0
   -1.8453   -0.8997   -0.3768 C   0  0  0  0  0  0  0  0  0  0  0  0
   -0.4834   -0.7255   -0.3426 C   0  0  0  0  0  0  0  0  0  0  0  0
    0.3043   -1.8241   -0.6173 C   0  0  0  0  0  0  0  0  0  0  0  0
    5.4579   -7.7726   -3.2686 O   0  0  0  0  0  0  0  0  0  0  0  0
    0.6594    0.3703   -1.9171 H   0  0  0  0  0  0  0  0  0  0  0  0
    1.1716    1.0093   -3.3681 H   0  0  0  0  0  0  0  0  0  0  0  0
    2.3546   -0.3742   -0.3868 H   0  0  0  0  0  0  0  0  0  0  0  0
    3.3037    0.9364   -3.9750 H   0  0  0  0  0  0  0  0  0  0  0  0
    5.7244    1.6464   -3.2940 H   0  0  0  0  0  0  0  0  0  0  0  0
    8.0149    0.7059   -3.0919 H   0  0  0  0  0  0  0  0  0  0  0  0
    8.3408   -1.6249   -3.3297 H   0  0  0  0  0  0  0  0  0  0  0  0
    4.1001   -2.2750   -2.8597 H   0  0  0  0  0  0  0  0  0  0  0  0
    9.1346   -3.1658   -3.0605 H   0  0  0  0  0  0  0  0  0  0  0  0
    5.7428   -5.9328    0.7536 H   0  0  0  0  0  0  0  0  0  0  0  0
    3.4077   -6.5497    0.2924 H   0  0  0  0  0  0  0  0  0  0  0  0
    4.2647   -7.9372    0.9014 H   0  0  0  0  0  0  0  0  0  0  0  0
    3.7224   -7.4147   -2.0816 H   0  0  0  0  0  0  0  0  0  0  0  0
    2.8877   -8.4978   -1.1474 H   0  0  0  0  0  0  0  0  0  0  0  0
    4.7830   -9.5910   -2.4015 H   0  0  0  0  0  0  0  0  0  0  0  0
    4.9412   -9.8075   -0.6757 H   0  0  0  0  0  0  0  0  0  0  0  0
    7.0051   -8.0126   -2.2924 H   0  0  0  0  0  0  0  0  0  0  0  0
    7.2123   -9.3751   -1.4694 H   0  0  0  0  0  0  0  0  0  0  0  0
    7.6307   -6.9233   -0.5694 H   0  0  0  0  0  0  0  0  0  0  0  0
    6.8864   -8.0416    0.5587 H   0  0  0  0  0  0  0  0  0  0  0  0
    4.4283   -3.5606   -0.9377 H   0  0  0  0  0  0  0  0  0  0  0  0
    0.7084   -4.9783   -0.0624 H   0  0  0  0  0  0  0  0  0  0  0  0
    0.5000   -4.6760   -1.8377 H   0  0  0  0  0  0  0  0  0  0  0  0
   -1.9206   -4.3134   -0.2917 H   0  0  0  0  0  0  0  0  0  0  0  0
   -3.4391   -2.3340   -0.3762 H   0  0  0  0  0  0  0  0  0  0  0  0
   -2.4891   -0.0285   -0.3910 H   0  0  0  0  0  0  0  0  0  0  0  0
   -0.0422    0.2539   -0.1879 H   0  0  0  0  0  0  0  0  0  0  0  0
    1.3340   -1.7308   -0.8950 H   0  0  0  0  0  0  0  0  0  0  0  0
    5.4502   -8.0494   -4.2030 H   0  0  0  0  0  0  0  0  0  0  0  0
  1  2  1  0  0  0  0
  1 39  1  0  0  0  0
  1 40  1  0  0  0  0
  2  3  2  0  0  0  0
  2  4  1  0  0  0  0
  3 41  1  0  0  0  0
  4  5  1  0  0  0  0
  4 42  1  0  0  0  0
  5  6  2  0  0  0  0
  5 10  1  0  0  0  0
  6  7  1  0  0  0  0
  6 43  1  0  0  0  0
  7  8  2  0  0  0  0
  7 44  1  0  0  0  0
  8  9  1  0  0  0  0
  8 45  1  0  0  0  0
  9 10  2  0  0  0  0
  9 11  1  0  0  0  0
 10 46  1  0  0  0  0
 11 12  1  6  0  0  0
 11 13  1  0  0  0  0
 11 16  1  0  0  0  0
 13 14  2  0  0  0  0
 13 15  1  0  0  0  0
 15 47  1  0  0  0  0
 17 16  1  6  0  0  0
 17 18  2  0  0  0  0
 17 38  1  0  0  0  0
 19 21  1  0  0  0  0
 19 27  1  0  0  0  0
 19 20  1  1  0  0  0
 19 17  1  0  0  0  0
 21 22  1  0  0  0  0
 21 26  1  0  0  0  0
 21 48  1  0  0  0  0
 22 23  1  0  0  0  0
 22 49  1  0  0  0  0
 22 50  1  0  0  0  0
 23 24  1  0  0  0  0
 23 51  1  0  0  0  0
 23 52  1  0  0  0  0
 24 25  1  0  0  0  0
 24 53  1  0  0  0  0
 24 54  1  0  0  0  0
 25 26  1  0  0  0  0
 25 55  1  0  0  0  0
 25 56  1  0  0  0  0
 26 57  1  0  0  0  0
 26 58  1  0  0  0  0
 27 28  1  0  0  0  0
 27 59  1  0  0  0  0
 28 29  2  0  0  0  0
 28 30  1  0  0  0  0
 30 31  1  0  0  0  0
 31 32  1  0  0  0  0
 31 60  1  0  0  0  0
 31 61  1  0  0  0  0
 32 33  2  0  0  0  0
 32 37  1  0  0  0  0
 33 34  1  0  0  0  0
 33 62  1  0  0  0  0
 34 35  2  0  0  0  0
 34 63  1  0  0  0  0
 35 36  1  0  0  0  0
 35 64  1  0  0  0  0
 36 37  2  0  0  0  0
 36 65  1  0  0  0  0
 37 66  1  0  0  0  0
 38 67  1  0  0  0  0
M  END
$$$$
