42C
 OpenBabel04121316053D

 21 22  0  0  0  0  0  0  0  0999 V2000
    1.0456   -0.0410   -0.0375 C   0  0  0  0  0  0  0  0  0  0  0  0
    2.4844   -0.1521   -0.1536 N   0  0  0  0  0  0  0  0  0  0  0  0
    3.1580    0.8579   -0.8059 C   0  0  0  0  0  0  0  0  0  0  0  0
    2.8003    2.1569   -0.6889 N   0  0  0  0  0  0  0  0  0  0  0  0
    3.4309    3.0794   -1.4526 C   0  0  0  0  0  0  0  0  0  0  0  0
    4.3761    2.8823   -2.3825 N   0  0  0  0  0  0  0  0  0  0  0  0
    4.7041    1.5864   -2.5067 C   0  0  0  0  0  0  0  0  0  0  0  0
    4.1410    0.5840   -1.7387 C   0  0  0  0  0  0  0  0  0  0  0  0
    4.7076   -0.5653   -2.2075 N   0  0  0  0  0  0  0  0  0  0  0  0
    4.4898   -1.5001   -1.8875 H   0  0  0  0  0  0  0  0  0  0  0  0
    5.5813   -0.2309   -3.1989 C   0  0  0  0  0  0  0  0  0  0  0  0
    5.6019    1.0689   -3.4051 N   0  0  0  0  0  0  0  0  0  0  0  0
    3.2054   -1.0530    0.7228 C   0  0  0  0  0  0  0  0  0  0  0  0
    0.6232    0.7515   -0.6661 H   0  0  0  0  0  0  0  0  0  0  0  0
    0.7256    0.1214    0.9959 H   0  0  0  0  0  0  0  0  0  0  0  0
    0.6080   -0.9822   -0.3896 H   0  0  0  0  0  0  0  0  0  0  0  0
    3.1276    4.1107   -1.2985 H   0  0  0  0  0  0  0  0  0  0  0  0
    6.1614   -0.9712   -3.7311 H   0  0  0  0  0  0  0  0  0  0  0  0
    2.5141   -1.7050    1.2683 H   0  0  0  0  0  0  0  0  0  0  0  0
    3.8154   -0.5175    1.4586 H   0  0  0  0  0  0  0  0  0  0  0  0
    3.8592   -1.7125    0.1452 H   0  0  0  0  0  0  0  0  0  0  0  0
  1  2  1  0  0  0  0
  1 14  1  0  0  0  0
  1 15  1  0  0  0  0
  1 16  1  0  0  0  0
  2  3  1  0  0  0  0
  2 13  1  0  0  0  0
  3  4  2  0  0  0  0
  3  8  1  0  0  0  0
  4  5  1  0  0  0  0
  5  6  2  0  0  0  0
  5 17  1  0  0  0  0
  6  7  1  0  0  0  0
  7  8  2  0  0  0  0
  7 12  1  0  0  0  0
  8  9  1  0  0  0  0
  9 10  1  0  0  0  0
  9 11  1  0  0  0  0
 11 12  2  0  0  0  0
 11 18  1  0  0  0  0
 13 19  1  0  0  0  0
 13 20  1  0  0  0  0
 13 21  1  0  0  0  0
M  END
$$$$
