437
 OpenBabel04121316053D

 57 60  0  0  0  0  0  0  0  0999 V2000
    0.9571   -0.0284   -0.0415 O   0  0  0  0  0  0  0  0  0  0  0  0
    2.3781   -0.0514   -0.0204 C   0  0  0  0  0  0  0  0  0  0  0  0
    2.8432    0.7180   -1.2215 C   0  0  0  0  0  0  0  0  0  0  0  0
    2.8302    2.1191   -1.1875 C   0  0  0  0  0  0  0  0  0  0  0  0
    2.9304    2.8371   -2.3690 C   0  0  0  0  0  0  0  0  0  0  0  0
    3.1701    2.1531   -3.5645 C   0  0  0  0  0  0  0  0  0  0  0  0
    3.3459    0.7698   -3.5895 C   0  0  0  0  0  0  0  0  0  0  0  0
    3.1385    0.0495   -2.4196 C   0  0  0  0  0  0  0  0  0  0  0  0
    3.1944    2.8714   -4.7686 N   0  0  0  0  0  0  0  0  0  0  0  0
    2.5996    2.3903   -5.8885 N   0  0  0  0  0  0  0  0  0  0  0  0
    2.7422    3.3732   -6.7854 C   0  0  0  0  0  0  0  0  0  0  0  0
    3.5192    4.4189   -6.2704 C   0  0  0  0  0  0  0  0  0  0  0  0
    3.7943    4.1004   -4.9695 C   0  0  0  0  0  0  0  0  0  0  0  0
    4.5918    4.8277   -4.0825 N   0  0  0  0  0  0  0  0  0  0  0  0
    5.2474    6.0159   -4.4962 C   0  0  0  0  0  0  0  0  0  0  0  0
    5.0817    6.4849   -5.6163 O   0  0  0  0  0  0  0  0  0  0  0  0
    6.0489    6.5384   -3.5229 N   0  0  0  0  0  0  0  0  0  0  0  0
    6.6028    7.8065   -3.8127 C   0  0  0  0  0  0  0  0  0  0  0  0
    7.6746    7.8358   -4.7089 C   0  0  0  0  0  0  0  0  0  0  0  0
    8.2167    9.0490   -5.1107 C   0  0  0  0  0  0  0  0  0  0  0  0
    7.6652   10.2421   -4.6518 C   0  0  0  0  0  0  0  0  0  0  0  0
    6.5389   10.2317   -3.8172 C   0  0  0  0  0  0  0  0  0  0  0  0
    5.9983    9.0010   -3.3674 C   0  0  0  0  0  0  0  0  0  0  0  0
    4.8344    9.0300   -2.5752 C   0  0  0  0  0  0  0  0  0  0  0  0
    4.1350   10.2199   -2.3899 C   0  0  0  0  0  0  0  0  0  0  0  0
    4.6338   11.4074   -2.9115 C   0  0  0  0  0  0  0  0  0  0  0  0
    5.8962   11.4313   -3.4961 C   0  0  0  0  0  0  0  0  0  0  0  0
    2.1713    3.3105   -8.1811 C   0  0  0  0  0  0  0  0  0  0  0  0
    2.6727    2.0456   -8.8871 C   0  0  0  0  0  0  0  0  0  0  0  0
    0.6367    3.3159   -8.1247 C   0  0  0  0  0  0  0  0  0  0  0  0
    2.6242    4.5404   -9.0076 C   0  0  0  0  0  0  0  0  0  0  0  0
    0.6466   -0.5399    0.7225 H   0  0  0  0  0  0  0  0  0  0  0  0
    2.7246   -1.0878   -0.0533 H   0  0  0  0  0  0  0  0  0  0  0  0
    2.7307    0.4188    0.9017 H   0  0  0  0  0  0  0  0  0  0  0  0
    2.6496    2.6446   -0.2529 H   0  0  0  0  0  0  0  0  0  0  0  0
    2.7110    3.9018   -2.3514 H   0  0  0  0  0  0  0  0  0  0  0  0
    3.6299    0.2540   -4.5052 H   0  0  0  0  0  0  0  0  0  0  0  0
    3.1603   -1.0375   -2.4550 H   0  0  0  0  0  0  0  0  0  0  0  0
    3.8353    5.2820   -6.8300 H   0  0  0  0  0  0  0  0  0  0  0  0
    4.7656    4.4358   -3.1682 H   0  0  0  0  0  0  0  0  0  0  0  0
    5.8451    6.3313   -2.5573 H   0  0  0  0  0  0  0  0  0  0  0  0
    8.0832    6.9101   -5.1051 H   0  0  0  0  0  0  0  0  0  0  0  0
    9.0531    9.0645   -5.8034 H   0  0  0  0  0  0  0  0  0  0  0  0
    8.0804   11.1829   -5.0096 H   0  0  0  0  0  0  0  0  0  0  0  0
    4.4219    8.1221   -2.1488 H   0  0  0  0  0  0  0  0  0  0  0  0
    3.1970   10.2193   -1.8424 H   0  0  0  0  0  0  0  0  0  0  0  0
    4.0393   12.3161   -2.8716 H   0  0  0  0  0  0  0  0  0  0  0  0
    6.3462   12.3895   -3.7471 H   0  0  0  0  0  0  0  0  0  0  0  0
    2.3556    1.1421   -8.3545 H   0  0  0  0  0  0  0  0  0  0  0  0
    3.7686    2.0334   -8.9302 H   0  0  0  0  0  0  0  0  0  0  0  0
    2.2901    1.9880   -9.9104 H   0  0  0  0  0  0  0  0  0  0  0  0
    0.2544    2.4542   -7.5669 H   0  0  0  0  0  0  0  0  0  0  0  0
    0.2075    3.2844   -9.1318 H   0  0  0  0  0  0  0  0  0  0  0  0
    0.2630    4.2199   -7.6278 H   0  0  0  0  0  0  0  0  0  0  0  0
    3.7191    4.5899   -9.0753 H   0  0  0  0  0  0  0  0  0  0  0  0
    2.2836    5.4775   -8.5461 H   0  0  0  0  0  0  0  0  0  0  0  0
    2.2305    4.5152  -10.0269 H   0  0  0  0  0  0  0  0  0  0  0  0
  1  2  1  0  0  0  0
  1 32  1  0  0  0  0
  2  3  1  0  0  0  0
  2 33  1  0  0  0  0
  2 34  1  0  0  0  0
  3  4  2  0  0  0  0
  3  8  1  0  0  0  0
  4  5  1  0  0  0  0
  4 35  1  0  0  0  0
  5  6  2  0  0  0  0
  5 36  1  0  0  0  0
  6  7  1  0  0  0  0
  6  9  1  0  0  0  0
  7  8  2  0  0  0  0
  7 37  1  0  0  0  0
  8 38  1  0  0  0  0
  9 10  1  0  0  0  0
  9 13  1  0  0  0  0
 10 11  2  0  0  0  0
 11 12  1  0  0  0  0
 11 28  1  0  0  0  0
 12 13  2  0  0  0  0
 12 39  1  0  0  0  0
 13 14  1  0  0  0  0
 14 15  1  0  0  0  0
 14 40  1  0  0  0  0
 15 16  2  0  0  0  0
 15 17  1  0  0  0  0
 17 18  1  0  0  0  0
 17 41  1  0  0  0  0
 18 19  2  0  0  0  0
 18 23  1  0  0  0  0
 19 20  1  0  0  0  0
 19 42  1  0  0  0  0
 20 21  2  0  0  0  0
 20 43  1  0  0  0  0
 21 22  1  0  0  0  0
 21 44  1  0  0  0  0
 22 23  2  0  0  0  0
 22 27  1  0  0  0  0
 23 24  1  0  0  0  0
 24 25  2  0  0  0  0
 24 45  1  0  0  0  0
 25 26  1  0  0  0  0
 25 46  1  0  0  0  0
 26 27  2  0  0  0  0
 26 47  1  0  0  0  0
 27 48  1  0  0  0  0
 28 29  1  0  0  0  0
 28 30  1  0  0  0  0
 28 31  1  0  0  0  0
 29 49  1  0  0  0  0
 29 50  1  0  0  0  0
 29 51  1  0  0  0  0
 30 52  1  0  0  0  0
 30 53  1  0  0  0  0
 30 54  1  0  0  0  0
 31 55  1  0  0  0  0
 31 56  1  0  0  0  0
 31 57  1  0  0  0  0
M  END
$$$$
