440
 OpenBabel04121316053D

 34 34  0  0  0  0  0  0  0  0999 V2000
    0.9940   -0.0480   -0.0619 S   0  0  0  0  0  0  0  0  0  0  0  0
    2.8145   -0.0822   -0.0425 C   0  0  0  0  0  0  0  0  0  0  0  0
    3.3433    1.1074   -0.8383 C   0  0  0  0  0  0  0  0  0  0  0  0
    4.8704    1.1588   -0.8663 C   0  0  0  0  0  0  0  0  0  0  0  0
    5.4320    2.5853   -1.7973 S   0  0  0  0  0  0  0  0  0  0  0  0
    5.0342    2.3803   -3.1748 O   0  0  0  0  0  0  0  0  0  0  0  0
    5.0501    3.7808   -1.0672 O   0  0  0  0  0  0  0  0  0  0  0  0
    7.2096    2.5563   -1.7854 C   0  0  0  0  0  0  0  0  0  0  0  0
    7.8989    3.2006   -2.8203 C   0  0  0  0  0  0  0  0  0  0  0  0
    9.2808    3.0353   -2.9339 C   0  0  0  0  0  0  0  0  0  0  0  0
    9.9810    2.3214   -1.9615 C   0  0  0  0  0  0  0  0  0  0  0  0
    9.2975    1.8086   -0.8576 C   0  0  0  0  0  0  0  0  0  0  0  0
    7.9080    1.8696   -0.7971 C   0  0  0  0  0  0  0  0  0  0  0  0
   11.3197    2.1722   -2.1899 O   0  0  0  0  0  0  0  0  0  0  0  0
   12.0181    1.3830   -1.2294 C   0  0  0  0  0  0  0  0  0  0  0  0
   13.3976    1.2506   -1.6352 C   0  0  0  0  0  0  0  0  0  0  0  0
   14.5345    1.1414   -1.9697 C   0  0  0  0  0  0  0  0  0  0  0  0
   15.9308    1.0083   -2.3818 C   0  0  0  0  0  0  0  0  0  0  0  0
    0.7762   -1.1496    0.6711 H   0  0  0  0  0  0  0  0  0  0  0  0
    3.1571   -1.0269   -0.4771 H   0  0  0  0  0  0  0  0  0  0  0  0
    3.1580   -0.0420    0.9966 H   0  0  0  0  0  0  0  0  0  0  0  0
    2.9677    2.0406   -0.3997 H   0  0  0  0  0  0  0  0  0  0  0  0
    2.9681    1.0633   -1.8680 H   0  0  0  0  0  0  0  0  0  0  0  0
    5.2817    0.2611   -1.3395 H   0  0  0  0  0  0  0  0  0  0  0  0
    5.2507    1.2431    0.1554 H   0  0  0  0  0  0  0  0  0  0  0  0
    7.3700    3.8150   -3.5463 H   0  0  0  0  0  0  0  0  0  0  0  0
    9.8137    3.4562   -3.7848 H   0  0  0  0  0  0  0  0  0  0  0  0
    9.8161    1.3379   -0.0291 H   0  0  0  0  0  0  0  0  0  0  0  0
    7.4142    1.3802    0.0330 H   0  0  0  0  0  0  0  0  0  0  0  0
   11.5712    0.3858   -1.1366 H   0  0  0  0  0  0  0  0  0  0  0  0
   11.9910    1.8938   -0.2588 H   0  0  0  0  0  0  0  0  0  0  0  0
   16.2129    1.8158   -3.0637 H   0  0  0  0  0  0  0  0  0  0  0  0
   16.0942    0.0556   -2.8943 H   0  0  0  0  0  0  0  0  0  0  0  0
   16.5957    1.0467   -1.5138 H   0  0  0  0  0  0  0  0  0  0  0  0
  1  2  1  0  0  0  0
  1 19  1  0  0  0  0
  2  3  1  0  0  0  0
  2 20  1  0  0  0  0
  2 21  1  0  0  0  0
  3  4  1  0  0  0  0
  3 22  1  0  0  0  0
  3 23  1  0  0  0  0
  4  5  1  0  0  0  0
  4 24  1  0  0  0  0
  4 25  1  0  0  0  0
  5  6  2  0  0  0  0
  5  7  2  0  0  0  0
  5  8  1  0  0  0  0
  8  9  2  0  0  0  0
  8 13  1  0  0  0  0
  9 10  1  0  0  0  0
  9 26  1  0  0  0  0
 10 11  2  0  0  0  0
 10 27  1  0  0  0  0
 11 12  1  0  0  0  0
 11 14  1  0  0  0  0
 12 13  2  0  0  0  0
 12 28  1  0  0  0  0
 13 29  1  0  0  0  0
 14 15  1  0  0  0  0
 15 16  1  0  0  0  0
 15 30  1  0  0  0  0
 15 31  1  0  0  0  0
 16 17  3  0  0  0  0
 17 18  1  0  0  0  0
 18 32  1  0  0  0  0
 18 33  1  0  0  0  0
 18 34  1  0  0  0  0
M  END
$$$$
