44D
 OpenBabel04121316053D

 83 88  0  0  1  0  0  0  0  0999 V2000
    5.9886   -1.4339   -1.1652 O   0  0  0  0  0  0  0  0  0  0  0  0
    5.4368   -0.1972   -0.7517 C   0  0  0  0  0  0  0  0  0  0  0  0
    5.0172   -0.2080    0.7205 C   0  0  0  0  0  0  0  0  0  0  0  0
    5.1905   -1.2011    1.4342 O   0  0  0  0  0  0  0  0  0  0  0  0
    4.3257    1.0552    1.2722 C   0  0  1  0  0  0  0  0  0  0  0  0
    2.9394    0.9038    0.9461 O   0  0  0  0  0  0  0  0  0  0  0  0
    4.6286    1.1633    2.7795 C   0  0  0  0  0  0  0  0  0  0  0  0
    3.8346    2.2910    3.4439 C   0  0  2  0  0  0  0  0  0  0  0  0
    4.1462    2.3497    4.4931 H   0  0  0  0  0  0  0  0  0  0  0  0
    2.4349    1.8361    3.3541 O   0  0  0  0  0  0  0  0  0  0  0  0
    1.5610    2.1888    4.4539 C   0  0  1  0  0  0  0  0  0  0  0  0
    1.9810    1.7782    5.3823 H   0  0  0  0  0  0  0  0  0  0  0  0
    1.4675    3.6829    4.5036 C   0  0  0  0  0  0  0  0  0  0  0  0
    0.9368    4.1943    3.1530 C   0  0  2  0  0  0  0  0  0  0  0  0
    1.4546    3.7388    2.3030 H   0  0  0  0  0  0  0  0  0  0  0  0
    1.0187    5.5912    2.9265 O   0  0  0  0  0  0  0  0  0  0  0  0
   -0.5136    3.7866    3.0998 C   0  0  1  0  0  0  0  0  0  0  0  0
   -0.9489    4.1072    2.1487 H   0  0  0  0  0  0  0  0  0  0  0  0
   -0.4938    2.2210    3.2039 C   0  0  1  0  0  0  0  0  0  0  0  0
    0.0336    1.8497    2.3179 H   0  0  0  0  0  0  0  0  0  0  0  0
    0.2262    1.6880    4.3279 O   0  0  0  0  0  0  0  0  0  0  0  0
   -1.8717    1.5859    3.1606 C   0  0  0  0  0  0  0  0  0  0  0  0
   -1.1365    4.5917    4.1259 O   0  0  0  0  0  0  0  0  0  0  0  0
   -2.4794    4.2476    4.3741 C   0  0  1  0  0  0  0  0  0  0  0  0
   -2.8204    3.6388    3.5501 H   0  0  0  0  0  0  0  0  0  0  0  0
   -2.4557    3.5029    5.7059 C   0  0  0  0  0  0  0  0  0  0  0  0
   -2.4021    4.4934    6.8552 C   0  0  2  0  0  0  0  0  0  0  0  0
   -1.4798    5.0873    6.8014 H   0  0  0  0  0  0  0  0  0  0  0  0
   -2.4036    3.7646    8.1368 N   0  0  0  0  0  0  0  0  0  0  0  0
   -3.6122    5.4171    6.7240 C   0  0  1  0  0  0  0  0  0  0  0  0
   -3.6526    6.1332    7.5493 H   0  0  0  0  0  0  0  0  0  0  0  0
   -3.5213    6.1716    5.3874 C   0  0  1  0  0  0  0  0  0  0  0  0
   -2.6477    6.8324    5.3791 H   0  0  0  0  0  0  0  0  0  0  0  0
   -3.4027    5.3124    4.2667 O   0  0  0  0  0  0  0  0  0  0  0  0
   -4.7858    6.9927    5.1695 C   0  0  0  0  0  0  0  0  0  0  0  0
   -4.8131    4.6256    6.7772 O   0  0  0  0  0  0  0  0  0  0  0  0
    4.1220    3.6248    2.6911 C   0  0  0  0  0  0  0  0  0  0  0  0
    4.3958    3.6187    1.3018 C   0  0  0  0  0  0  0  0  0  0  0  0
    4.7996    2.3376    0.5970 C   0  0  0  0  0  0  0  0  0  0  0  0
    4.4102    4.8411    0.5822 C   0  0  0  0  0  0  0  0  0  0  0  0
    4.7378    4.8602   -0.7446 O   0  0  0  0  0  0  0  0  0  0  0  0
    4.0686    6.0586    1.1908 C   0  0  0  0  0  0  0  0  0  0  0  0
    3.8477    6.0752    2.5537 C   0  0  0  0  0  0  0  0  0  0  0  0
    4.0102    4.8985    3.3038 C   0  0  0  0  0  0  0  0  0  0  0  0
    4.0133    5.0233    4.6766 O   0  0  0  0  0  0  0  0  0  0  0  0
    3.2404    7.2618    3.2040 C   0  0  0  0  0  0  0  0  0  0  0  0
    2.7285    7.1428    4.3164 O   0  0  0  0  0  0  0  0  0  0  0  0
    3.1044    8.5109    2.4662 C   0  0  0  0  0  0  0  0  0  0  0  0
    3.5177    8.5571    1.1437 C   0  0  0  0  0  0  0  0  0  0  0  0
    3.9923    7.3419    0.4342 C   0  0  0  0  0  0  0  0  0  0  0  0
    4.3253    7.4397   -0.7173 O   0  0  0  0  0  0  0  0  0  0  0  0
    3.4938    9.7741    0.4663 C   0  0  0  0  0  0  0  0  0  0  0  0
    3.0387   10.9235    1.1158 C   0  0  0  0  0  0  0  0  0  0  0  0
    2.5669   10.8565    2.4272 C   0  0  0  0  0  0  0  0  0  0  0  0
    2.5862    9.6432    3.1064 C   0  0  0  0  0  0  0  0  0  0  0  0
    6.2098   -1.3713   -2.1071 H   0  0  0  0  0  0  0  0  0  0  0  0
    4.5677    0.0326   -1.3752 H   0  0  0  0  0  0  0  0  0  0  0  0
    6.2071    0.5672   -0.8896 H   0  0  0  0  0  0  0  0  0  0  0  0
    2.4230    1.4482    1.5737 H   0  0  0  0  0  0  0  0  0  0  0  0
    5.7054    1.3408    2.9149 H   0  0  0  0  0  0  0  0  0  0  0  0
    4.3933    0.2176    3.2829 H   0  0  0  0  0  0  0  0  0  0  0  0
    2.4702    3.9178    4.6999 H   0  0  0  0  0  0  0  0  0  0  0  0
    0.9574    4.1040    5.3725 H   0  0  0  0  0  0  0  0  0  0  0  0
    1.4368    6.0013    3.7025 H   0  0  0  0  0  0  0  0  0  0  0  0
   -2.4300    1.9760    2.3038 H   0  0  0  0  0  0  0  0  0  0  0  0
   -2.4434    1.7579    4.0691 H   0  0  0  0  0  0  0  0  0  0  0  0
   -1.8208    0.5005    3.1093 H   0  0  0  0  0  0  0  0  0  0  0  0
   -1.5750    2.8525    5.7840 H   0  0  0  0  0  0  0  0  0  0  0  0
   -3.3428    2.8657    5.7801 H   0  0  0  0  0  0  0  0  0  0  0  0
   -1.5756    3.1655    8.1636 H   0  0  0  0  0  0  0  0  0  0  0  0
   -3.1846    3.1109    8.1545 H   0  0  0  0  0  0  0  0  0  0  0  0
   -4.8946    7.7356    5.9630 H   0  0  0  0  0  0  0  0  0  0  0  0
   -5.6780    6.3540    5.1648 H   0  0  0  0  0  0  0  0  0  0  0  0
   -4.7670    7.4963    4.1984 H   0  0  0  0  0  0  0  0  0  0  0  0
   -4.7938    4.1668    7.6334 H   0  0  0  0  0  0  0  0  0  0  0  0
    5.8953    2.3525    0.5406 H   0  0  0  0  0  0  0  0  0  0  0  0
    4.3975    2.3471   -0.4228 H   0  0  0  0  0  0  0  0  0  0  0  0
    5.1418    4.0405   -1.0544 H   0  0  0  0  0  0  0  0  0  0  0  0
    3.3228    5.6985    4.9129 H   0  0  0  0  0  0  0  0  0  0  0  0
    3.8441    9.8292   -0.5616 H   0  0  0  0  0  0  0  0  0  0  0  0
    3.0524   11.8735    0.5897 H   0  0  0  0  0  0  0  0  0  0  0  0
    2.1995   11.7511    2.9244 H   0  0  0  0  0  0  0  0  0  0  0  0
    2.2151    9.5877    4.1289 H   0  0  0  0  0  0  0  0  0  0  0  0
  1  2  1  0  0  0  0
  1 56  1  0  0  0  0
  2  3  1  0  0  0  0
  2 57  1  0  0  0  0
  2 58  1  0  0  0  0
  3  4  2  0  0  0  0
  5  7  1  0  0  0  0
  5 39  1  0  0  0  0
  5  6  1  6  0  0  0
  5  3  1  0  0  0  0
  6 59  1  0  0  0  0
  7  8  1  0  0  0  0
  7 60  1  0  0  0  0
  7 61  1  0  0  0  0
  8 37  1  0  0  0  0
  8 10  1  0  0  0  0
  8  9  1  1  0  0  0
 10 11  1  0  0  0  0
 11 12  1  1  0  0  0
 11 13  1  0  0  0  0
 11 21  1  0  0  0  0
 13 14  1  0  0  0  0
 13 62  1  0  0  0  0
 13 63  1  0  0  0  0
 14 15  1  6  0  0  0
 14 16  1  0  0  0  0
 14 17  1  0  0  0  0
 16 64  1  0  0  0  0
 17 18  1  6  0  0  0
 17 19  1  0  0  0  0
 17 23  1  0  0  0  0
 19 20  1  6  0  0  0
 19 21  1  0  0  0  0
 19 22  1  0  0  0  0
 22 65  1  0  0  0  0
 22 66  1  0  0  0  0
 22 67  1  0  0  0  0
 23 24  1  0  0  0  0
 24 25  1  6  0  0  0
 24 26  1  0  0  0  0
 24 34  1  0  0  0  0
 26 27  1  0  0  0  0
 26 68  1  0  0  0  0
 26 69  1  0  0  0  0
 27 28  1  6  0  0  0
 27 29  1  0  0  0  0
 27 30  1  0  0  0  0
 29 70  1  0  0  0  0
 29 71  1  0  0  0  0
 30 31  1  1  0  0  0
 30 32  1  0  0  0  0
 30 36  1  0  0  0  0
 32 33  1  1  0  0  0
 32 34  1  0  0  0  0
 32 35  1  0  0  0  0
 35 72  1  0  0  0  0
 35 73  1  0  0  0  0
 35 74  1  0  0  0  0
 36 75  1  0  0  0  0
 37 38  2  0  0  0  0
 37 44  1  0  0  0  0
 38 39  1  0  0  0  0
 38 40  1  0  0  0  0
 39 76  1  0  0  0  0
 39 77  1  0  0  0  0
 40 41  1  0  0  0  0
 40 42  2  0  0  0  0
 41 78  1  0  0  0  0
 42 43  1  0  0  0  0
 42 50  1  0  0  0  0
 43 44  2  0  0  0  0
 43 46  1  0  0  0  0
 44 45  1  0  0  0  0
 45 79  1  0  0  0  0
 46 47  2  0  0  0  0
 46 48  1  0  0  0  0
 48 49  2  0  0  0  0
 48 55  1  0  0  0  0
 49 50  1  0  0  0  0
 49 52  1  0  0  0  0
 50 51  2  0  0  0  0
 52 53  2  0  0  0  0
 52 80  1  0  0  0  0
 53 54  1  0  0  0  0
 53 81  1  0  0  0  0
 54 55  2  0  0  0  0
 54 82  1  0  0  0  0
 55 83  1  0  0  0  0
M  END
$$$$
