452
 OpenBabel04121316053D

 39 40  0  0  0  0  0  0  0  0999 V2000
    0.9153   -0.1815    0.1768 O   0  0  0  0  0  0  0  0  0  0  0  0
    2.1423   -0.1610    0.1357 C   0  0  0  0  0  0  0  0  0  0  0  0
    2.8680   -0.6242   -0.9592 N   0  0  0  0  0  0  0  0  0  0  0  0
    2.2248   -1.1706   -2.0793 C   0  0  0  0  0  0  0  0  0  0  0  0
    2.2903   -2.5626   -2.2608 C   0  0  0  0  0  0  0  0  0  0  0  0
    1.8699   -3.1293   -3.4624 C   0  0  0  0  0  0  0  0  0  0  0  0
    1.3074   -2.3186   -4.4427 C   0  0  0  0  0  0  0  0  0  0  0  0
    1.1529   -0.9475   -4.2162 C   0  0  0  0  0  0  0  0  0  0  0  0
    1.6641   -0.3390   -3.0603 C   0  0  0  0  0  0  0  0  0  0  0  0
    1.6673    1.1609   -3.0444 C   0  0  0  0  0  0  0  0  0  0  0  0
    1.1468    1.8165   -3.9449 O   0  0  0  0  0  0  0  0  0  0  0  0
    2.3434    1.7836   -2.0609 O   0  0  0  0  0  0  0  0  0  0  0  0
    2.9648    0.5203    1.2326 C   0  0  0  0  0  0  0  0  0  0  0  0
    4.3874    0.6554    0.9092 N   0  0  0  0  0  0  0  0  0  0  0  0
    5.2604    0.9737    1.9381 C   0  0  0  0  0  0  0  0  0  0  0  0
    5.2803    2.3293    2.3043 C   0  0  0  0  0  0  0  0  0  0  0  0
    6.2839    2.8309    3.1181 C   0  0  0  0  0  0  0  0  0  0  0  0
    6.4216    4.5319    3.3158 Cl  0  0  0  0  0  0  0  0  0  0  0  0
    7.1819    1.9531    3.7047 C   0  0  0  0  0  0  0  0  0  0  0  0
    7.0853    0.5809    3.4767 C   0  0  0  0  0  0  0  0  0  0  0  0
    6.1714    0.0740    2.5313 C   0  0  0  0  0  0  0  0  0  0  0  0
    6.2911   -1.3980    2.2219 C   0  0  0  0  0  0  0  0  0  0  0  0
    7.1471   -2.0606    2.8128 O   0  0  0  0  0  0  0  0  0  0  0  0
    5.4396   -2.0975    1.1929 C   0  0  0  0  0  0  0  0  0  0  0  0
    8.1742    2.4139    4.4786 F   0  0  0  0  0  0  0  0  0  0  0  0
    3.8483   -0.8553   -0.8890 H   0  0  0  0  0  0  0  0  0  0  0  0
    2.6396   -3.2192   -1.4658 H   0  0  0  0  0  0  0  0  0  0  0  0
    1.9701   -4.1994   -3.6341 H   0  0  0  0  0  0  0  0  0  0  0  0
    0.9850   -2.7489   -5.3883 H   0  0  0  0  0  0  0  0  0  0  0  0
    0.6536   -0.3406   -4.9696 H   0  0  0  0  0  0  0  0  0  0  0  0
    2.7932    1.1713   -1.4610 H   0  0  0  0  0  0  0  0  0  0  0  0
    2.8169   -0.0451    2.1587 H   0  0  0  0  0  0  0  0  0  0  0  0
    2.5496    1.5272    1.3511 H   0  0  0  0  0  0  0  0  0  0  0  0
    4.8217    0.2914    0.0750 H   0  0  0  0  0  0  0  0  0  0  0  0
    4.5429    3.0056    1.8760 H   0  0  0  0  0  0  0  0  0  0  0  0
    7.7625   -0.0777    4.0181 H   0  0  0  0  0  0  0  0  0  0  0  0
    4.6554   -1.5064    0.7690 H   0  0  0  0  0  0  0  0  0  0  0  0
    4.9163   -2.9352    1.6565 H   0  0  0  0  0  0  0  0  0  0  0  0
    6.0665   -2.4337    0.3625 H   0  0  0  0  0  0  0  0  0  0  0  0
  1  2  2  0  0  0  0
  2  3  1  0  0  0  0
  2 13  1  0  0  0  0
  3  4  1  0  0  0  0
  3 26  1  0  0  0  0
  4  5  2  0  0  0  0
  4  9  1  0  0  0  0
  5  6  1  0  0  0  0
  5 27  1  0  0  0  0
  6  7  2  0  0  0  0
  6 28  1  0  0  0  0
  7  8  1  0  0  0  0
  7 29  1  0  0  0  0
  8  9  2  0  0  0  0
  8 30  1  0  0  0  0
  9 10  1  0  0  0  0
 10 11  2  0  0  0  0
 10 12  1  0  0  0  0
 12 31  1  0  0  0  0
 13 14  1  0  0  0  0
 13 32  1  0  0  0  0
 13 33  1  0  0  0  0
 14 15  1  0  0  0  0
 14 34  1  0  0  0  0
 15 16  2  0  0  0  0
 15 21  1  0  0  0  0
 16 17  1  0  0  0  0
 16 35  1  0  0  0  0
 17 18  1  0  0  0  0
 17 19  2  0  0  0  0
 19 20  1  0  0  0  0
 19 25  1  0  0  0  0
 20 21  2  0  0  0  0
 20 36  1  0  0  0  0
 21 22  1  0  0  0  0
 22 23  2  0  0  0  0
 22 24  1  0  0  0  0
 24 37  1  0  0  0  0
 24 38  1  0  0  0  0
 24 39  1  0  0  0  0
M  END
$$$$
