455
 OpenBabel04121316053D

 57 60  0  0  1  0  0  0  0  0999 V2000
    0.8955   -0.0782    0.0143 O   0  0  0  0  0  0  0  0  0  0  0  0
    2.1231   -0.0197    0.0394 C   0  0  0  0  0  0  0  0  0  0  0  0
    2.8807    0.4126    1.2780 C   0  0  1  0  0  0  0  0  0  0  0  0
    3.9561    0.3717    1.1298 H   0  0  0  0  0  0  0  0  0  0  0  0
    2.4954    1.8236    1.6860 C   0  0  0  0  0  0  0  0  0  0  0  0
    2.8945    1.8898    3.1253 N   0  0  0  0  0  0  0  0  0  0  0  0
    2.4798    0.5536    3.6639 C   0  0  0  0  0  0  0  0  0  0  0  0
    2.5507   -0.4472    2.4974 C   0  0  2  0  0  0  0  0  0  0  0  0
    1.5995   -0.9833    2.3943 H   0  0  0  0  0  0  0  0  0  0  0  0
    3.6346   -1.4727    2.8034 C   0  0  0  0  0  0  0  0  0  0  0  0
    4.2100   -1.4974    3.8908 O   0  0  0  0  0  0  0  0  0  0  0  0
    3.8489   -2.4249    1.8255 N   0  0  0  0  0  0  0  0  0  0  0  0
    4.8238   -3.4202    2.0207 C   0  0  0  0  0  0  0  0  0  0  0  0
    6.1526   -3.0512    2.2500 C   0  0  0  0  0  0  0  0  0  0  0  0
    7.1487   -4.0253    2.2649 C   0  0  0  0  0  0  0  0  0  0  0  0
    6.7925   -5.3699    2.2155 C   0  0  0  0  0  0  0  0  0  0  0  0
    5.4503   -5.7431    2.1443 C   0  0  0  0  0  0  0  0  0  0  0  0
    4.4687   -4.7666    1.9569 C   0  0  0  0  0  0  0  0  0  0  0  0
    8.0174   -6.5773    2.2131 Cl  0  0  0  0  0  0  0  0  0  0  0  0
    4.5337    2.3082    3.3363 S   0  0  0  0  0  0  0  0  0  0  0  0
    5.3503    1.2236    2.8744 O   0  0  0  0  0  0  0  0  0  0  0  0
    4.7063    3.6564    2.8398 O   0  0  0  0  0  0  0  0  0  0  0  0
    4.6393    2.3660    4.9773 N   0  0  0  0  0  0  0  0  0  0  0  0
    2.8490   -0.4493   -1.0397 N   0  0  0  0  0  0  0  0  0  0  0  0
    4.2420   -0.4414   -1.1194 C   0  0  0  0  0  0  0  0  0  0  0  0
    4.9294    0.7639   -1.0786 C   0  0  0  0  0  0  0  0  0  0  0  0
    6.3094    0.7708   -1.2430 C   0  0  0  0  0  0  0  0  0  0  0  0
    7.0481   -0.4237   -1.3109 C   0  0  0  0  0  0  0  0  0  0  0  0
    6.3292   -1.6225   -1.1716 C   0  0  0  0  0  0  0  0  0  0  0  0
    4.9434   -1.6326   -1.1889 C   0  0  0  0  0  0  0  0  0  0  0  0
    4.2899   -2.8043   -1.1624 F   0  0  0  0  0  0  0  0  0  0  0  0
    8.4690   -0.4012   -1.6015 N   0  0  0  0  0  0  0  0  0  0  0  0
    9.1521    0.8091   -1.7831 C   0  0  0  0  0  0  0  0  0  0  0  0
   10.3739    0.8748   -2.3227 C   0  0  0  0  0  0  0  0  0  0  0  0
   11.1043   -0.3277   -2.5840 C   0  0  0  0  0  0  0  0  0  0  0  0
   10.5694   -1.5090   -2.2732 C   0  0  0  0  0  0  0  0  0  0  0  0
    9.1444   -1.6141   -1.8811 C   0  0  0  0  0  0  0  0  0  0  0  0
    8.6933   -2.7578   -1.8807 O   0  0  0  0  0  0  0  0  0  0  0  0
    1.4162    2.0012    1.5985 H   0  0  0  0  0  0  0  0  0  0  0  0
    2.9902    2.5868    1.0766 H   0  0  0  0  0  0  0  0  0  0  0  0
    1.4440    0.6324    4.0154 H   0  0  0  0  0  0  0  0  0  0  0  0
    3.0644    0.2904    4.5457 H   0  0  0  0  0  0  0  0  0  0  0  0
    3.1557   -2.5896    1.1047 H   0  0  0  0  0  0  0  0  0  0  0  0
    6.4239   -2.0036    2.3621 H   0  0  0  0  0  0  0  0  0  0  0  0
    8.1917   -3.7265    2.3114 H   0  0  0  0  0  0  0  0  0  0  0  0
    5.1680   -6.7890    2.2249 H   0  0  0  0  0  0  0  0  0  0  0  0
    3.4318   -5.0656    1.8370 H   0  0  0  0  0  0  0  0  0  0  0  0
    4.6511    1.4685    5.4533 H   0  0  0  0  0  0  0  0  0  0  0  0
    4.2051    3.1659    5.4214 H   0  0  0  0  0  0  0  0  0  0  0  0
    2.3378   -0.9820   -1.7360 H   0  0  0  0  0  0  0  0  0  0  0  0
    4.4115    1.7091   -0.9470 H   0  0  0  0  0  0  0  0  0  0  0  0
    6.7582    1.7519   -1.3373 H   0  0  0  0  0  0  0  0  0  0  0  0
    6.7974   -2.5909   -1.0500 H   0  0  0  0  0  0  0  0  0  0  0  0
    8.6758    1.7390   -1.5009 H   0  0  0  0  0  0  0  0  0  0  0  0
   10.8544    1.8298   -2.5078 H   0  0  0  0  0  0  0  0  0  0  0  0
   12.1179   -0.2562   -2.9558 H   0  0  0  0  0  0  0  0  0  0  0  0
   11.1002   -2.4475   -2.3507 H   0  0  0  0  0  0  0  0  0  0  0  0
  1  2  2  0  0  0  0
  2  3  1  0  0  0  0
  2 24  1  0  0  0  0
  3  4  1  6  0  0  0
  3  5  1  0  0  0  0
  3  8  1  0  0  0  0
  5  6  1  0  0  0  0
  5 39  1  0  0  0  0
  5 40  1  0  0  0  0
  6  7  1  0  0  0  0
  6 20  1  0  0  0  0
  7  8  1  0  0  0  0
  7 41  1  0  0  0  0
  7 42  1  0  0  0  0
  8  9  1  6  0  0  0
  8 10  1  0  0  0  0
 10 11  2  0  0  0  0
 10 12  1  0  0  0  0
 12 13  1  0  0  0  0
 12 43  1  0  0  0  0
 13 14  2  0  0  0  0
 13 18  1  0  0  0  0
 14 15  1  0  0  0  0
 14 44  1  0  0  0  0
 15 16  2  0  0  0  0
 15 45  1  0  0  0  0
 16 17  1  0  0  0  0
 16 19  1  0  0  0  0
 17 18  2  0  0  0  0
 17 46  1  0  0  0  0
 18 47  1  0  0  0  0
 20 21  2  0  0  0  0
 20 22  2  0  0  0  0
 20 23  1  0  0  0  0
 23 48  1  0  0  0  0
 23 49  1  0  0  0  0
 24 25  1  0  0  0  0
 24 50  1  0  0  0  0
 25 26  2  0  0  0  0
 25 30  1  0  0  0  0
 26 27  1  0  0  0  0
 26 51  1  0  0  0  0
 27 28  2  0  0  0  0
 27 52  1  0  0  0  0
 28 29  1  0  0  0  0
 28 32  1  0  0  0  0
 29 30  2  0  0  0  0
 29 53  1  0  0  0  0
 30 31  1  0  0  0  0
 32 33  1  0  0  0  0
 32 37  1  0  0  0  0
 33 34  2  0  0  0  0
 33 54  1  0  0  0  0
 34 35  1  0  0  0  0
 34 55  1  0  0  0  0
 35 36  2  0  0  0  0
 35 56  1  0  0  0  0
 36 37  1  0  0  0  0
 36 57  1  0  0  0  0
 37 38  2  0  0  0  0
M  END
$$$$
