459
 OpenBabel04121316053D

 44 46  0  0  1  0  0  0  0  0999 V2000
    1.0286    0.2116   -0.0200 O   0  0  0  0  0  0  0  0  0  0  0  0
    2.4294    0.0439    0.0003 C   0  0  0  0  0  0  0  0  0  0  0  0
    2.9034   -1.2187    0.7911 C   0  0  2  0  0  0  0  0  0  0  0  0
    4.2292   -1.6289    0.0703 C   0  0  0  0  0  0  0  0  0  0  0  0
    4.6999   -3.0715    0.0852 C   0  0  0  0  0  0  0  0  0  0  0  0
    3.7793   -4.1112    0.7106 C   0  0  1  0  0  0  0  0  0  0  0  0
    4.4195   -4.7742    1.2942 H   0  0  0  0  0  0  0  0  0  0  0  0
    2.6253   -3.5448    1.5866 C   0  0  2  0  0  0  0  0  0  0  0  0
    1.9159   -4.3757    1.7197 H   0  0  0  0  0  0  0  0  0  0  0  0
    1.9018   -2.3934    0.8537 C   0  0  1  0  0  0  0  0  0  0  0  0
    1.6511   -2.7030   -0.1678 H   0  0  0  0  0  0  0  0  0  0  0  0
    0.5665   -2.0972    1.5728 C   0  0  0  0  0  0  0  0  0  0  0  0
    3.0525   -3.1142    3.0306 C   0  0  2  0  0  0  0  0  0  0  0  0
    2.2809   -3.4961    3.7166 H   0  0  0  0  0  0  0  0  0  0  0  0
    3.0597   -1.7140    3.2957 O   0  0  0  0  0  0  0  0  0  0  0  0
    3.2002   -0.7700    2.2428 C   0  0  0  0  0  0  0  0  0  0  0  0
    4.3682   -3.7292    3.4735 C   0  0  0  0  0  0  0  0  0  0  0  0
    5.5473   -2.9830    3.3064 C   0  0  0  0  0  0  0  0  0  0  0  0
    6.7786   -3.6200    3.2468 C   0  0  0  0  0  0  0  0  0  0  0  0
    6.8511   -4.9790    3.4845 C   0  0  0  0  0  0  0  0  0  0  0  0
    5.7125   -5.7191    3.8064 C   0  0  0  0  0  0  0  0  0  0  0  0
    4.4613   -5.0966    3.7745 C   0  0  0  0  0  0  0  0  0  0  0  0
    8.0369   -5.6417    3.3675 O   0  0  0  0  0  0  0  0  0  0  0  0
    3.2558   -5.0608   -0.3641 C   0  0  0  0  0  0  0  0  0  0  0  0
    0.8260    0.9681   -0.5941 H   0  0  0  0  0  0  0  0  0  0  0  0
    2.8698    0.9500    0.4321 H   0  0  0  0  0  0  0  0  0  0  0  0
    2.7470    0.0122   -1.0468 H   0  0  0  0  0  0  0  0  0  0  0  0
    5.0553   -0.9840    0.4003 H   0  0  0  0  0  0  0  0  0  0  0  0
    4.1338   -1.4052   -1.0007 H   0  0  0  0  0  0  0  0  0  0  0  0
    5.6889   -3.1147    0.5562 H   0  0  0  0  0  0  0  0  0  0  0  0
    4.9122   -3.3574   -0.9549 H   0  0  0  0  0  0  0  0  0  0  0  0
    0.7018   -1.7388    2.5969 H   0  0  0  0  0  0  0  0  0  0  0  0
   -0.0503   -2.9996    1.6197 H   0  0  0  0  0  0  0  0  0  0  0  0
   -0.0417   -1.3543    1.0585 H   0  0  0  0  0  0  0  0  0  0  0  0
    4.1910   -0.3084    2.3216 H   0  0  0  0  0  0  0  0  0  0  0  0
    2.5016    0.0290    2.5177 H   0  0  0  0  0  0  0  0  0  0  0  0
    5.4999   -1.9247    3.0902 H   0  0  0  0  0  0  0  0  0  0  0  0
    7.6453   -3.0343    2.9520 H   0  0  0  0  0  0  0  0  0  0  0  0
    5.7944   -6.7809    4.0010 H   0  0  0  0  0  0  0  0  0  0  0  0
    3.5647   -5.7119    3.8601 H   0  0  0  0  0  0  0  0  0  0  0  0
    8.6998   -5.0048    3.0496 H   0  0  0  0  0  0  0  0  0  0  0  0
    2.6153   -4.5439   -1.0795 H   0  0  0  0  0  0  0  0  0  0  0  0
    2.6990   -5.8834    0.0954 H   0  0  0  0  0  0  0  0  0  0  0  0
    4.0992   -5.5029   -0.9073 H   0  0  0  0  0  0  0  0  0  0  0  0
  1  2  1  0  0  0  0
  1 25  1  0  0  0  0
  2 26  1  0  0  0  0
  2 27  1  0  0  0  0
  3  2  1  6  0  0  0
  3  4  1  0  0  0  0
  3 10  1  0  0  0  0
  3 16  1  0  0  0  0
  4  5  1  0  0  0  0
  4 28  1  0  0  0  0
  4 29  1  0  0  0  0
  5  6  1  0  0  0  0
  5 30  1  0  0  0  0
  5 31  1  0  0  0  0
  6  8  1  0  0  0  0
  6 24  1  0  0  0  0
  6  7  1  1  0  0  0
  8  9  1  1  0  0  0
  8 10  1  0  0  0  0
  8 13  1  0  0  0  0
 10 12  1  0  0  0  0
 10 11  1  6  0  0  0
 12 32  1  0  0  0  0
 12 33  1  0  0  0  0
 12 34  1  0  0  0  0
 13 15  1  0  0  0  0
 13 17  1  0  0  0  0
 13 14  1  1  0  0  0
 15 16  1  0  0  0  0
 16 35  1  0  0  0  0
 16 36  1  0  0  0  0
 17 18  2  0  0  0  0
 17 22  1  0  0  0  0
 18 19  1  0  0  0  0
 18 37  1  0  0  0  0
 19 20  2  0  0  0  0
 19 38  1  0  0  0  0
 20 21  1  0  0  0  0
 20 23  1  0  0  0  0
 21 22  2  0  0  0  0
 21 39  1  0  0  0  0
 22 40  1  0  0  0  0
 23 41  1  0  0  0  0
 24 42  1  0  0  0  0
 24 43  1  0  0  0  0
 24 44  1  0  0  0  0
M  END
$$$$
