46C
 OpenBabel04121316053D

 52 55  0  0  0  0  0  0  0  0999 V2000
    1.0200    0.4470    0.5386 C   0  0  0  0  0  0  0  0  0  0  0  0
    2.5282    0.2082    0.4445 C   0  0  0  0  0  0  0  0  0  0  0  0
    3.1300   -0.3184   -0.8915 C   0  0  0  0  0  0  0  0  0  0  0  0
    2.6454   -0.1852   -2.0300 O   0  0  0  0  0  0  0  0  0  0  0  0
    4.5004   -0.7878   -0.9742 C   0  0  0  0  0  0  0  0  0  0  0  0
    5.2289    0.3313   -1.2834 C   0  0  0  0  0  0  0  0  0  0  0  0
    4.5708    1.8007   -1.3804 C   0  0  0  0  0  0  0  0  0  0  0  0
    3.2159    2.1568   -1.6986 C   0  0  0  0  0  0  0  0  0  0  0  0
    2.6002    3.3860   -1.6244 C   0  0  0  0  0  0  0  0  0  0  0  0
    3.3983    4.4468   -1.3830 C   0  0  0  0  0  0  0  0  0  0  0  0
    4.7336    4.2136   -1.0807 C   0  0  0  0  0  0  0  0  0  0  0  0
    5.2819    2.9229   -1.0121 C   0  0  0  0  0  0  0  0  0  0  0  0
    6.6578    0.0148   -1.5705 C   0  0  0  0  0  0  0  0  0  0  0  0
    7.5919    1.0257   -1.7992 C   0  0  0  0  0  0  0  0  0  0  0  0
    8.8804    0.7860   -2.2322 C   0  0  0  0  0  0  0  0  0  0  0  0
    9.9159    2.1366   -2.4634 Cl  0  0  0  0  0  0  0  0  0  0  0  0
    9.2962   -0.5078   -2.4355 C   0  0  0  0  0  0  0  0  0  0  0  0
    8.4700   -1.5509   -2.0174 C   0  0  0  0  0  0  0  0  0  0  0  0
    7.1332   -1.2989   -1.6522 C   0  0  0  0  0  0  0  0  0  0  0  0
    6.2206   -2.4505   -1.4429 C   0  0  0  0  0  0  0  0  0  0  0  0
    6.6533   -3.5899   -1.6132 O   0  0  0  0  0  0  0  0  0  0  0  0
    4.8841   -2.1700   -1.0933 N   0  0  0  0  0  0  0  0  0  0  0  0
    3.9960   -3.4752   -1.0534 C   0  0  0  0  0  0  0  0  0  0  0  0
    2.4696   -3.4141   -0.8988 C   0  0  0  0  0  0  0  0  0  0  0  0
    1.4141   -4.2726   -0.6712 C   0  0  0  0  0  0  0  0  0  0  0  0
    0.0203   -3.7898   -0.7558 C   0  0  0  0  0  0  0  0  0  0  0  0
   -0.3153   -2.4401   -0.9611 C   0  0  0  0  0  0  0  0  0  0  0  0
    0.7174   -1.7335   -1.4259 C   0  0  0  0  0  0  0  0  0  0  0  0
    1.9533   -2.3699   -1.5680 C   0  0  0  0  0  0  0  0  0  0  0  0
   -1.6812   -1.8194   -1.0503 C   0  0  0  0  0  0  0  0  0  0  0  0
   -2.6548   -2.5066   -1.1319 O   0  0  0  0  0  0  0  0  0  0  0  0
   -1.7847   -0.4500   -1.0553 O   0  0  0  0  0  0  0  0  0  0  0  0
    0.7288    1.1102    1.3602 H   0  0  0  0  0  0  0  0  0  0  0  0
    0.4929   -0.4864    0.7498 H   0  0  0  0  0  0  0  0  0  0  0  0
    0.6320    0.9176   -0.3687 H   0  0  0  0  0  0  0  0  0  0  0  0
    2.8468   -0.4688    1.2344 H   0  0  0  0  0  0  0  0  0  0  0  0
    2.9732    1.1846    0.6528 H   0  0  0  0  0  0  0  0  0  0  0  0
    2.3714    1.5390   -1.9303 H   0  0  0  0  0  0  0  0  0  0  0  0
    1.5208    3.4247   -1.7638 H   0  0  0  0  0  0  0  0  0  0  0  0
    2.9611    5.4297   -1.4104 H   0  0  0  0  0  0  0  0  0  0  0  0
    5.3810    5.0428   -0.8394 H   0  0  0  0  0  0  0  0  0  0  0  0
    6.2735    2.8812   -0.5968 H   0  0  0  0  0  0  0  0  0  0  0  0
    7.3699    2.0662   -1.7062 H   0  0  0  0  0  0  0  0  0  0  0  0
   10.2499   -0.6985   -2.9111 H   0  0  0  0  0  0  0  0  0  0  0  0
    8.8664   -2.5634   -1.9909 H   0  0  0  0  0  0  0  0  0  0  0  0
    4.4584   -4.1203   -0.2978 H   0  0  0  0  0  0  0  0  0  0  0  0
    4.1781   -3.9565   -2.0328 H   0  0  0  0  0  0  0  0  0  0  0  0
    1.5921   -5.3427   -0.5916 H   0  0  0  0  0  0  0  0  0  0  0  0
   -0.7974   -4.5017   -0.7863 H   0  0  0  0  0  0  0  0  0  0  0  0
    0.6034   -0.7193   -1.7879 H   0  0  0  0  0  0  0  0  0  0  0  0
    2.6452   -2.0329   -2.3232 H   0  0  0  0  0  0  0  0  0  0  0  0
   -1.0271    0.1532   -1.0068 H   0  0  0  0  0  0  0  0  0  0  0  0
  1  2  1  0  0  0  0
  1 33  1  0  0  0  0
  1 34  1  0  0  0  0
  1 35  1  0  0  0  0
  2  3  1  0  0  0  0
  2 36  1  0  0  0  0
  2 37  1  0  0  0  0
  3  4  2  0  0  0  0
  3  5  1  0  0  0  0
  5  6  2  0  0  0  0
  5 22  1  0  0  0  0
  6  7  1  0  0  0  0
  6 13  1  0  0  0  0
  7  8  2  0  0  0  0
  7 12  1  0  0  0  0
  8  9  1  0  0  0  0
  8 38  1  0  0  0  0
  9 10  2  0  0  0  0
  9 39  1  0  0  0  0
 10 11  1  0  0  0  0
 10 40  1  0  0  0  0
 11 12  2  0  0  0  0
 11 41  1  0  0  0  0
 12 42  1  0  0  0  0
 13 14  2  0  0  0  0
 13 19  1  0  0  0  0
 14 15  1  0  0  0  0
 14 43  1  0  0  0  0
 15 16  1  0  0  0  0
 15 17  2  0  0  0  0
 17 18  1  0  0  0  0
 17 44  1  0  0  0  0
 18 19  2  0  0  0  0
 18 45  1  0  0  0  0
 19 20  1  0  0  0  0
 20 21  2  0  0  0  0
 20 22  1  0  0  0  0
 22 23  1  0  0  0  0
 23 24  1  0  0  0  0
 23 46  1  0  0  0  0
 23 47  1  0  0  0  0
 24 25  2  0  0  0  0
 24 29  1  0  0  0  0
 25 26  1  0  0  0  0
 25 48  1  0  0  0  0
 26 27  2  0  0  0  0
 26 49  1  0  0  0  0
 27 28  1  0  0  0  0
 27 30  1  0  0  0  0
 28 29  2  0  0  0  0
 28 50  1  0  0  0  0
 29 51  1  0  0  0  0
 30 31  2  0  0  0  0
 30 32  1  0  0  0  0
 32 52  1  0  0  0  0
M  END
$$$$
