475
 OpenBabel04121316053D

 40 41  0  0  1  0  0  0  0  0999 V2000
    1.0333   -0.0231   -0.0442 O   0  0  0  0  0  0  0  0  0  0  0  0
    2.4070    0.0790   -0.3409 C   0  0  0  0  0  0  0  0  0  0  0  0
    3.1667   -1.2627   -0.2683 C   0  0  1  0  0  0  0  0  0  0  0  0
    3.6801   -1.2871   -1.2403 H   0  0  0  0  0  0  0  0  0  0  0  0
    4.1001   -0.9744    0.8003 O   0  0  0  0  0  0  0  0  0  0  0  0
    3.5621   -1.1483    2.1407 C   0  0  1  0  0  0  0  0  0  0  0  0
    4.3562   -0.7773    2.7920 H   0  0  0  0  0  0  0  0  0  0  0  0
    2.3762   -0.3382    2.4308 N   0  0  0  0  0  0  0  0  0  0  0  0
    1.6800   -0.4461    3.6265 C   0  0  0  0  0  0  0  0  0  0  0  0
    2.0958   -0.9311    4.6523 O   0  0  0  0  0  0  0  0  0  0  0  0
    0.2019    0.0330    3.5095 C   0  0  0  0  0  0  0  0  0  0  0  0
   -0.2029    0.4450    2.4281 O   0  0  0  0  0  0  0  0  0  0  0  0
   -0.5064   -0.0982    4.6843 N   0  0  0  0  0  0  0  0  0  0  0  0
   -1.8101    0.3815    4.7778 C   0  0  0  0  0  0  0  0  0  0  0  0
   -2.8206   -0.4351    4.2897 C   0  0  0  0  0  0  0  0  0  0  0  0
   -4.1131    0.0683    4.2148 C   0  0  0  0  0  0  0  0  0  0  0  0
   -4.3678    1.3450    4.6942 C   0  0  0  0  0  0  0  0  0  0  0  0
   -3.3188    2.0413    5.2776 C   0  0  0  0  0  0  0  0  0  0  0  0
   -2.0395    1.5888    5.3305 N   0  0  0  0  0  0  0  0  0  0  0  0
    3.3184   -2.6463    2.3693 C   0  0  1  0  0  0  0  0  0  0  0  0
    2.9531   -2.8144    3.3839 H   0  0  0  0  0  0  0  0  0  0  0  0
    2.2691   -3.1175    1.3434 C   0  0  2  0  0  0  0  0  0  0  0  0
    2.1840   -4.2073    1.4429 H   0  0  0  0  0  0  0  0  0  0  0  0
    2.6699   -2.7405   -0.0996 C   0  0  2  0  0  0  0  0  0  0  0  0
    1.8603   -2.9959   -0.7908 H   0  0  0  0  0  0  0  0  0  0  0  0
    3.7907   -3.5714   -0.5145 O   0  0  0  0  0  0  0  0  0  0  0  0
    0.9668   -2.5909    1.6339 O   0  0  0  0  0  0  0  0  0  0  0  0
    4.5320   -3.4058    2.2585 O   0  0  0  0  0  0  0  0  0  0  0  0
    0.6993    0.8927    0.0871 H   0  0  0  0  0  0  0  0  0  0  0  0
    2.8451    0.7834    0.3900 H   0  0  0  0  0  0  0  0  0  0  0  0
    2.5987    0.6255   -1.2680 H   0  0  0  0  0  0  0  0  0  0  0  0
    1.7423   -0.0421    1.6964 H   0  0  0  0  0  0  0  0  0  0  0  0
    0.0248   -0.2390    5.5327 H   0  0  0  0  0  0  0  0  0  0  0  0
   -2.6034   -1.4518    3.9816 H   0  0  0  0  0  0  0  0  0  0  0  0
   -4.9067   -0.5327    3.7822 H   0  0  0  0  0  0  0  0  0  0  0  0
   -5.3630    1.7724    4.6349 H   0  0  0  0  0  0  0  0  0  0  0  0
   -3.4942    3.0103    5.7390 H   0  0  0  0  0  0  0  0  0  0  0  0
    3.7261   -4.4504   -0.0991 H   0  0  0  0  0  0  0  0  0  0  0  0
    0.8928   -1.7055    1.2227 H   0  0  0  0  0  0  0  0  0  0  0  0
    5.2338   -2.9053    2.7145 H   0  0  0  0  0  0  0  0  0  0  0  0
  1  2  1  0  0  0  0
  1 29  1  0  0  0  0
  2  3  1  0  0  0  0
  2 30  1  0  0  0  0
  2 31  1  0  0  0  0
  3  4  1  6  0  0  0
  3  5  1  0  0  0  0
  3 24  1  0  0  0  0
  5  6  1  0  0  0  0
  6 20  1  0  0  0  0
  6  8  1  0  0  0  0
  6  7  1  1  0  0  0
  8  9  1  0  0  0  0
  8 32  1  0  0  0  0
  9 10  2  0  0  0  0
  9 11  1  0  0  0  0
 11 12  2  0  0  0  0
 11 13  1  0  0  0  0
 13 14  1  0  0  0  0
 13 33  1  0  0  0  0
 14 15  2  0  0  0  0
 14 19  1  0  0  0  0
 15 16  1  0  0  0  0
 15 34  1  0  0  0  0
 16 17  2  0  0  0  0
 16 35  1  0  0  0  0
 17 18  1  0  0  0  0
 17 36  1  0  0  0  0
 18 19  2  0  0  0  0
 18 37  1  0  0  0  0
 20 21  1  1  0  0  0
 20 22  1  0  0  0  0
 20 28  1  0  0  0  0
 22 24  1  0  0  0  0
 22 27  1  0  0  0  0
 22 23  1  1  0  0  0
 24 25  1  6  0  0  0
 24 26  1  0  0  0  0
 26 38  1  0  0  0  0
 27 39  1  0  0  0  0
 28 40  1  0  0  0  0
M  END
$$$$
