47D
 OpenBabel04121316053D

 33 35  0  0  0  0  0  0  0  0999 V2000
    0.7839   -0.0997   -0.0685 Cl  0  0  0  0  0  0  0  0  0  0  0  0
    2.5033   -0.0813   -0.1299 C   0  0  0  0  0  0  0  0  0  0  0  0
    3.1504    1.1608   -0.1427 C   0  0  0  0  0  0  0  0  0  0  0  0
    4.5294    1.2367   -0.0704 C   0  0  0  0  0  0  0  0  0  0  0  0
    5.1612    0.0226    0.1388 C   0  0  0  0  0  0  0  0  0  0  0  0
    4.6081   -1.2345   -0.0789 C   0  0  0  0  0  0  0  0  0  0  0  0
    3.2088   -1.2989   -0.1504 C   0  0  0  0  0  0  0  0  0  0  0  0
    5.5700   -2.2442   -0.1725 N   0  0  0  0  0  0  0  0  0  0  0  0
    6.7440   -1.7004    0.1212 C   0  0  0  0  0  0  0  0  0  0  0  0
    6.5833   -0.2496    1.0262 S   0  0  0  0  0  0  0  0  0  0  0  0
    8.1089   -2.2428   -0.0865 C   0  0  0  0  0  0  0  0  0  0  0  0
    9.2168   -1.2411   -0.0206 N   0  0  0  0  0  0  0  0  0  0  0  0
    9.1871    0.0670   -0.4581 C   0  0  0  0  0  0  0  0  0  0  0  0
    8.2977    0.6370   -1.0836 O   0  0  0  0  0  0  0  0  0  0  0  0
   10.3367    0.8960   -0.0472 C   0  0  0  0  0  0  0  0  0  0  0  0
   11.4163    0.2982    0.4562 C   0  0  0  0  0  0  0  0  0  0  0  0
   11.5317   -1.0818    0.4113 N   0  0  0  0  0  0  0  0  0  0  0  0
   10.4336   -1.8666    0.0839 C   0  0  0  0  0  0  0  0  0  0  0  0
   10.4565   -3.0636   -0.1335 O   0  0  0  0  0  0  0  0  0  0  0  0
   12.8929   -1.6676    0.4910 C   0  0  0  0  0  0  0  0  0  0  0  0
   13.1936   -3.1951    0.2882 C   0  0  0  0  0  0  0  0  0  0  0  0
   12.4407   -4.1070    0.0505 O   0  0  0  0  0  0  0  0  0  0  0  0
   14.5090   -3.5092    0.3958 O   0  0  0  0  0  0  0  0  0  0  0  0
    2.5919    2.0920   -0.1210 H   0  0  0  0  0  0  0  0  0  0  0  0
    5.0772    2.1690    0.0043 H   0  0  0  0  0  0  0  0  0  0  0  0
    2.7013   -2.2569   -0.1456 H   0  0  0  0  0  0  0  0  0  0  0  0
    8.2002   -2.8480   -0.9993 H   0  0  0  0  0  0  0  0  0  0  0  0
    8.2686   -2.9430    0.7532 H   0  0  0  0  0  0  0  0  0  0  0  0
   10.2426    1.9645   -0.1978 H   0  0  0  0  0  0  0  0  0  0  0  0
   12.2548    0.8887    0.8188 H   0  0  0  0  0  0  0  0  0  0  0  0
   13.2943   -1.3772    1.4718 H   0  0  0  0  0  0  0  0  0  0  0  0
   13.4808   -1.1302   -0.2693 H   0  0  0  0  0  0  0  0  0  0  0  0
   15.1330   -2.7970    0.5874 H   0  0  0  0  0  0  0  0  0  0  0  0
  1  2  1  0  0  0  0
  2  3  2  0  0  0  0
  2  7  1  0  0  0  0
  3  4  1  0  0  0  0
  3 24  1  0  0  0  0
  4  5  2  0  0  0  0
  4 25  1  0  0  0  0
  5  6  1  0  0  0  0
  5 10  1  0  0  0  0
  6  7  2  0  0  0  0
  6  8  1  0  0  0  0
  7 26  1  0  0  0  0
  8  9  2  0  0  0  0
  9 10  1  0  0  0  0
  9 11  1  0  0  0  0
 11 12  1  0  0  0  0
 11 27  1  0  0  0  0
 11 28  1  0  0  0  0
 12 13  1  0  0  0  0
 12 18  1  0  0  0  0
 13 14  2  0  0  0  0
 13 15  1  0  0  0  0
 15 16  2  0  0  0  0
 15 29  1  0  0  0  0
 16 17  1  0  0  0  0
 16 30  1  0  0  0  0
 17 18  1  0  0  0  0
 17 20  1  0  0  0  0
 18 19  2  0  0  0  0
 20 21  1  0  0  0  0
 20 31  1  0  0  0  0
 20 32  1  0  0  0  0
 21 22  2  0  0  0  0
 21 23  1  0  0  0  0
 23 33  1  0  0  0  0
M  END
$$$$
