49U
 OpenBabel04121316053D

 57 59  0  0  1  0  0  0  0  0999 V2000
    2.5363    0.4016   -3.5818 O   0  0  0  0  0  0  0  0  0  0  0  0
    2.2132    0.1945   -2.4082 C   0  0  0  0  0  0  0  0  0  0  0  0
    3.1136    0.5261   -1.1996 C   0  0  2  0  0  0  0  0  0  0  0  0
    2.6986    0.1639   -0.2603 H   0  0  0  0  0  0  0  0  0  0  0  0
    3.3481    2.0320   -1.1136 C   0  0  0  0  0  0  0  0  0  0  0  0
    4.5343    2.2509   -2.0440 C   0  0  0  0  0  0  0  0  0  0  0  0
    5.3634    0.9791   -1.8791 C   0  0  0  0  0  0  0  0  0  0  0  0
    4.4432   -0.0341   -1.3852 N   0  0  0  0  0  0  0  0  0  0  0  0
    4.8685   -1.3165   -1.1025 C   0  0  0  0  0  0  0  0  0  0  0  0
    6.0436   -1.6494   -1.2601 O   0  0  0  0  0  0  0  0  0  0  0  0
    3.8325   -2.3041   -0.5674 C   0  0  0  0  0  0  0  0  0  0  0  0
    4.4242   -3.6985   -0.3073 C   0  0  0  0  0  0  0  0  0  0  0  0
    3.3817   -4.6752    0.2515 C   0  0  0  0  0  0  0  0  0  0  0  0
    3.8443   -6.1331    0.2448 C   0  0  0  0  0  0  0  0  0  0  0  0
    2.9252   -6.7994    1.2582 C   0  0  0  0  0  0  0  0  0  0  0  0
    2.7534   -5.7617    2.3591 C   0  0  0  0  0  0  0  0  0  0  0  0
    3.0536   -4.4048    1.7241 C   0  0  0  0  0  0  0  0  0  0  0  0
    0.9977   -0.3603   -2.1535 N   0  0  0  0  0  0  0  0  0  0  0  0
    0.4881   -0.6753   -0.8485 C   0  0  0  0  0  0  0  0  0  0  0  0
   -0.8490   -1.3173   -0.9391 C   0  0  0  0  0  0  0  0  0  0  0  0
   -1.9849   -0.6464   -0.4883 C   0  0  0  0  0  0  0  0  0  0  0  0
   -3.2083   -1.3060   -0.4572 C   0  0  0  0  0  0  0  0  0  0  0  0
   -3.3257   -2.5985   -0.9833 C   0  0  0  0  0  0  0  0  0  0  0  0
   -2.2035   -3.2048   -1.5653 C   0  0  0  0  0  0  0  0  0  0  0  0
   -0.9593   -2.5978   -1.4836 C   0  0  0  0  0  0  0  0  0  0  0  0
   -4.6121   -3.3537   -0.9022 C   0  0  0  0  0  0  0  0  0  0  0  0
   -5.6741   -2.9076   -0.3074 N   0  0  0  0  0  0  0  0  0  0  0  0
   -4.7285   -4.5903   -1.4468 N   0  0  0  0  0  0  0  0  0  0  0  0
    3.6362    2.3003   -0.0895 H   0  0  0  0  0  0  0  0  0  0  0  0
    2.4753    2.6327   -1.3894 H   0  0  0  0  0  0  0  0  0  0  0  0
    5.0980    3.1546   -1.7963 H   0  0  0  0  0  0  0  0  0  0  0  0
    4.1880    2.3521   -3.0791 H   0  0  0  0  0  0  0  0  0  0  0  0
    6.1583    1.1161   -1.1393 H   0  0  0  0  0  0  0  0  0  0  0  0
    5.8071    0.6503   -2.8237 H   0  0  0  0  0  0  0  0  0  0  0  0
    3.0288   -2.4020   -1.3043 H   0  0  0  0  0  0  0  0  0  0  0  0
    3.4160   -1.9079    0.3652 H   0  0  0  0  0  0  0  0  0  0  0  0
    5.2665   -3.6152    0.3924 H   0  0  0  0  0  0  0  0  0  0  0  0
    4.8387   -4.0952   -1.2418 H   0  0  0  0  0  0  0  0  0  0  0  0
    2.4599   -4.6066   -0.3423 H   0  0  0  0  0  0  0  0  0  0  0  0
    4.8889   -6.2224    0.5638 H   0  0  0  0  0  0  0  0  0  0  0  0
    3.7504   -6.5914   -0.7455 H   0  0  0  0  0  0  0  0  0  0  0  0
    3.3408   -7.7371    1.6403 H   0  0  0  0  0  0  0  0  0  0  0  0
    1.9533   -7.0256    0.8036 H   0  0  0  0  0  0  0  0  0  0  0  0
    3.4631   -5.9526    3.1726 H   0  0  0  0  0  0  0  0  0  0  0  0
    1.7477   -5.7941    2.7897 H   0  0  0  0  0  0  0  0  0  0  0  0
    3.9008   -3.9438    2.2457 H   0  0  0  0  0  0  0  0  0  0  0  0
    2.2046   -3.7199    1.8181 H   0  0  0  0  0  0  0  0  0  0  0  0
    0.4446   -0.5795   -2.9757 H   0  0  0  0  0  0  0  0  0  0  0  0
    0.4539    0.2443   -0.2551 H   0  0  0  0  0  0  0  0  0  0  0  0
    1.1727   -1.3661   -0.3468 H   0  0  0  0  0  0  0  0  0  0  0  0
   -1.9217    0.3814   -0.1372 H   0  0  0  0  0  0  0  0  0  0  0  0
   -4.0459   -0.7802   -0.0147 H   0  0  0  0  0  0  0  0  0  0  0  0
   -2.2582   -4.1579   -2.0767 H   0  0  0  0  0  0  0  0  0  0  0  0
   -0.0783   -3.1244   -1.8479 H   0  0  0  0  0  0  0  0  0  0  0  0
   -5.5446   -1.9814    0.0959 H   0  0  0  0  0  0  0  0  0  0  0  0
   -3.9663   -5.1168   -1.8392 H   0  0  0  0  0  0  0  0  0  0  0  0
   -5.5981   -5.0769   -1.2764 H   0  0  0  0  0  0  0  0  0  0  0  0
  1  2  2  0  0  0  0
  2 18  1  0  0  0  0
  3  5  1  0  0  0  0
  3  8  1  0  0  0  0
  3  4  1  1  0  0  0
  3  2  1  0  0  0  0
  5  6  1  0  0  0  0
  5 29  1  0  0  0  0
  5 30  1  0  0  0  0
  6  7  1  0  0  0  0
  6 31  1  0  0  0  0
  6 32  1  0  0  0  0
  7  8  1  0  0  0  0
  7 33  1  0  0  0  0
  7 34  1  0  0  0  0
  8  9  1  0  0  0  0
  9 10  2  0  0  0  0
  9 11  1  0  0  0  0
 11 12  1  0  0  0  0
 11 35  1  0  0  0  0
 11 36  1  0  0  0  0
 12 13  1  0  0  0  0
 12 37  1  0  0  0  0
 12 38  1  0  0  0  0
 13 14  1  0  0  0  0
 13 17  1  0  0  0  0
 13 39  1  0  0  0  0
 14 15  1  0  0  0  0
 14 40  1  0  0  0  0
 14 41  1  0  0  0  0
 15 16  1  0  0  0  0
 15 42  1  0  0  0  0
 15 43  1  0  0  0  0
 16 17  1  0  0  0  0
 16 44  1  0  0  0  0
 16 45  1  0  0  0  0
 17 46  1  0  0  0  0
 17 47  1  0  0  0  0
 18 19  1  0  0  0  0
 18 48  1  0  0  0  0
 19 20  1  0  0  0  0
 19 49  1  0  0  0  0
 19 50  1  0  0  0  0
 20 21  2  0  0  0  0
 20 25  1  0  0  0  0
 21 22  1  0  0  0  0
 21 51  1  0  0  0  0
 22 23  2  0  0  0  0
 22 52  1  0  0  0  0
 23 24  1  0  0  0  0
 23 26  1  0  0  0  0
 24 25  2  0  0  0  0
 24 53  1  0  0  0  0
 25 54  1  0  0  0  0
 26 27  2  0  0  0  0
 26 28  1  0  0  0  0
 27 55  1  0  0  0  0
 28 56  1  0  0  0  0
 28 57  1  0  0  0  0
M  END
$$$$
