4AA
 OpenBabel04121316053D

 18 18  0  0  0  0  0  0  0  0999 V2000
    1.0433   -0.0630   -0.0270 O   0  0  0  0  0  0  0  0  0  0  0  0
    2.3891    0.0048    0.0033 C   0  0  0  0  0  0  0  0  0  0  0  0
    2.9661    1.0450    0.2945 O   0  0  0  0  0  0  0  0  0  0  0  0
    3.0481   -1.2720   -0.3612 C   0  0  0  0  0  0  0  0  0  0  0  0
    4.3782   -1.2213   -0.8142 C   0  0  0  0  0  0  0  0  0  0  0  0
    5.1115   -2.4004   -0.9658 C   0  0  0  0  0  0  0  0  0  0  0  0
    4.4548   -3.6261   -0.9055 C   0  0  0  0  0  0  0  0  0  0  0  0
    3.1045   -3.6769   -0.5483 C   0  0  0  0  0  0  0  0  0  0  0  0
    2.4057   -2.5129   -0.1888 C   0  0  0  0  0  0  0  0  0  0  0  0
    1.2357   -2.6409    0.5919 N   0  0  0  0  0  0  0  0  0  0  0  0
    2.4090   -4.8645   -0.5318 O   0  0  0  0  0  0  0  0  0  0  0  0
    5.3176   -5.0691   -1.2862 Cl  0  0  0  0  0  0  0  0  0  0  0  0
    0.7343    0.8216    0.2602 H   0  0  0  0  0  0  0  0  0  0  0  0
    4.8562   -0.2642   -1.0177 H   0  0  0  0  0  0  0  0  0  0  0  0
    6.1857   -2.3534   -1.1289 H   0  0  0  0  0  0  0  0  0  0  0  0
    0.7427   -3.5160    0.4369 H   0  0  0  0  0  0  0  0  0  0  0  0
    0.6498   -1.8053    0.5684 H   0  0  0  0  0  0  0  0  0  0  0  0
    2.9987   -5.5467   -0.9026 H   0  0  0  0  0  0  0  0  0  0  0  0
  1  2  1  0  0  0  0
  1 13  1  0  0  0  0
  2  3  2  0  0  0  0
  2  4  1  0  0  0  0
  4  5  2  0  0  0  0
  4  9  1  0  0  0  0
  5  6  1  0  0  0  0
  5 14  1  0  0  0  0
  6  7  2  0  0  0  0
  6 15  1  0  0  0  0
  7  8  1  0  0  0  0
  7 12  1  0  0  0  0
  8  9  2  0  0  0  0
  8 11  1  0  0  0  0
  9 10  1  0  0  0  0
 10 16  1  0  0  0  0
 10 17  1  0  0  0  0
 11 18  1  0  0  0  0
M  END
$$$$
