4AD
 OpenBabel04121316053D

 52 54  0  0  1  0  0  0  0  0999 V2000
    1.0090   -0.0209    0.1021 N   0  0  0  0  0  0  0  0  0  0  0  0
    2.3350   -0.1879   -0.0450 C   0  0  0  0  0  0  0  0  0  0  0  0
    2.8851    0.0559   -1.1222 O   0  0  0  0  0  0  0  0  0  0  0  0
    3.0787   -0.6663    1.1729 C   0  0  0  0  0  0  0  0  0  0  0  0
    4.5501   -0.4364    0.9408 C   0  0  1  0  0  0  0  0  0  0  0  0
    4.9723   -0.8816    0.0339 H   0  0  0  0  0  0  0  0  0  0  0  0
    4.7472    1.0662    0.9818 C   0  0  0  0  0  0  0  0  0  0  0  0
    5.2686    1.5297    1.9965 O   0  0  0  0  0  0  0  0  0  0  0  0
    4.5205    1.6774   -0.2224 O   0  0  0  0  0  0  0  0  0  0  0  0
    4.9305    3.3127   -0.4162 P   0  0  1  0  0  0  0  0  0  0  0  0
    4.3563    3.7043    0.9398 O   0  0  0  0  0  0  0  0  0  0  0  0
    6.5715    2.9412   -0.3890 O   0  0  0  0  0  0  0  0  0  0  0  0
    7.0009    1.5863   -0.5528 C   0  0  0  0  0  0  0  0  0  0  0  0
    8.4647    1.1935   -0.5359 C   0  0  1  0  0  0  0  0  0  0  0  0
    8.9118    1.3407   -1.5218 H   0  0  0  0  0  0  0  0  0  0  0  0
    9.1726    1.9283    0.4779 O   0  0  0  0  0  0  0  0  0  0  0  0
   10.3353    1.1333    0.7798 C   0  0  2  0  0  0  0  0  0  0  0  0
   11.0723    1.3157   -0.0110 H   0  0  0  0  0  0  0  0  0  0  0  0
    9.8505   -0.3206    0.7512 C   0  0  1  0  0  0  0  0  0  0  0  0
    9.5284   -0.6787    1.7303 H   0  0  0  0  0  0  0  0  0  0  0  0
    8.5725   -0.2759   -0.0625 C   0  0  2  0  0  0  0  0  0  0  0  0
    7.7785   -0.5099    0.6550 H   0  0  0  0  0  0  0  0  0  0  0  0
    8.4228   -1.2677   -1.0552 O   0  0  0  0  0  0  0  0  0  0  0  0
   10.7912   -1.2440    0.2321 O   0  0  0  0  0  0  0  0  0  0  0  0
   10.9360    1.5781    2.0229 N   0  0  0  0  0  0  0  0  0  0  0  0
   11.4749    2.8251    2.2240 C   0  0  0  0  0  0  0  0  0  0  0  0
   12.0571    2.9276    3.4002 N   0  0  0  0  0  0  0  0  0  0  0  0
   11.8995    1.6918    3.9880 C   0  0  0  0  0  0  0  0  0  0  0  0
   11.2254    0.8304    3.1398 C   0  0  0  0  0  0  0  0  0  0  0  0
   10.9344   -0.4609    3.3828 N   0  0  0  0  0  0  0  0  0  0  0  0
   11.3509   -0.8462    4.6038 C   0  0  0  0  0  0  0  0  0  0  0  0
   11.9911   -0.1124    5.5283 N   0  0  0  0  0  0  0  0  0  0  0  0
   12.2894    1.1741    5.2354 C   0  0  0  0  0  0  0  0  0  0  0  0
   12.9522    1.9203    6.1782 N   0  0  0  0  0  0  0  0  0  0  0  0
    5.3484    4.9798   -0.6137 O   0  0  0  0  0  0  0  0  0  0  0  0
    5.3444   -1.0661    2.0991 N   0  3  0  0  0  0  0  0  0  0  0  0
    5.1641   -0.5276    2.9649 H   0  0  0  0  0  0  0  0  0  0  0  0
    5.1582   -2.0624    2.2576 H   0  0  0  0  0  0  0  0  0  0  0  0
    6.3564   -0.9536    1.9647 H   0  0  0  0  0  0  0  0  0  0  0  0
    0.4945    0.2949   -0.7143 H   0  0  0  0  0  0  0  0  0  0  0  0
    0.4740   -0.4015    0.8725 H   0  0  0  0  0  0  0  0  0  0  0  0
    2.8670   -1.7257    1.3266 H   0  0  0  0  0  0  0  0  0  0  0  0
    2.7538   -0.0999    2.0559 H   0  0  0  0  0  0  0  0  0  0  0  0
    6.4647    1.0799   -1.3666 H   0  0  0  0  0  0  0  0  0  0  0  0
    6.7334    1.1326    0.3822 H   0  0  0  0  0  0  0  0  0  0  0  0
    8.9667   -2.0339   -0.7704 H   0  0  0  0  0  0  0  0  0  0  0  0
   11.5960   -1.1635    0.7845 H   0  0  0  0  0  0  0  0  0  0  0  0
   11.4230    3.6129    1.4810 H   0  0  0  0  0  0  0  0  0  0  0  0
   11.1354   -1.8752    4.8796 H   0  0  0  0  0  0  0  0  0  0  0  0
   13.2236    1.4818    7.0434 H   0  0  0  0  0  0  0  0  0  0  0  0
   13.2071    2.8723    5.9555 H   0  0  0  0  0  0  0  0  0  0  0  0
    4.6322    5.5097   -0.2143 H   0  0  0  0  0  0  0  0  0  0  0  0
  1  2  1  0  0  0  0
  1 40  1  0  0  0  0
  1 41  1  0  0  0  0
  2  3  2  0  0  0  0
  2  4  1  0  0  0  0
  4  5  1  0  0  0  0
  4 42  1  0  0  0  0
  4 43  1  0  0  0  0
  5  6  1  6  0  0  0
  5  7  1  0  0  0  0
  5 36  1  0  0  0  0
  7  8  2  0  0  0  0
  7  9  1  0  0  0  0
 10  9  1  6  0  0  0
 10 11  2  0  0  0  0
 10 12  1  0  0  0  0
 10 35  1  0  0  0  0
 12 13  1  0  0  0  0
 13 14  1  0  0  0  0
 13 44  1  0  0  0  0
 13 45  1  0  0  0  0
 14 15  1  6  0  0  0
 14 16  1  0  0  0  0
 14 21  1  0  0  0  0
 16 17  1  0  0  0  0
 17 19  1  0  0  0  0
 17 25  1  0  0  0  0
 17 18  1  6  0  0  0
 19 20  1  1  0  0  0
 19 21  1  0  0  0  0
 19 24  1  0  0  0  0
 21 22  1  1  0  0  0
 21 23  1  0  0  0  0
 23 46  1  0  0  0  0
 24 47  1  0  0  0  0
 25 26  1  0  0  0  0
 25 29  1  0  0  0  0
 26 27  2  0  0  0  0
 26 48  1  0  0  0  0
 27 28  1  0  0  0  0
 28 29  2  0  0  0  0
 28 33  1  0  0  0  0
 29 30  1  0  0  0  0
 30 31  2  0  0  0  0
 31 32  1  0  0  0  0
 31 49  1  0  0  0  0
 32 33  2  0  0  0  0
 33 34  1  0  0  0  0
 34 50  1  0  0  0  0
 34 51  1  0  0  0  0
 35 52  1  0  0  0  0
 36 37  1  0  0  0  0
 36 38  1  0  0  0  0
 36 39  1  0  0  0  0
M  CHG  1  36   1
M  END
$$$$
