4AN
 OpenBabel04121316053D

 24 26  0  0  0  0  0  0  0  0999 V2000
    1.0022    0.1724   -0.0081 N   0  0  0  0  0  0  0  0  0  0  0  0
    2.3908    0.1265   -0.0162 C   0  0  0  0  0  0  0  0  0  0  0  0
    3.0999    1.3340   -0.0153 C   0  0  0  0  0  0  0  0  0  0  0  0
    4.4936    1.3501   -0.0168 C   0  0  0  0  0  0  0  0  0  0  0  0
    5.1985    0.1455   -0.0177 C   0  0  0  0  0  0  0  0  0  0  0  0
    4.5226   -1.0845   -0.0172 C   0  0  0  0  0  0  0  0  0  0  0  0
    3.1037   -1.0996   -0.0154 C   0  0  0  0  0  0  0  0  0  0  0  0
    2.4549   -2.3531   -0.0136 C   0  0  0  0  0  0  0  0  0  0  0  0
    3.1638   -3.5513   -0.0139 C   0  0  0  0  0  0  0  0  0  0  0  0
    4.5500   -3.5292   -0.0167 C   0  0  0  0  0  0  0  0  0  0  0  0
    5.2231   -2.3034   -0.0187 C   0  0  0  0  0  0  0  0  0  0  0  0
    6.7024   -2.2941   -0.0231 C   0  0  0  0  0  0  0  0  0  0  0  0
    7.3527   -3.3337   -0.0314 O   0  0  0  0  0  0  0  0  0  0  0  0
    7.3048   -1.0599   -0.0186 N   0  0  0  0  0  0  0  0  0  0  0  0
    8.3149   -1.0525   -0.0209 H   0  0  0  0  0  0  0  0  0  0  0  0
    6.6799    0.1638   -0.0183 C   0  0  0  0  0  0  0  0  0  0  0  0
    7.3132    1.2141   -0.0191 O   0  0  0  0  0  0  0  0  0  0  0  0
    0.5107    1.0541   -0.0170 H   0  0  0  0  0  0  0  0  0  0  0  0
    0.4461   -0.6687   -0.0173 H   0  0  0  0  0  0  0  0  0  0  0  0
    2.5630    2.2796   -0.0138 H   0  0  0  0  0  0  0  0  0  0  0  0
    5.0225    2.3012   -0.0170 H   0  0  0  0  0  0  0  0  0  0  0  0
    1.3716   -2.4203   -0.0122 H   0  0  0  0  0  0  0  0  0  0  0  0
    2.6237   -4.4941   -0.0124 H   0  0  0  0  0  0  0  0  0  0  0  0
    5.1026   -4.4657   -0.0172 H   0  0  0  0  0  0  0  0  0  0  0  0
  1  2  1  0  0  0  0
  1 18  1  0  0  0  0
  1 19  1  0  0  0  0
  2  3  2  0  0  0  0
  2  7  1  0  0  0  0
  3  4  1  0  0  0  0
  3 20  1  0  0  0  0
  4  5  2  0  0  0  0
  4 21  1  0  0  0  0
  5  6  1  0  0  0  0
  5 16  1  0  0  0  0
  6  7  2  0  0  0  0
  6 11  1  0  0  0  0
  7  8  1  0  0  0  0
  8  9  2  0  0  0  0
  8 22  1  0  0  0  0
  9 10  1  0  0  0  0
  9 23  1  0  0  0  0
 10 11  2  0  0  0  0
 10 24  1  0  0  0  0
 11 12  1  0  0  0  0
 12 13  2  0  0  0  0
 12 14  1  0  0  0  0
 14 15  1  0  0  0  0
 14 16  1  0  0  0  0
 16 17  2  0  0  0  0
M  END
$$$$
