4AT
 OpenBabel04121316053D

 19 18  0  0  0  0  0  0  0  0999 V2000
    1.0093    0.0327    0.0967 C   0  0  0  0  0  0  0  0  0  0  0  0
    2.5097    0.0402    0.0362 C   0  0  0  0  0  0  0  0  0  0  0  0
    3.0910    0.1741   -1.0398 O   0  0  0  0  0  0  0  0  0  0  0  0
    3.2488   -0.1237    1.3539 C   0  0  0  0  0  0  0  0  0  0  0  0
    4.7536   -0.0951    1.1234 C   0  0  0  0  0  0  0  0  0  0  0  0
    5.5631   -0.2548    2.4072 C   0  0  0  0  0  0  0  0  0  0  0  0
    7.0409   -0.2143    2.0820 C   0  0  0  0  0  0  0  0  0  0  0  0
    7.5056   -0.0747    0.9596 O   0  0  0  0  0  0  0  0  0  0  0  0
    7.8353   -0.3491    3.1653 O   0  0  0  0  0  0  0  0  0  0  0  0
    0.6108    0.1585   -0.9142 H   0  0  0  0  0  0  0  0  0  0  0  0
    0.6632    0.8603    0.7195 H   0  0  0  0  0  0  0  0  0  0  0  0
    0.6632   -0.9223    0.4977 H   0  0  0  0  0  0  0  0  0  0  0  0
    2.9524   -1.0775    1.8037 H   0  0  0  0  0  0  0  0  0  0  0  0
    2.9524    0.6908    2.0237 H   0  0  0  0  0  0  0  0  0  0  0  0
    5.0269    0.8504    0.6360 H   0  0  0  0  0  0  0  0  0  0  0  0
    5.0269   -0.8923    0.4192 H   0  0  0  0  0  0  0  0  0  0  0  0
    5.3253   -1.2138    2.8802 H   0  0  0  0  0  0  0  0  0  0  0  0
    5.3253    0.5591    3.1008 H   0  0  0  0  0  0  0  0  0  0  0  0
    7.3650   -0.4544    4.0117 H   0  0  0  0  0  0  0  0  0  0  0  0
  1  2  1  0  0  0  0
  1 10  1  0  0  0  0
  1 11  1  0  0  0  0
  1 12  1  0  0  0  0
  2  3  2  0  0  0  0
  2  4  1  0  0  0  0
  4  5  1  0  0  0  0
  4 13  1  0  0  0  0
  4 14  1  0  0  0  0
  5  6  1  0  0  0  0
  5 15  1  0  0  0  0
  5 16  1  0  0  0  0
  6  7  1  0  0  0  0
  6 17  1  0  0  0  0
  6 18  1  0  0  0  0
  7  8  2  0  0  0  0
  7  9  1  0  0  0  0
  9 19  1  0  0  0  0
M  END
$$$$
