4B3
 OpenBabel04121316053D

 59 61  0  0  0  0  0  0  0  0999 V2000
    1.1377    0.0965   -0.1971 O   0  0  0  0  0  0  0  0  0  0  0  0
    2.4813    0.0827   -0.0566 C   0  0  0  0  0  0  0  0  0  0  0  0
    2.9797   -0.0070    1.0540 O   0  0  0  0  0  0  0  0  0  0  0  0
    3.2231    0.1530   -1.3955 C   0  0  0  0  0  0  0  0  0  0  0  0
    4.6376    0.2545   -1.1483 O   0  0  0  0  0  0  0  0  0  0  0  0
    5.4319    0.1028   -2.2508 C   0  0  0  0  0  0  0  0  0  0  0  0
    6.1156    1.1714   -2.9772 C   0  0  0  0  0  0  0  0  0  0  0  0
    5.7765    2.9894   -2.5320 Br  0  0  0  0  0  0  0  0  0  0  0  0
    6.9902    0.7147   -3.9635 C   0  0  0  0  0  0  0  0  0  0  0  0
    6.9320   -0.9984   -3.9654 S   0  0  0  0  0  0  0  0  0  0  0  0
    5.8603   -1.1387   -2.6762 C   0  0  0  0  0  0  0  0  0  0  0  0
    5.6240   -2.5233   -2.3107 C   0  0  0  0  0  0  0  0  0  0  0  0
    6.0997   -3.4951   -2.8663 O   0  0  0  0  0  0  0  0  0  0  0  0
    4.7696   -2.6669   -1.2699 O   0  0  0  0  0  0  0  0  0  0  0  0
    7.8812    1.2954   -5.0133 C   0  0  0  0  0  0  0  0  0  0  0  0
    7.9328    2.6468   -5.3363 C   0  0  0  0  0  0  0  0  0  0  0  0
    8.6827    3.0982   -6.4309 C   0  0  0  0  0  0  0  0  0  0  0  0
    9.3216    2.1927   -7.2745 C   0  0  0  0  0  0  0  0  0  0  0  0
    9.3568    0.8422   -6.9492 C   0  0  0  0  0  0  0  0  0  0  0  0
    8.6967    0.4430   -5.7979 C   0  0  0  0  0  0  0  0  0  0  0  0
   10.0687   -0.0427   -7.7253 N   0  0  0  0  0  0  0  0  0  0  0  0
    9.9258   -1.5007   -7.7482 C   0  0  0  0  0  0  0  0  0  0  0  0
    8.5142   -2.0518   -8.0747 C   0  0  0  0  0  0  0  0  0  0  0  0
    8.0738   -1.8805   -9.5440 C   0  0  0  0  0  0  0  0  0  0  0  0
    7.8048   -0.4048   -9.8314 C   0  0  0  0  0  0  0  0  0  0  0  0
    6.7400   -2.5982   -9.8014 C   0  0  0  0  0  0  0  0  0  0  0  0
    9.1607   -2.4754  -10.4664 C   0  0  0  0  0  0  0  0  0  0  0  0
   10.5690   -1.8719  -10.2481 C   0  0  0  0  0  0  0  0  0  0  0  0
   10.9545   -2.0499   -8.7518 C   0  0  0  0  0  0  0  0  0  0  0  0
   10.7115   -0.4277  -10.7919 C   0  0  0  0  0  0  0  0  0  0  0  0
   11.5774   -2.6550  -11.1073 C   0  0  0  0  0  0  0  0  0  0  0  0
    0.7797    0.0860    0.7193 H   0  0  0  0  0  0  0  0  0  0  0  0
    2.8741    1.0351   -1.9372 H   0  0  0  0  0  0  0  0  0  0  0  0
    2.9838   -0.7652   -1.9452 H   0  0  0  0  0  0  0  0  0  0  0  0
    4.5974   -1.8301   -0.8086 H   0  0  0  0  0  0  0  0  0  0  0  0
    7.3918    3.3849   -4.7640 H   0  0  0  0  0  0  0  0  0  0  0  0
    8.7609    4.1621   -6.6328 H   0  0  0  0  0  0  0  0  0  0  0  0
    9.7996    2.5528   -8.1826 H   0  0  0  0  0  0  0  0  0  0  0  0
    8.8274   -0.6019   -5.5369 H   0  0  0  0  0  0  0  0  0  0  0  0
   10.4632    0.3765   -8.5530 H   0  0  0  0  0  0  0  0  0  0  0  0
   10.2025   -1.8648   -6.7514 H   0  0  0  0  0  0  0  0  0  0  0  0
    7.7491   -1.6284   -7.4154 H   0  0  0  0  0  0  0  0  0  0  0  0
    8.5277   -3.1303   -7.8466 H   0  0  0  0  0  0  0  0  0  0  0  0
    6.9537   -0.0127   -9.2721 H   0  0  0  0  0  0  0  0  0  0  0  0
    7.6947   -0.2079  -10.9008 H   0  0  0  0  0  0  0  0  0  0  0  0
    8.6056    0.2133   -9.4785 H   0  0  0  0  0  0  0  0  0  0  0  0
    5.9563   -2.1900   -9.1529 H   0  0  0  0  0  0  0  0  0  0  0  0
    6.8052   -3.6750   -9.6212 H   0  0  0  0  0  0  0  0  0  0  0  0
    6.4214   -2.4453  -10.8401 H   0  0  0  0  0  0  0  0  0  0  0  0
    8.8632   -2.3850  -11.5184 H   0  0  0  0  0  0  0  0  0  0  0  0
    9.2151   -3.5620  -10.2751 H   0  0  0  0  0  0  0  0  0  0  0  0
   11.9361   -1.6013   -8.5580 H   0  0  0  0  0  0  0  0  0  0  0  0
   11.0624   -3.1244   -8.5378 H   0  0  0  0  0  0  0  0  0  0  0  0
   10.1235    0.3651  -10.3538 H   0  0  0  0  0  0  0  0  0  0  0  0
   10.4317   -0.3926  -11.8495 H   0  0  0  0  0  0  0  0  0  0  0  0
   11.7379   -0.0734  -10.6630 H   0  0  0  0  0  0  0  0  0  0  0  0
   11.6062   -3.7167  -10.8534 H   0  0  0  0  0  0  0  0  0  0  0  0
   12.5840   -2.2408  -10.9753 H   0  0  0  0  0  0  0  0  0  0  0  0
   11.3181   -2.5624  -12.1688 H   0  0  0  0  0  0  0  0  0  0  0  0
  1  2  1  0  0  0  0
  1 32  1  0  0  0  0
  2  3  2  0  0  0  0
  2  4  1  0  0  0  0
  4  5  1  0  0  0  0
  4 33  1  0  0  0  0
  4 34  1  0  0  0  0
  5  6  1  0  0  0  0
  6  7  1  0  0  0  0
  6 11  2  0  0  0  0
  7  8  1  0  0  0  0
  7  9  2  0  0  0  0
  9 10  1  0  0  0  0
  9 15  1  0  0  0  0
 10 11  1  0  0  0  0
 11 12  1  0  0  0  0
 12 13  2  0  0  0  0
 12 14  1  0  0  0  0
 14 35  1  0  0  0  0
 15 16  2  0  0  0  0
 15 20  1  0  0  0  0
 16 17  1  0  0  0  0
 16 36  1  0  0  0  0
 17 18  2  0  0  0  0
 17 37  1  0  0  0  0
 18 19  1  0  0  0  0
 18 38  1  0  0  0  0
 19 20  2  0  0  0  0
 19 21  1  0  0  0  0
 20 39  1  0  0  0  0
 21 22  1  0  0  0  0
 21 40  1  0  0  0  0
 22 23  1  0  0  0  0
 22 29  1  0  0  0  0
 22 41  1  0  0  0  0
 23 24  1  0  0  0  0
 23 42  1  0  0  0  0
 23 43  1  0  0  0  0
 24 25  1  0  0  0  0
 24 26  1  0  0  0  0
 24 27  1  0  0  0  0
 25 44  1  0  0  0  0
 25 45  1  0  0  0  0
 25 46  1  0  0  0  0
 26 47  1  0  0  0  0
 26 48  1  0  0  0  0
 26 49  1  0  0  0  0
 27 28  1  0  0  0  0
 27 50  1  0  0  0  0
 27 51  1  0  0  0  0
 28 29  1  0  0  0  0
 28 30  1  0  0  0  0
 28 31  1  0  0  0  0
 29 52  1  0  0  0  0
 29 53  1  0  0  0  0
 30 54  1  0  0  0  0
 30 55  1  0  0  0  0
 30 56  1  0  0  0  0
 31 57  1  0  0  0  0
 31 58  1  0  0  0  0
 31 59  1  0  0  0  0
M  END
$$$$
