4BD
 OpenBabel04121316053D

 48 49  0  0  1  0  0  0  0  0999 V2000
   -1.3728   -6.6962   -2.3520 O   0  0  0  0  0  0  0  0  0  0  0  0
   -1.6774   -5.3137   -2.3593 C   0  0  1  0  0  0  0  0  0  0  0  0
   -1.2898   -4.8616   -3.2808 H   0  0  0  0  0  0  0  0  0  0  0  0
   -3.1484   -5.0430   -2.2006 C   0  0  0  0  0  0  0  0  0  0  0  0
   -3.1739   -3.6351   -1.5964 C   0  0  1  0  0  0  0  0  0  0  0  0
   -4.0997   -3.4537   -1.0406 H   0  0  0  0  0  0  0  0  0  0  0  0
   -2.0871   -3.6693   -0.6709 O   0  0  0  0  0  0  0  0  0  0  0  0
   -1.1132   -4.6321   -1.1445 C   0  0  2  0  0  0  0  0  0  0  0  0
   -0.8976   -5.3252   -0.3205 H   0  0  0  0  0  0  0  0  0  0  0  0
    0.1282   -3.8865   -1.5386 C   0  0  0  0  0  0  0  0  0  0  0  0
    1.1160   -4.5970   -2.3072 O   0  0  0  0  0  0  0  0  0  0  0  0
    2.6642   -3.8622   -2.2717 P   0  0  2  0  0  0  0  0  0  0  0  0
    2.2960   -2.8168   -1.1963 O   0  0  0  0  0  0  0  0  0  0  0  0
    2.4893   -2.5863   -3.5719 C   0  0  0  0  0  0  0  0  0  0  0  0
    4.0808   -2.3925   -4.4542 P   0  0  1  0  0  0  0  0  0  0  0  0
    4.0628   -0.8701   -4.3239 O   0  0  0  0  0  0  0  0  0  0  0  0
    4.9064   -3.1368   -3.1287 O   0  0  0  0  0  0  0  0  0  0  0  0
    3.7632   -3.5577   -1.9004 P   0  0  0  0  0  0  0  0  0  0  0  0
    4.5022   -2.5266   -1.0050 O   0  0  0  0  0  0  0  0  0  0  0  0
    4.7154   -4.8802   -1.5520 O   0  0  0  0  0  0  0  0  0  0  0  0
    2.6200   -3.9786   -0.6721 O   0  0  0  0  0  0  0  0  0  0  0  0
    5.5853   -2.2092   -5.2884 O   0  0  0  0  0  0  0  0  0  0  0  0
    1.7061   -3.1404   -4.5270 F   0  0  0  0  0  0  0  0  0  0  0  0
    1.9630   -1.4317   -3.1516 F   0  0  0  0  0  0  0  0  0  0  0  0
    3.0768   -5.0333   -3.4763 O   0  0  0  0  0  0  0  0  0  0  0  0
   -3.0411   -2.5497   -2.6056 N   0  0  0  0  0  0  0  0  0  0  0  0
   -3.9812   -2.5188   -3.6268 C   0  0  0  0  0  0  0  0  0  0  0  0
   -3.8224   -1.7766   -4.7304 C   0  0  0  0  0  0  0  0  0  0  0  0
   -4.6980   -1.8421   -5.9348 C   0  0  0  0  0  0  0  0  0  0  0  0
   -2.6580   -0.8754   -4.7940 C   0  0  0  0  0  0  0  0  0  0  0  0
   -2.3697   -0.2518   -5.8231 O   0  0  0  0  0  0  0  0  0  0  0  0
   -1.9365   -0.7699   -3.6530 N   0  0  0  0  0  0  0  0  0  0  0  0
   -1.1528   -0.1335   -3.6457 H   0  0  0  0  0  0  0  0  0  0  0  0
   -2.0554   -1.5683   -2.5471 C   0  0  0  0  0  0  0  0  0  0  0  0
   -1.2639   -1.3678   -1.6250 O   0  0  0  0  0  0  0  0  0  0  0  0
   -1.6153   -7.0543   -3.2196 H   0  0  0  0  0  0  0  0  0  0  0  0
   -3.5629   -5.7665   -1.4882 H   0  0  0  0  0  0  0  0  0  0  0  0
   -3.6775   -5.1617   -3.1463 H   0  0  0  0  0  0  0  0  0  0  0  0
    0.4618   -3.4942   -0.5710 H   0  0  0  0  0  0  0  0  0  0  0  0
   -0.0769   -3.0459   -2.1824 H   0  0  0  0  0  0  0  0  0  0  0  0
    4.7290   -5.5915   -2.2192 H   0  0  0  0  0  0  0  0  0  0  0  0
    2.6504   -3.2619    0.0204 H   0  0  0  0  0  0  0  0  0  0  0  0
    5.4923   -1.4757   -5.9306 H   0  0  0  0  0  0  0  0  0  0  0  0
    3.8411   -4.9789   -4.0935 H   0  0  0  0  0  0  0  0  0  0  0  0
   -4.8434   -3.1718   -3.5163 H   0  0  0  0  0  0  0  0  0  0  0  0
   -5.5316   -2.5369   -5.7963 H   0  0  0  0  0  0  0  0  0  0  0  0
   -4.1143   -2.1961   -6.7926 H   0  0  0  0  0  0  0  0  0  0  0  0
   -5.1057   -0.8563   -6.1755 H   0  0  0  0  0  0  0  0  0  0  0  0
  1  2  1  0  0  0  0
  1 36  1  0  0  0  0
  2  3  1  6  0  0  0
  2  4  1  0  0  0  0
  2  8  1  0  0  0  0
  4  5  1  0  0  0  0
  4 37  1  0  0  0  0
  4 38  1  0  0  0  0
  5  6  1  1  0  0  0
  5  7  1  0  0  0  0
  5 26  1  0  0  0  0
  7  8  1  0  0  0  0
  8  9  1  1  0  0  0
  8 10  1  0  0  0  0
 10 11  1  0  0  0  0
 10 39  1  0  0  0  0
 10 40  1  0  0  0  0
 12 14  1  6  0  0  0
 12 25  1  0  0  0  0
 12 13  2  0  0  0  0
 12 11  1  0  0  0  0
 14 23  1  0  0  0  0
 14 24  1  0  0  0  0
 15 14  1  6  0  0  0
 15 16  2  0  0  0  0
 15 17  1  0  0  0  0
 15 22  1  0  0  0  0
 17 18  1  0  0  0  0
 18 19  2  0  0  0  0
 18 20  1  0  0  0  0
 18 21  1  0  0  0  0
 20 41  1  0  0  0  0
 21 42  1  0  0  0  0
 22 43  1  0  0  0  0
 25 44  1  0  0  0  0
 26 27  1  0  0  0  0
 26 34  1  0  0  0  0
 27 28  2  0  0  0  0
 27 45  1  0  0  0  0
 28 29  1  0  0  0  0
 28 30  1  0  0  0  0
 29 46  1  0  0  0  0
 29 47  1  0  0  0  0
 29 48  1  0  0  0  0
 30 31  2  0  0  0  0
 30 32  1  0  0  0  0
 32 33  1  0  0  0  0
 32 34  1  0  0  0  0
 34 35  2  0  0  0  0
M  END
$$$$
