4BF
 OpenBabel04121316053D

 23 23  0  0  1  0  0  0  0  0999 V2000
    2.9698   -0.2272   -1.3101 N   0  0  0  0  0  0  0  0  0  0  0  0
    2.4863    0.1240    0.0485 C   0  0  2  0  0  0  0  0  0  0  0  0
    1.3966    0.0075    0.0473 H   0  0  0  0  0  0  0  0  0  0  0  0
    2.7255    1.5969    0.4448 C   0  0  0  0  0  0  0  0  0  0  0  0
    2.9415    1.9814    1.5910 O   0  0  0  0  0  0  0  0  0  0  0  0
    2.5998    2.4947   -0.5559 O   0  0  0  0  0  0  0  0  0  0  0  0
    3.0897   -0.8542    1.0993 C   0  0  0  0  0  0  0  0  0  0  0  0
    4.6120   -0.9051    1.1186 C   0  0  0  0  0  0  0  0  0  0  0  0
    5.3828    0.2652    1.1735 C   0  0  0  0  0  0  0  0  0  0  0  0
    6.7430    0.2598    0.9025 C   0  0  0  0  0  0  0  0  0  0  0  0
    7.3964   -0.9513    0.7818 C   0  0  0  0  0  0  0  0  0  0  0  0
    6.6898   -2.1438    0.9307 C   0  0  0  0  0  0  0  0  0  0  0  0
    5.2927   -2.1243    1.0382 C   0  0  0  0  0  0  0  0  0  0  0  0
    9.2481   -0.9549    0.4235 Br  0  0  0  0  0  0  0  0  0  0  0  0
    3.9916   -0.2842   -1.3122 H   0  0  0  0  0  0  0  0  0  0  0  0
    2.6985    0.4137   -2.0425 H   0  0  0  0  0  0  0  0  0  0  0  0
    2.1603    2.1307   -1.3417 H   0  0  0  0  0  0  0  0  0  0  0  0
    2.7020   -1.8595    0.8715 H   0  0  0  0  0  0  0  0  0  0  0  0
    2.7239   -0.6128    2.1043 H   0  0  0  0  0  0  0  0  0  0  0  0
    4.9644    1.2325    1.4115 H   0  0  0  0  0  0  0  0  0  0  0  0
    7.2600    1.2105    0.8079 H   0  0  0  0  0  0  0  0  0  0  0  0
    7.2160   -3.0929    0.9436 H   0  0  0  0  0  0  0  0  0  0  0  0
    4.7473   -3.0661    1.0464 H   0  0  0  0  0  0  0  0  0  0  0  0
  1 15  1  0  0  0  0
  1 16  1  0  0  0  0
  2  4  1  0  0  0  0
  2  7  1  0  0  0  0
  2  3  1  1  0  0  0
  2  1  1  0  0  0  0
  4  5  2  0  0  0  0
  4  6  1  0  0  0  0
  6 17  1  0  0  0  0
  7  8  1  0  0  0  0
  7 18  1  0  0  0  0
  7 19  1  0  0  0  0
  8  9  2  0  0  0  0
  8 13  1  0  0  0  0
  9 10  1  0  0  0  0
  9 20  1  0  0  0  0
 10 11  2  0  0  0  0
 10 21  1  0  0  0  0
 11 12  1  0  0  0  0
 11 14  1  0  0  0  0
 12 13  2  0  0  0  0
 12 22  1  0  0  0  0
 13 23  1  0  0  0  0
M  END
$$$$
