4BQ
 OpenBabel04121316053D

 44 45  0  0  1  0  0  0  0  0999 V2000
    0.8799    0.0452    0.0481 O   0  0  0  0  0  0  0  0  0  0  0  0
    2.1062   -0.0130   -0.0106 C   0  0  0  0  0  0  0  0  0  0  0  0
    2.8229   -0.4524   -1.0903 N   0  0  0  0  0  0  0  0  0  0  0  0
    2.1763   -0.8910   -2.2301 C   0  0  0  0  0  0  0  0  0  0  0  0
    2.1551   -2.2479   -2.5311 C   0  0  0  0  0  0  0  0  0  0  0  0
    1.6821   -2.6379   -3.7726 C   0  0  0  0  0  0  0  0  0  0  0  0
    1.1725   -1.6773   -4.6493 C   0  0  0  0  0  0  0  0  0  0  0  0
    1.0939   -0.3359   -4.2754 C   0  0  0  0  0  0  0  0  0  0  0  0
    1.6452    0.0691   -3.0783 C   0  0  0  0  0  0  0  0  0  0  0  0
    0.7879   -2.1609   -5.8583 O   0  0  0  0  0  0  0  0  0  0  0  0
    0.3273   -1.1930   -6.7987 C   0  0  0  0  0  0  0  0  0  0  0  0
    0.1135   -1.8812   -8.1145 C   0  0  0  0  0  0  0  0  0  0  0  0
   -0.0394   -3.2720   -8.1825 C   0  0  0  0  0  0  0  0  0  0  0  0
    0.0232   -3.9181   -9.4088 C   0  0  0  0  0  0  0  0  0  0  0  0
    0.0844   -3.1683  -10.5798 C   0  0  0  0  0  0  0  0  0  0  0  0
    0.0550   -1.7752  -10.5247 C   0  0  0  0  0  0  0  0  0  0  0  0
    0.1146   -1.1299   -9.2939 C   0  0  0  0  0  0  0  0  0  0  0  0
    2.9227    0.3501    1.1949 C   0  0  0  0  0  0  0  0  0  0  0  0
    4.4384    0.2726    1.0571 C   0  0  0  0  0  0  0  0  0  0  0  0
    5.1776    0.7024    2.3246 C   0  0  1  0  0  0  0  0  0  0  0  0
    4.9085    1.7245    2.6105 H   0  0  0  0  0  0  0  0  0  0  0  0
    4.9061   -0.2412    3.5242 C   0  0  0  0  0  0  0  0  0  0  0  0
    5.7474   -1.0051    4.0038 O   0  0  0  0  0  0  0  0  0  0  0  0
    3.6550   -0.2071    4.0294 O   0  0  0  0  0  0  0  0  0  0  0  0
    6.6247    0.6932    2.0159 N   0  0  0  0  0  0  0  0  0  0  0  0
    3.8146   -0.6365   -1.0504 H   0  0  0  0  0  0  0  0  0  0  0  0
    2.4690   -2.9924   -1.8056 H   0  0  0  0  0  0  0  0  0  0  0  0
    1.7090   -3.6851   -4.0626 H   0  0  0  0  0  0  0  0  0  0  0  0
    0.6319    0.4200   -4.8979 H   0  0  0  0  0  0  0  0  0  0  0  0
    1.6830    1.1232   -2.8229 H   0  0  0  0  0  0  0  0  0  0  0  0
    1.0975   -0.4211   -6.9422 H   0  0  0  0  0  0  0  0  0  0  0  0
   -0.6123   -0.7491   -6.4545 H   0  0  0  0  0  0  0  0  0  0  0  0
   -0.1470   -3.8606   -7.2730 H   0  0  0  0  0  0  0  0  0  0  0  0
    0.0414   -5.0031   -9.4422 H   0  0  0  0  0  0  0  0  0  0  0  0
    0.1522   -3.6732  -11.5379 H   0  0  0  0  0  0  0  0  0  0  0  0
    0.0193   -1.1928  -11.4401 H   0  0  0  0  0  0  0  0  0  0  0  0
    0.1949   -0.0457   -9.2570 H   0  0  0  0  0  0  0  0  0  0  0  0
    2.5829   -0.3711    1.9400 H   0  0  0  0  0  0  0  0  0  0  0  0
    2.6279    1.3614    1.4976 H   0  0  0  0  0  0  0  0  0  0  0  0
    4.7493    0.9141    0.2189 H   0  0  0  0  0  0  0  0  0  0  0  0
    4.7279   -0.7547    0.7977 H   0  0  0  0  0  0  0  0  0  0  0  0
    3.0315    0.4400    3.6512 H   0  0  0  0  0  0  0  0  0  0  0  0
    6.8434    1.2213    1.1755 H   0  0  0  0  0  0  0  0  0  0  0  0
    6.9231   -0.2734    1.8554 H   0  0  0  0  0  0  0  0  0  0  0  0
  1  2  2  0  0  0  0
  2  3  1  0  0  0  0
  2 18  1  0  0  0  0
  3  4  1  0  0  0  0
  3 26  1  0  0  0  0
  4  5  2  0  0  0  0
  4  9  1  0  0  0  0
  5  6  1  0  0  0  0
  5 27  1  0  0  0  0
  6  7  2  0  0  0  0
  6 28  1  0  0  0  0
  7  8  1  0  0  0  0
  7 10  1  0  0  0  0
  8  9  2  0  0  0  0
  8 29  1  0  0  0  0
  9 30  1  0  0  0  0
 10 11  1  0  0  0  0
 11 12  1  0  0  0  0
 11 31  1  0  0  0  0
 11 32  1  0  0  0  0
 12 13  2  0  0  0  0
 12 17  1  0  0  0  0
 13 14  1  0  0  0  0
 13 33  1  0  0  0  0
 14 15  2  0  0  0  0
 14 34  1  0  0  0  0
 15 16  1  0  0  0  0
 15 35  1  0  0  0  0
 16 17  2  0  0  0  0
 16 36  1  0  0  0  0
 17 37  1  0  0  0  0
 18 19  1  0  0  0  0
 18 38  1  0  0  0  0
 18 39  1  0  0  0  0
 19 20  1  0  0  0  0
 19 40  1  0  0  0  0
 19 41  1  0  0  0  0
 20 21  1  1  0  0  0
 20 22  1  0  0  0  0
 20 25  1  0  0  0  0
 22 23  2  0  0  0  0
 22 24  1  0  0  0  0
 24 42  1  0  0  0  0
 25 43  1  0  0  0  0
 25 44  1  0  0  0  0
M  END
$$$$
