4BR
 OpenBabel04121316053D

 25 25  0  0  0  0  0  0  0  0999 V2000
    7.0242  -10.9149   -0.5435 C   0  0  0  0  0  0  0  0  0  0  0  0
    7.0091   -9.4186   -0.5555 C   0  0  0  0  0  0  0  0  0  0  0  0
    5.8342   -8.7089   -0.8254 C   0  0  0  0  0  0  0  0  0  0  0  0
    5.8760   -7.3252   -1.0021 C   0  0  0  0  0  0  0  0  0  0  0  0
    7.0713   -6.6297   -0.8299 C   0  0  0  0  0  0  0  0  0  0  0  0
    8.2173   -7.3245   -0.4363 C   0  0  0  0  0  0  0  0  0  0  0  0
    8.1977   -8.7149   -0.3443 C   0  0  0  0  0  0  0  0  0  0  0  0
    7.0065   -5.2856   -1.0909 O   0  0  0  0  0  0  0  0  0  0  0  0
    8.2683   -4.6133   -1.0287 C   0  0  0  0  0  0  0  0  0  0  0  0
    8.1232   -3.1873   -1.5033 C   0  0  0  0  0  0  0  0  0  0  0  0
    9.7278   -2.3027   -1.3535 P   0  0  2  0  0  0  0  0  0  0  0  0
    9.3677   -1.2383   -0.5051 H   0  0  0  0  0  0  0  0  0  0  0  0
   10.0645   -1.8108   -2.7498 O   0  0  0  0  0  0  0  0  0  0  0  0
   10.6831   -3.2607   -0.6701 O   0  5  0  0  0  0  0  0  0  0  0  0
    6.0225  -11.3248   -0.7041 H   0  0  0  0  0  0  0  0  0  0  0  0
    7.4000  -11.2863    0.4139 H   0  0  0  0  0  0  0  0  0  0  0  0
    7.6680  -11.2800   -1.3513 H   0  0  0  0  0  0  0  0  0  0  0  0
    4.8853   -9.2265   -0.9305 H   0  0  0  0  0  0  0  0  0  0  0  0
    4.9802   -6.7853   -1.2957 H   0  0  0  0  0  0  0  0  0  0  0  0
    9.1533   -6.8140   -0.2244 H   0  0  0  0  0  0  0  0  0  0  0  0
    9.1255   -9.2389   -0.1278 H   0  0  0  0  0  0  0  0  0  0  0  0
    9.0089   -5.1160   -1.6633 H   0  0  0  0  0  0  0  0  0  0  0  0
    8.6059   -4.6080    0.0144 H   0  0  0  0  0  0  0  0  0  0  0  0
    7.3941   -2.6605   -0.8792 H   0  0  0  0  0  0  0  0  0  0  0  0
    7.7505   -3.1443   -2.5326 H   0  0  0  0  0  0  0  0  0  0  0  0
  1  2  1  0  0  0  0
  1 15  1  0  0  0  0
  1 16  1  0  0  0  0
  1 17  1  0  0  0  0
  2  3  2  0  0  0  0
  2  7  1  0  0  0  0
  3  4  1  0  0  0  0
  3 18  1  0  0  0  0
  4  5  2  0  0  0  0
  4 19  1  0  0  0  0
  5  6  1  0  0  0  0
  5  8  1  0  0  0  0
  6  7  2  0  0  0  0
  6 20  1  0  0  0  0
  7 21  1  0  0  0  0
  8  9  1  0  0  0  0
  9 10  1  0  0  0  0
  9 22  1  0  0  0  0
  9 23  1  0  0  0  0
 10 24  1  0  0  0  0
 10 25  1  0  0  0  0
 11 13  2  0  0  0  0
 11 14  1  0  0  0  0
 11 12  1  1  0  0  0
 11 10  1  0  0  0  0
M  CHG  1  14  -1
M  END
$$$$
