4BT
 OpenBabel04121316053D

 36 36  0  0  0  0  0  0  0  0999 V2000
    1.0577    0.0828    0.0611 N   0  0  0  0  0  0  0  0  0  0  0  0
    2.4042    0.0765    0.0535 C   0  0  0  0  0  0  0  0  0  0  0  0
    3.1227    1.1299   -0.0618 N   0  0  0  0  0  0  0  0  0  0  0  0
    3.1080   -1.5094    0.2144 S   0  0  0  0  0  0  0  0  0  0  0  0
    4.8750   -1.1086    0.2020 C   0  0  0  0  0  0  0  0  0  0  0  0
    5.7398   -2.3625    0.3704 C   0  0  0  0  0  0  0  0  0  0  0  0
    7.2264   -2.0792    0.3331 C   0  0  0  0  0  0  0  0  0  0  0  0
    7.7502   -0.7794    0.3583 C   0  0  0  0  0  0  0  0  0  0  0  0
    9.1012   -0.5466    0.1205 C   0  0  0  0  0  0  0  0  0  0  0  0
    9.9836   -1.6178   -0.0198 C   0  0  0  0  0  0  0  0  0  0  0  0
    9.4827   -2.9193    0.1312 C   0  0  0  0  0  0  0  0  0  0  0  0
    8.1155   -3.1519    0.2480 C   0  0  0  0  0  0  0  0  0  0  0  0
   11.4245   -1.3233   -0.3748 C   0  0  0  0  0  0  0  0  0  0  0  0
   12.2801   -2.5839   -0.4885 C   0  0  0  0  0  0  0  0  0  0  0  0
   13.9840   -2.2136   -0.9366 S   0  0  0  0  0  0  0  0  0  0  0  0
   14.7425   -3.7760   -0.9797 C   0  0  0  0  0  0  0  0  0  0  0  0
   14.1685   -4.8977   -0.7494 N   0  0  0  0  0  0  0  0  0  0  0  0
   16.0507   -3.7376   -1.2882 N   0  0  0  0  0  0  0  0  0  0  0  0
    0.5164    0.9262   -0.0355 H   0  0  0  0  0  0  0  0  0  0  0  0
    0.5705   -0.7976    0.1543 H   0  0  0  0  0  0  0  0  0  0  0  0
    2.5047    1.9407   -0.1455 H   0  0  0  0  0  0  0  0  0  0  0  0
    5.0754   -0.4145    1.0250 H   0  0  0  0  0  0  0  0  0  0  0  0
    5.1297   -0.6132   -0.7434 H   0  0  0  0  0  0  0  0  0  0  0  0
    5.5165   -3.0644   -0.4463 H   0  0  0  0  0  0  0  0  0  0  0  0
    5.5109   -2.8673    1.3169 H   0  0  0  0  0  0  0  0  0  0  0  0
    7.1170    0.0874    0.5220 H   0  0  0  0  0  0  0  0  0  0  0  0
    9.4473    0.4808    0.0279 H   0  0  0  0  0  0  0  0  0  0  0  0
   10.1331   -3.7883    0.1277 H   0  0  0  0  0  0  0  0  0  0  0  0
    7.7571   -4.1794    0.2493 H   0  0  0  0  0  0  0  0  0  0  0  0
   11.8382   -0.6460    0.3829 H   0  0  0  0  0  0  0  0  0  0  0  0
   11.4251   -0.7913   -1.3371 H   0  0  0  0  0  0  0  0  0  0  0  0
   11.8545   -3.2432   -1.2548 H   0  0  0  0  0  0  0  0  0  0  0  0
   12.2742   -3.1079    0.4737 H   0  0  0  0  0  0  0  0  0  0  0  0
   13.1823   -4.7795   -0.5301 H   0  0  0  0  0  0  0  0  0  0  0  0
   16.5139   -2.8634   -1.4754 H   0  0  0  0  0  0  0  0  0  0  0  0
   16.5560   -4.6090   -1.3354 H   0  0  0  0  0  0  0  0  0  0  0  0
  1  2  1  0  0  0  0
  1 19  1  0  0  0  0
  1 20  1  0  0  0  0
  2  3  2  0  0  0  0
  2  4  1  0  0  0  0
  3 21  1  0  0  0  0
  4  5  1  0  0  0  0
  5  6  1  0  0  0  0
  5 22  1  0  0  0  0
  5 23  1  0  0  0  0
  6  7  1  0  0  0  0
  6 24  1  0  0  0  0
  6 25  1  0  0  0  0
  7  8  2  0  0  0  0
  7 12  1  0  0  0  0
  8  9  1  0  0  0  0
  8 26  1  0  0  0  0
  9 10  2  0  0  0  0
  9 27  1  0  0  0  0
 10 11  1  0  0  0  0
 10 13  1  0  0  0  0
 11 12  2  0  0  0  0
 11 28  1  0  0  0  0
 12 29  1  0  0  0  0
 13 14  1  0  0  0  0
 13 30  1  0  0  0  0
 13 31  1  0  0  0  0
 14 15  1  0  0  0  0
 14 32  1  0  0  0  0
 14 33  1  0  0  0  0
 15 16  1  0  0  0  0
 16 17  2  0  0  0  0
 16 18  1  0  0  0  0
 17 34  1  0  0  0  0
 18 35  1  0  0  0  0
 18 36  1  0  0  0  0
M  END
$$$$
