4CA
 OpenBabel04121316053D

 98101  0  0  1  0  0  0  0  0999 V2000
    9.7466   -5.5391   -5.1910 O   0  0  0  0  0  0  0  0  0  0  0  0
    9.2725   -6.1288   -4.2266 C   0  0  0  0  0  0  0  0  0  0  0  0
    9.1360   -7.5325   -4.3034 N   0  0  0  0  0  0  0  0  0  0  0  0
    9.0306   -8.2819   -5.5508 C   0  0  0  0  0  0  0  0  0  0  0  0
    8.5367   -9.7683   -5.5447 C   0  0  0  0  0  0  0  0  0  0  0  0
    8.6726  -10.2391   -7.3214 S   0  0  0  0  0  0  0  0  0  0  0  0
    8.1034  -11.9592   -7.3719 C   0  0  0  0  0  0  0  0  0  0  0  0
    8.1600  -12.4752   -8.7982 C   0  0  0  0  0  0  0  0  0  0  0  0
    7.3197  -11.9538   -9.7991 C   0  0  0  0  0  0  0  0  0  0  0  0
    7.2203  -12.5832  -11.0427 C   0  0  0  0  0  0  0  0  0  0  0  0
    8.0681  -13.6438  -11.3363 C   0  0  0  0  0  0  0  0  0  0  0  0
    9.0333  -14.0510  -10.4249 C   0  0  0  0  0  0  0  0  0  0  0  0
    9.0414  -13.5092   -9.1390 C   0  0  0  0  0  0  0  0  0  0  0  0
    7.9760  -14.3277  -12.5122 O   0  0  0  0  0  0  0  0  0  0  0  0
    8.9087   -5.1939   -2.7836 C   0  0  0  0  0  0  0  0  0  0  0  0
    7.6082   -5.7842   -1.9454 C   0  0  0  0  0  0  0  0  0  0  0  0
    7.3789   -6.3715   -0.1620 N   0  0  0  0  0  0  0  0  0  0  0  0
    7.4623   -7.8201    1.0302 C   0  0  0  0  0  0  0  0  0  0  0  0
    7.6772   -9.0184    0.8999 O   0  0  0  0  0  0  0  0  0  0  0  0
    7.4997   -7.5868    2.5921 C   0  0  1  0  0  0  0  0  0  0  0  0
    8.5471   -7.5997    2.8689 H   0  0  0  0  0  0  0  0  0  0  0  0
    6.6004   -6.4406    2.9510 C   0  0  0  0  0  0  0  0  0  0  0  0
    5.3734   -6.8278    2.1785 C   0  0  0  0  0  0  0  0  0  0  0  0
    5.6578   -7.1690    0.6566 O   0  0  0  0  0  0  0  0  0  0  0  0
    4.1010   -7.6539    0.0786 P   0  0  1  0  0  0  0  0  0  0  0  0
    3.4449   -7.9349    1.4301 O   0  0  0  0  0  0  0  0  0  0  0  0
    3.8887   -6.0989   -0.3250 O   0  0  0  0  0  0  0  0  0  0  0  0
    4.5906   -4.6583   -0.4004 P   0  0  2  0  0  0  0  0  0  0  0  0
    4.5914   -4.0070   -1.7460 O   0  0  0  0  0  0  0  0  0  0  0  0
    5.9417   -4.2474    0.4323 O   0  0  0  0  0  0  0  0  0  0  0  0
    7.2664   -3.9256   -0.1322 C   0  0  0  0  0  0  0  0  0  0  0  0
    8.9494   -4.3950    0.5730 C   0  0  1  0  0  0  0  0  0  0  0  0
    9.6421   -4.2418   -0.2546 H   0  0  0  0  0  0  0  0  0  0  0  0
    9.3135   -3.5484    1.6693 O   0  0  0  0  0  0  0  0  0  0  0  0
   10.1405   -4.2483    2.6554 C   0  0  2  0  0  0  0  0  0  0  0  0
   11.1769   -4.0187    2.4361 H   0  0  0  0  0  0  0  0  0  0  0  0
   10.0455   -5.7836    2.6097 C   0  0  1  0  0  0  0  0  0  0  0  0
    9.3555   -6.0924    3.4244 H   0  0  0  0  0  0  0  0  0  0  0  0
    9.5238   -5.9529    1.1940 C   0  0  2  0  0  0  0  0  0  0  0  0
    8.6182   -6.1303    1.6702 H   0  0  0  0  0  0  0  0  0  0  0  0
    9.4538   -7.3263    0.5163 O   0  0  0  0  0  0  0  0  0  0  0  0
    8.6566   -7.6098   -0.9926 P   0  0  0  0  0  0  0  0  0  0  0  0
    7.6016   -8.7207   -1.0196 O   0  0  0  0  0  0  0  0  0  0  0  0
   10.1173   -7.6904   -1.6489 O   0  0  0  0  0  0  0  0  0  0  0  0
    7.8594   -7.8933   -2.5016 O   0  0  0  0  0  0  0  0  0  0  0  0
   11.1841   -6.5920    2.8218 O   0  0  0  0  0  0  0  0  0  0  0  0
    9.8226   -3.7809    4.0000 N   0  0  0  0  0  0  0  0  0  0  0  0
   10.5994   -4.1669    5.0651 C   0  0  0  0  0  0  0  0  0  0  0  0
   10.2046   -3.6258    6.1869 N   0  0  0  0  0  0  0  0  0  0  0  0
    9.0705   -2.9202    5.8487 C   0  0  0  0  0  0  0  0  0  0  0  0
    8.7567   -3.0691    4.5079 C   0  0  0  0  0  0  0  0  0  0  0  0
    7.6526   -2.5869    3.9019 N   0  0  0  0  0  0  0  0  0  0  0  0
    6.8870   -1.8665    4.7513 C   0  0  0  0  0  0  0  0  0  0  0  0
    7.1260   -1.5807    6.0468 N   0  0  0  0  0  0  0  0  0  0  0  0
    8.2315   -2.1035    6.6163 C   0  0  0  0  0  0  0  0  0  0  0  0
    8.5209   -1.8183    7.9284 N   0  0  0  0  0  0  0  0  0  0  0  0
    3.6732   -3.9019    0.6902 O   0  0  0  0  0  0  0  0  0  0  0  0
    2.5442   -8.1388   -0.4995 O   0  0  0  0  0  0  0  0  0  0  0  0
    6.5442   -6.0948    4.4066 C   0  0  0  0  0  0  0  0  0  0  0  0
    6.9373   -5.0853    2.4832 C   0  0  0  0  0  0  0  0  0  0  0  0
    7.1392   -8.7856    3.3295 O   0  0  0  0  0  0  0  0  0  0  0  0
    8.7606   -8.0585   -3.5234 H   0  0  0  0  0  0  0  0  0  0  0  0
   10.0325   -8.2510   -5.9808 H   0  0  0  0  0  0  0  0  0  0  0  0
    8.3264   -7.7051   -6.1556 H   0  0  0  0  0  0  0  0  0  0  0  0
    7.4958   -9.8692   -5.2066 H   0  0  0  0  0  0  0  0  0  0  0  0
    9.1584  -10.4252   -4.9249 H   0  0  0  0  0  0  0  0  0  0  0  0
    7.0722  -12.0552   -7.0121 H   0  0  0  0  0  0  0  0  0  0  0  0
    8.7359  -12.5796   -6.7269 H   0  0  0  0  0  0  0  0  0  0  0  0
    6.7293  -11.0586   -9.6111 H   0  0  0  0  0  0  0  0  0  0  0  0
    6.4819  -12.2355  -11.7581 H   0  0  0  0  0  0  0  0  0  0  0  0
    9.7587  -14.8092  -10.7027 H   0  0  0  0  0  0  0  0  0  0  0  0
    9.7344  -13.9065   -8.4020 H   0  0  0  0  0  0  0  0  0  0  0  0
    7.1892  -14.0171  -12.9895 H   0  0  0  0  0  0  0  0  0  0  0  0
    8.6252   -4.1777   -3.0249 H   0  0  0  0  0  0  0  0  0  0  0  0
    9.8844   -5.1488   -2.2414 H   0  0  0  0  0  0  0  0  0  0  0  0
    8.4097   -6.3603   -2.2801 H   0  0  0  0  0  0  0  0  0  0  0  0
    6.7415   -6.0926   -2.5124 H   0  0  0  0  0  0  0  0  0  0  0  0
    8.1904   -5.9496    0.0654 H   0  0  0  0  0  0  0  0  0  0  0  0
    4.6380   -6.0240    2.1983 H   0  0  0  0  0  0  0  0  0  0  0  0
    5.0260   -7.7402    2.6678 H   0  0  0  0  0  0  0  0  0  0  0  0
    7.3320   -3.0198   -0.7353 H   0  0  0  0  0  0  0  0  0  0  0  0
    7.0147   -4.4753   -0.9773 H   0  0  0  0  0  0  0  0  0  0  0  0
   10.5798   -6.8665   -1.3548 H   0  0  0  0  0  0  0  0  0  0  0  0
    7.3210   -8.7085   -2.3457 H   0  0  0  0  0  0  0  0  0  0  0  0
   11.2110   -6.8621    3.7633 H   0  0  0  0  0  0  0  0  0  0  0  0
   11.4351   -4.8428    4.9441 H   0  0  0  0  0  0  0  0  0  0  0  0
    5.9684   -1.4487    4.3421 H   0  0  0  0  0  0  0  0  0  0  0  0
    7.9366   -1.1682    8.4253 H   0  0  0  0  0  0  0  0  0  0  0  0
    9.3771   -2.1901    8.3174 H   0  0  0  0  0  0  0  0  0  0  0  0
    4.1623   -3.9247    1.5390 H   0  0  0  0  0  0  0  0  0  0  0  0
    2.2630   -8.8700    0.0842 H   0  0  0  0  0  0  0  0  0  0  0  0
    6.2288   -6.9146    5.0262 H   0  0  0  0  0  0  0  0  0  0  0  0
    5.8876   -5.2215    4.5244 H   0  0  0  0  0  0  0  0  0  0  0  0
    7.5445   -5.7592    4.7291 H   0  0  0  0  0  0  0  0  0  0  0  0
    7.0852   -5.2764    1.4804 H   0  0  0  0  0  0  0  0  0  0  0  0
    7.8577   -4.7412    2.8730 H   0  0  0  0  0  0  0  0  0  0  0  0
    6.2357   -4.2589    2.5629 H   0  0  0  0  0  0  0  0  0  0  0  0
    7.8126   -9.4663    3.0960 H   0  0  0  0  0  0  0  0  0  0  0  0
  1  2  2  0  0  0  0
  2  3  1  0  0  0  0
  2 15  1  0  0  0  0
  3  4  1  0  0  0  0
  3 62  1  0  0  0  0
  4  5  1  0  0  0  0
  4 63  1  0  0  0  0
  4 64  1  0  0  0  0
  5  6  1  0  0  0  0
  5 65  1  0  0  0  0
  5 66  1  0  0  0  0
  6  7  1  0  0  0  0
  7  8  1  0  0  0  0
  7 67  1  0  0  0  0
  7 68  1  0  0  0  0
  8  9  2  0  0  0  0
  8 13  1  0  0  0  0
  9 10  1  0  0  0  0
  9 69  1  0  0  0  0
 10 11  2  0  0  0  0
 10 70  1  0  0  0  0
 11 12  1  0  0  0  0
 11 14  1  0  0  0  0
 12 13  2  0  0  0  0
 12 71  1  0  0  0  0
 13 72  1  0  0  0  0
 14 73  1  0  0  0  0
 15 16  1  0  0  0  0
 15 74  1  0  0  0  0
 15 75  1  0  0  0  0
 16 17  1  0  0  0  0
 16 76  1  0  0  0  0
 16 77  1  0  0  0  0
 17 18  1  0  0  0  0
 17 78  1  0  0  0  0
 18 19  2  0  0  0  0
 18 20  1  0  0  0  0
 20 21  1  1  0  0  0
 20 22  1  0  0  0  0
 20 61  1  0  0  0  0
 22 23  1  0  0  0  0
 22 59  1  0  0  0  0
 22 60  1  0  0  0  0
 23 24  1  0  0  0  0
 23 79  1  0  0  0  0
 23 80  1  0  0  0  0
 25 24  1  6  0  0  0
 25 26  2  0  0  0  0
 25 27  1  0  0  0  0
 25 58  1  0  0  0  0
 28 30  1  1  0  0  0
 28 57  1  0  0  0  0
 28 29  2  0  0  0  0
 28 27  1  0  0  0  0
 30 31  1  0  0  0  0
 31 32  1  0  0  0  0
 31 81  1  0  0  0  0
 31 82  1  0  0  0  0
 32 33  1  6  0  0  0
 32 34  1  0  0  0  0
 32 39  1  0  0  0  0
 34 35  1  0  0  0  0
 35 37  1  0  0  0  0
 35 47  1  0  0  0  0
 35 36  1  6  0  0  0
 37 38  1  1  0  0  0
 37 39  1  0  0  0  0
 37 46  1  0  0  0  0
 39 40  1  1  0  0  0
 39 41  1  0  0  0  0
 41 42  1  0  0  0  0
 42 43  2  0  0  0  0
 42 44  1  0  0  0  0
 42 45  1  0  0  0  0
 44 83  1  0  0  0  0
 45 84  1  0  0  0  0
 46 85  1  0  0  0  0
 47 48  1  0  0  0  0
 47 51  1  0  0  0  0
 48 49  2  0  0  0  0
 48 86  1  0  0  0  0
 49 50  1  0  0  0  0
 50 51  2  0  0  0  0
 50 55  1  0  0  0  0
 51 52  1  0  0  0  0
 52 53  2  0  0  0  0
 53 54  1  0  0  0  0
 53 87  1  0  0  0  0
 54 55  2  0  0  0  0
 55 56  1  0  0  0  0
 56 88  1  0  0  0  0
 56 89  1  0  0  0  0
 57 90  1  0  0  0  0
 58 91  1  0  0  0  0
 59 92  1  0  0  0  0
 59 93  1  0  0  0  0
 59 94  1  0  0  0  0
 60 95  1  0  0  0  0
 60 96  1  0  0  0  0
 60 97  1  0  0  0  0
 61 98  1  0  0  0  0
M  END
$$$$
