4CD
 OpenBabel04121316053D

 41 43  0  0  1  0  0  0  0  0999 V2000
    1.4897    0.0233    1.4208 O   0  0  0  0  0  0  0  0  0  0  0  0
    2.5250    0.0072    0.5340 C   0  0  0  0  0  0  0  0  0  0  0  0
    3.1412    1.2266    0.2453 C   0  0  0  0  0  0  0  0  0  0  0  0
    4.4519    1.2156   -0.1879 C   0  0  0  0  0  0  0  0  0  0  0  0
    5.1041    2.3992   -0.3965 O   0  0  0  0  0  0  0  0  0  0  0  0
    5.1143   -0.0123   -0.2932 C   0  0  0  0  0  0  0  0  0  0  0  0
    4.4088   -1.2260   -0.1316 C   0  0  0  0  0  0  0  0  0  0  0  0
    3.0328   -1.2186    0.1461 C   0  0  0  0  0  0  0  0  0  0  0  0
    2.1647   -2.4552    0.0773 C   0  0  0  0  0  0  0  0  0  0  0  0
    2.7719   -3.5456    0.0598 O   0  0  0  0  0  0  0  0  0  0  0  0
    0.7554   -2.4241   -0.1046 N   0  0  0  0  0  0  0  0  0  0  0  0
   -0.0233   -3.6599   -0.0088 C   0  0  0  0  0  0  0  0  0  0  0  0
   -1.2577   -3.4233   -0.8683 C   0  0  0  0  0  0  0  0  0  0  0  0
   -1.5250   -1.9295   -0.7524 C   0  0  0  0  0  0  0  0  0  0  0  0
   -0.1920   -1.2930   -0.3058 C   0  0  2  0  0  0  0  0  0  0  0  0
   -0.4076   -0.8958    0.6917 H   0  0  0  0  0  0  0  0  0  0  0  0
    0.1982   -0.1986   -1.2998 C   0  0  0  0  0  0  0  0  0  0  0  0
   -0.0399    1.1752   -1.0021 C   0  0  0  0  0  0  0  0  0  0  0  0
    0.3119    2.1896   -1.8935 C   0  0  0  0  0  0  0  0  0  0  0  0
    0.8833    1.8547   -3.1098 C   0  0  0  0  0  0  0  0  0  0  0  0
    1.1594    0.5213   -3.4065 C   0  0  0  0  0  0  0  0  0  0  0  0
    0.7928   -0.5145   -2.5378 C   0  0  0  0  0  0  0  0  0  0  0  0
    1.0087   -1.9299   -2.9955 C   0  0  0  0  0  0  0  0  0  0  0  0
    6.8146   -0.0549   -0.5927 Cl  0  0  0  0  0  0  0  0  0  0  0  0
    0.8506    0.6500    1.0654 H   0  0  0  0  0  0  0  0  0  0  0  0
    2.6159    2.1545    0.4396 H   0  0  0  0  0  0  0  0  0  0  0  0
    4.4810    3.1402   -0.3085 H   0  0  0  0  0  0  0  0  0  0  0  0
    4.9527   -2.1680   -0.1656 H   0  0  0  0  0  0  0  0  0  0  0  0
   -0.3290   -3.7795    1.0379 H   0  0  0  0  0  0  0  0  0  0  0  0
    0.5347   -4.5516   -0.3094 H   0  0  0  0  0  0  0  0  0  0  0  0
   -2.1271   -4.0148   -0.5680 H   0  0  0  0  0  0  0  0  0  0  0  0
   -1.0513   -3.6977   -1.9067 H   0  0  0  0  0  0  0  0  0  0  0  0
   -2.2963   -1.7361    0.0025 H   0  0  0  0  0  0  0  0  0  0  0  0
   -1.9040   -1.5133   -1.6937 H   0  0  0  0  0  0  0  0  0  0  0  0
   -0.4592    1.5062   -0.0520 H   0  0  0  0  0  0  0  0  0  0  0  0
    0.1511    3.2347   -1.6359 H   0  0  0  0  0  0  0  0  0  0  0  0
    1.1104    2.6272   -3.8382 H   0  0  0  0  0  0  0  0  0  0  0  0
    1.6601    0.2810   -4.3405 H   0  0  0  0  0  0  0  0  0  0  0  0
    1.3790   -1.9853   -4.0193 H   0  0  0  0  0  0  0  0  0  0  0  0
    0.0537   -2.4495   -2.9973 H   0  0  0  0  0  0  0  0  0  0  0  0
    1.7305   -2.4666   -2.3814 H   0  0  0  0  0  0  0  0  0  0  0  0
  1  2  1  0  0  0  0
  1 25  1  0  0  0  0
  2  3  2  0  0  0  0
  2  8  1  0  0  0  0
  3  4  1  0  0  0  0
  3 26  1  0  0  0  0
  4  5  1  0  0  0  0
  4  6  2  0  0  0  0
  5 27  1  0  0  0  0
  6  7  1  0  0  0  0
  6 24  1  0  0  0  0
  7  8  2  0  0  0  0
  7 28  1  0  0  0  0
  8  9  1  0  0  0  0
  9 10  2  0  0  0  0
  9 11  1  0  0  0  0
 11 12  1  0  0  0  0
 11 15  1  0  0  0  0
 12 13  1  0  0  0  0
 12 29  1  0  0  0  0
 12 30  1  0  0  0  0
 13 14  1  0  0  0  0
 13 31  1  0  0  0  0
 13 32  1  0  0  0  0
 14 15  1  0  0  0  0
 14 33  1  0  0  0  0
 14 34  1  0  0  0  0
 15 16  1  1  0  0  0
 15 17  1  0  0  0  0
 17 18  2  0  0  0  0
 17 22  1  0  0  0  0
 18 19  1  0  0  0  0
 18 35  1  0  0  0  0
 19 20  2  0  0  0  0
 19 36  1  0  0  0  0
 20 21  1  0  0  0  0
 20 37  1  0  0  0  0
 21 22  2  0  0  0  0
 21 38  1  0  0  0  0
 22 23  1  0  0  0  0
 23 39  1  0  0  0  0
 23 40  1  0  0  0  0
 23 41  1  0  0  0  0
M  END
$$$$
