4CL
 OpenBabel04121316053D

 14 14  0  0  0  0  0  0  0  0999 V2000
    1.1265    0.0508    0.1350 Cl  0  0  0  0  0  0  0  0  0  0  0  0
    2.8450    0.0098    0.0452 C   0  0  0  0  0  0  0  0  0  0  0  0
    3.5621    1.2065   -0.0273 C   0  0  0  0  0  0  0  0  0  0  0  0
    4.9561    1.1856   -0.1429 C   0  0  0  0  0  0  0  0  0  0  0  0
    5.6005   -0.0423   -0.2623 C   0  0  0  0  0  0  0  0  0  0  0  0
    4.8775   -1.2289   -0.1825 C   0  0  0  0  0  0  0  0  0  0  0  0
    3.5035   -1.2186    0.0143 C   0  0  0  0  0  0  0  0  0  0  0  0
    5.5109   -2.4306   -0.3331 O   0  0  0  0  0  0  0  0  0  0  0  0
    6.9478   -0.1283   -0.4810 O   0  0  0  0  0  0  0  0  0  0  0  0
    3.0385    2.1599   -0.0023 H   0  0  0  0  0  0  0  0  0  0  0  0
    5.5052    2.1198   -0.1538 H   0  0  0  0  0  0  0  0  0  0  0  0
    2.9606   -2.1508    0.1127 H   0  0  0  0  0  0  0  0  0  0  0  0
    6.4333   -2.2001   -0.5618 H   0  0  0  0  0  0  0  0  0  0  0  0
    7.3006    0.7722   -0.5789 H   0  0  0  0  0  0  0  0  0  0  0  0
  1  2  1  0  0  0  0
  2  3  2  0  0  0  0
  2  7  1  0  0  0  0
  3  4  1  0  0  0  0
  3 10  1  0  0  0  0
  4  5  2  0  0  0  0
  4 11  1  0  0  0  0
  5  6  1  0  0  0  0
  5  9  1  0  0  0  0
  6  7  2  0  0  0  0
  6  8  1  0  0  0  0
  7 12  1  0  0  0  0
  8 13  1  0  0  0  0
  9 14  1  0  0  0  0
M  END
$$$$
