4CT
 OpenBabel04121316053D

 46 49  0  0  1  0  0  0  0  0999 V2000
    1.0102    0.1224    0.1634 O   0  0  0  0  0  0  0  0  0  0  0  0
    2.4267    0.0677    0.0980 C   0  0  1  0  0  0  0  0  0  0  0  0
    2.7411    0.1671   -0.9485 H   0  0  0  0  0  0  0  0  0  0  0  0
    3.0693    1.1585    0.9528 C   0  0  0  0  0  0  0  0  0  0  0  0
    4.4034    0.6392    1.3071 N   0  0  0  0  0  0  0  0  0  0  0  0
    4.1232   -0.7823    1.5801 C   0  0  0  0  0  0  0  0  0  0  0  0
    2.9456   -1.2357    0.7149 C   0  0  2  0  0  0  0  0  0  0  0  0
    2.1942   -1.6741    1.3858 H   0  0  0  0  0  0  0  0  0  0  0  0
    3.3325   -2.2890   -0.3478 C   0  0  0  0  0  0  0  0  0  0  0  0
    1.8141   -2.7565   -1.2570 S   0  0  0  0  0  0  0  0  0  0  0  0
    2.3669   -3.9313   -2.4716 C   0  0  0  0  0  0  0  0  0  0  0  0
    2.4539   -3.5334   -3.8108 C   0  0  0  0  0  0  0  0  0  0  0  0
    2.4339   -4.4904   -4.8298 C   0  0  0  0  0  0  0  0  0  0  0  0
    2.4157   -5.8450   -4.5055 C   0  0  0  0  0  0  0  0  0  0  0  0
    2.4565   -6.2505   -3.1731 C   0  0  0  0  0  0  0  0  0  0  0  0
    2.3921   -5.2931   -2.1561 C   0  0  0  0  0  0  0  0  0  0  0  0
    2.2768   -7.0218   -5.7533 Cl  0  0  0  0  0  0  0  0  0  0  0  0
    5.3603    0.8415    0.1989 C   0  0  0  0  0  0  0  0  0  0  0  0
    6.7420    0.3715    0.5518 C   0  0  0  0  0  0  0  0  0  0  0  0
    7.8181    1.1843    0.8782 C   0  0  0  0  0  0  0  0  0  0  0  0
    8.8870    0.3847    1.1772 N   0  0  0  0  0  0  0  0  0  0  0  0
    9.7991    0.7138    1.4699 H   0  0  0  0  0  0  0  0  0  0  0  0
    8.5439   -0.9350    1.0616 C   0  0  0  0  0  0  0  0  0  0  0  0
    7.2386   -0.9729    0.5903 C   0  0  0  0  0  0  0  0  0  0  0  0
    6.6199   -2.1425    0.3114 N   0  0  0  0  0  0  0  0  0  0  0  0
    7.3165   -3.2249    0.6799 C   0  0  0  0  0  0  0  0  0  0  0  0
    8.5732   -3.2698    1.1534 N   0  0  0  0  0  0  0  0  0  0  0  0
    9.2250   -2.1096    1.3140 C   0  0  0  0  0  0  0  0  0  0  0  0
   10.5270   -2.1464    1.7529 N   0  0  0  0  0  0  0  0  0  0  0  0
    0.7205    0.8802   -0.3704 H   0  0  0  0  0  0  0  0  0  0  0  0
    2.4763    1.3137    1.8649 H   0  0  0  0  0  0  0  0  0  0  0  0
    3.0890    2.1255    0.4378 H   0  0  0  0  0  0  0  0  0  0  0  0
    3.8663   -0.8781    2.6423 H   0  0  0  0  0  0  0  0  0  0  0  0
    4.9651   -1.4419    1.4801 H   0  0  0  0  0  0  0  0  0  0  0  0
    3.7567   -3.1782    0.1319 H   0  0  0  0  0  0  0  0  0  0  0  0
    4.0744   -1.8932   -1.0497 H   0  0  0  0  0  0  0  0  0  0  0  0
    2.4571   -2.4785   -4.0748 H   0  0  0  0  0  0  0  0  0  0  0  0
    2.3828   -4.1715   -5.8677 H   0  0  0  0  0  0  0  0  0  0  0  0
    2.4746   -7.3067   -2.9195 H   0  0  0  0  0  0  0  0  0  0  0  0
    2.2831   -5.6216   -1.1254 H   0  0  0  0  0  0  0  0  0  0  0  0
    5.4210    1.9239    0.0080 H   0  0  0  0  0  0  0  0  0  0  0  0
    5.0393    0.3783   -0.7389 H   0  0  0  0  0  0  0  0  0  0  0  0
    7.8995    2.2616    0.9334 H   0  0  0  0  0  0  0  0  0  0  0  0
    6.7971   -4.1753    0.6055 H   0  0  0  0  0  0  0  0  0  0  0  0
   10.9409   -3.0650    1.8159 H   0  0  0  0  0  0  0  0  0  0  0  0
   11.0950   -1.3234    1.8031 H   0  0  0  0  0  0  0  0  0  0  0  0
  1  2  1  0  0  0  0
  1 30  1  0  0  0  0
  2  3  1  6  0  0  0
  2  4  1  0  0  0  0
  2  7  1  0  0  0  0
  4  5  1  0  0  0  0
  4 31  1  0  0  0  0
  4 32  1  0  0  0  0
  5  6  1  0  0  0  0
  5 18  1  0  0  0  0
  6  7  1  0  0  0  0
  6 33  1  0  0  0  0
  6 34  1  0  0  0  0
  7  8  1  1  0  0  0
  7  9  1  0  0  0  0
  9 10  1  0  0  0  0
  9 35  1  0  0  0  0
  9 36  1  0  0  0  0
 10 11  1  0  0  0  0
 11 12  2  0  0  0  0
 11 16  1  0  0  0  0
 12 13  1  0  0  0  0
 12 37  1  0  0  0  0
 13 14  2  0  0  0  0
 13 38  1  0  0  0  0
 14 15  1  0  0  0  0
 14 17  1  0  0  0  0
 15 16  2  0  0  0  0
 15 39  1  0  0  0  0
 16 40  1  0  0  0  0
 18 19  1  0  0  0  0
 18 41  1  0  0  0  0
 18 42  1  0  0  0  0
 19 20  2  0  0  0  0
 19 24  1  0  0  0  0
 20 21  1  0  0  0  0
 20 43  1  0  0  0  0
 21 22  1  0  0  0  0
 21 23  1  0  0  0  0
 23 24  2  0  0  0  0
 23 28  1  0  0  0  0
 24 25  1  0  0  0  0
 25 26  2  0  0  0  0
 26 27  1  0  0  0  0
 26 44  1  0  0  0  0
 27 28  2  0  0  0  0
 28 29  1  0  0  0  0
 29 45  1  0  0  0  0
 29 46  1  0  0  0  0
M  END
$$$$
