4D7
 OpenBabel04121316053D

 38 40  0  0  1  0  0  0  0  0999 V2000
    3.0930   -1.1301    3.4058 O   0  0  0  0  0  0  0  0  0  0  0  0
    2.5762   -0.4717    2.3480 C   0  0  0  0  0  0  0  0  0  0  0  0
    1.7815    0.4391    2.5474 O   0  0  0  0  0  0  0  0  0  0  0  0
    3.0390   -0.8759    0.9262 C   0  0  2  0  0  0  0  0  0  0  0  0
    2.5028   -0.2139    0.2302 H   0  0  0  0  0  0  0  0  0  0  0  0
    2.6198   -2.2345    0.6139 N   0  0  0  0  0  0  0  0  0  0  0  0
    1.3044   -2.5877    0.6352 C   0  0  0  0  0  0  0  0  0  0  0  0
    0.3891   -1.7928    0.8623 O   0  0  0  0  0  0  0  0  0  0  0  0
    1.0658   -3.9732    0.3422 C   0  0  0  0  0  0  0  0  0  0  0  0
    1.7130   -5.1395    0.8287 C   0  0  0  0  0  0  0  0  0  0  0  0
    1.0779   -6.2034    0.2315 C   0  0  0  0  0  0  0  0  0  0  0  0
    0.0930   -5.7691   -0.6027 O   0  0  0  0  0  0  0  0  0  0  0  0
    0.0852   -4.4100   -0.5221 C   0  0  0  0  0  0  0  0  0  0  0  0
   -0.8827   -3.6518   -1.3422 C   0  0  0  0  0  0  0  0  0  0  0  0
    4.5509   -0.6800    0.7023 C   0  0  0  0  0  0  0  0  0  0  0  0
    5.3434   -1.6685    1.5039 C   0  0  0  0  0  0  0  0  0  0  0  0
    5.1167   -2.9676    1.5194 N   0  0  0  0  0  0  0  0  0  0  0  0
    5.8426   -3.4711    2.5658 C   0  0  0  0  0  0  0  0  0  0  0  0
    6.5414   -2.4536    3.2044 C   0  0  0  0  0  0  0  0  0  0  0  0
    6.2418   -1.3189    2.4862 N   0  0  0  0  0  0  0  0  0  0  0  0
    6.5375   -0.3807    2.7217 H   0  0  0  0  0  0  0  0  0  0  0  0
    7.3394   -2.6750    4.3277 C   0  0  0  0  0  0  0  0  0  0  0  0
    7.4413   -3.9982    4.7779 C   0  0  0  0  0  0  0  0  0  0  0  0
    6.7517   -5.0381    4.1497 C   0  0  0  0  0  0  0  0  0  0  0  0
    5.9302   -4.7852    3.0458 C   0  0  0  0  0  0  0  0  0  0  0  0
    3.9919   -1.4799    3.3050 H   0  0  0  0  0  0  0  0  0  0  0  0
    3.3251   -2.9294    0.3711 H   0  0  0  0  0  0  0  0  0  0  0  0
    2.5167   -5.1863    1.5504 H   0  0  0  0  0  0  0  0  0  0  0  0
    1.1989   -7.2755    0.2973 H   0  0  0  0  0  0  0  0  0  0  0  0
   -1.5129   -4.2984   -1.9553 H   0  0  0  0  0  0  0  0  0  0  0  0
   -0.3413   -2.9661   -2.0045 H   0  0  0  0  0  0  0  0  0  0  0  0
   -1.5263   -3.0469   -0.6949 H   0  0  0  0  0  0  0  0  0  0  0  0
    4.8347    0.3485    0.9465 H   0  0  0  0  0  0  0  0  0  0  0  0
    4.7886   -0.8458   -0.3579 H   0  0  0  0  0  0  0  0  0  0  0  0
    7.8754   -1.8735    4.8239 H   0  0  0  0  0  0  0  0  0  0  0  0
    8.0775   -4.2236    5.6321 H   0  0  0  0  0  0  0  0  0  0  0  0
    6.8563   -6.0568    4.5178 H   0  0  0  0  0  0  0  0  0  0  0  0
    5.3806   -5.5871    2.5648 H   0  0  0  0  0  0  0  0  0  0  0  0
  1  2  1  0  0  0  0
  1 26  1  0  0  0  0
  2  3  2  0  0  0  0
  4  6  1  0  0  0  0
  4 15  1  0  0  0  0
  4  5  1  6  0  0  0
  4  2  1  0  0  0  0
  6  7  1  0  0  0  0
  6 27  1  0  0  0  0
  7  8  2  0  0  0  0
  7  9  1  0  0  0  0
  9 10  1  0  0  0  0
  9 13  2  0  0  0  0
 10 11  2  0  0  0  0
 10 28  1  0  0  0  0
 11 12  1  0  0  0  0
 11 29  1  0  0  0  0
 12 13  1  0  0  0  0
 13 14  1  0  0  0  0
 14 30  1  0  0  0  0
 14 31  1  0  0  0  0
 14 32  1  0  0  0  0
 15 16  1  0  0  0  0
 15 33  1  0  0  0  0
 15 34  1  0  0  0  0
 16 17  2  0  0  0  0
 16 20  1  0  0  0  0
 17 18  1  0  0  0  0
 18 19  2  0  0  0  0
 18 25  1  0  0  0  0
 19 20  1  0  0  0  0
 19 22  1  0  0  0  0
 20 21  1  0  0  0  0
 22 23  2  0  0  0  0
 22 35  1  0  0  0  0
 23 24  1  0  0  0  0
 23 36  1  0  0  0  0
 24 25  2  0  0  0  0
 24 37  1  0  0  0  0
 25 38  1  0  0  0  0
M  END
$$$$
