4DX
 OpenBabel04121316053D

 22 22  0  0  1  0  0  0  0  0999 V2000
    1.0647    0.0628    0.1174 C   0  0  0  0  0  0  0  0  0  0  0  0
    2.5951    0.0416    0.0225 C   0  0  1  0  0  0  0  0  0  0  0  0
    3.0008    0.2882    1.0129 H   0  0  0  0  0  0  0  0  0  0  0  0
    3.1052   -1.3631   -0.3465 C   0  0  0  0  0  0  0  0  0  0  0  0
    2.7163   -1.7524   -1.7721 C   0  0  0  0  0  0  0  0  0  0  0  0
    3.2017   -0.7142   -2.7820 C   0  0  0  0  0  0  0  0  0  0  0  0
    2.7310    0.6989   -2.4294 C   0  0  0  0  0  0  0  0  0  0  0  0
    3.1047    1.0799   -0.9932 C   0  0  2  0  0  0  0  0  0  0  0  0
    2.7062    2.0712   -0.7501 H   0  0  0  0  0  0  0  0  0  0  0  0
    4.5282    1.1674   -0.8832 O   0  0  0  0  0  0  0  0  0  0  0  0
    0.7112   -0.6733    0.8461 H   0  0  0  0  0  0  0  0  0  0  0  0
    0.5818   -0.1692   -0.8367 H   0  0  0  0  0  0  0  0  0  0  0  0
    0.7099    1.0504    0.4275 H   0  0  0  0  0  0  0  0  0  0  0  0
    2.7204   -2.1055    0.3622 H   0  0  0  0  0  0  0  0  0  0  0  0
    4.1994   -1.3898   -0.2568 H   0  0  0  0  0  0  0  0  0  0  0  0
    1.6277   -1.8570   -1.8471 H   0  0  0  0  0  0  0  0  0  0  0  0
    3.1366   -2.7341   -2.0156 H   0  0  0  0  0  0  0  0  0  0  0  0
    2.8465   -0.9807   -3.7832 H   0  0  0  0  0  0  0  0  0  0  0  0
    4.2978   -0.7333   -2.8171 H   0  0  0  0  0  0  0  0  0  0  0  0
    1.6448    0.7647   -2.5614 H   0  0  0  0  0  0  0  0  0  0  0  0
    3.1780    1.4075   -3.1356 H   0  0  0  0  0  0  0  0  0  0  0  0
    4.8398    1.7871   -1.5609 H   0  0  0  0  0  0  0  0  0  0  0  0
  1  2  1  0  0  0  0
  1 11  1  0  0  0  0
  1 12  1  0  0  0  0
  1 13  1  0  0  0  0
  2  3  1  1  0  0  0
  2  4  1  0  0  0  0
  2  8  1  0  0  0  0
  4  5  1  0  0  0  0
  4 14  1  0  0  0  0
  4 15  1  0  0  0  0
  5  6  1  0  0  0  0
  5 16  1  0  0  0  0
  5 17  1  0  0  0  0
  6  7  1  0  0  0  0
  6 18  1  0  0  0  0
  6 19  1  0  0  0  0
  7  8  1  0  0  0  0
  7 20  1  0  0  0  0
  7 21  1  0  0  0  0
  8  9  1  1  0  0  0
  8 10  1  0  0  0  0
 10 22  1  0  0  0  0
M  END
$$$$
