4FI
 OpenBabel04121316053D

 51 54  0  0  1  0  0  0  0  0999 V2000
    3.1633    0.8814   -3.4040 O   0  0  0  0  0  0  0  0  0  0  0  0
    2.5544    0.3109   -2.3437 C   0  0  0  0  0  0  0  0  0  0  0  0
    1.6249   -0.4629   -2.5291 O   0  0  0  0  0  0  0  0  0  0  0  0
    2.9994    0.7938   -0.9382 C   0  0  2  0  0  0  0  0  0  0  0  0
    2.4580    0.1704   -0.2129 H   0  0  0  0  0  0  0  0  0  0  0  0
    2.5420    2.1731   -0.7265 N   0  0  0  0  0  0  0  0  0  0  0  0
    1.2162    2.5171   -0.7950 C   0  0  0  0  0  0  0  0  0  0  0  0
    0.3222    1.6989   -1.0183 O   0  0  0  0  0  0  0  0  0  0  0  0
    0.9390    3.8937   -0.5179 C   0  0  0  0  0  0  0  0  0  0  0  0
   -0.0857    4.4103    0.2392 C   0  0  0  0  0  0  0  0  0  0  0  0
    0.0673    5.8154    0.2131 C   0  0  0  0  0  0  0  0  0  0  0  0
    1.1245    6.1577   -0.5358 N   0  0  0  0  0  0  0  0  0  0  0  0
    1.5621    4.9959   -1.0295 N   0  0  0  0  0  0  0  0  0  0  0  0
    2.6840    5.0109   -1.9170 C   0  0  0  0  0  0  0  0  0  0  0  0
   -0.7698    6.8131    0.8575 C   0  0  0  0  0  0  0  0  0  0  0  0
   -1.9469    6.4353    1.5155 C   0  0  0  0  0  0  0  0  0  0  0  0
   -2.8219    7.4052    1.9938 C   0  0  0  0  0  0  0  0  0  0  0  0
   -2.4654    8.7496    1.9305 C   0  0  0  0  0  0  0  0  0  0  0  0
   -1.2364    9.1252    1.3925 C   0  0  0  0  0  0  0  0  0  0  0  0
   -0.4192    8.1667    0.8027 C   0  0  0  0  0  0  0  0  0  0  0  0
    4.5193    0.6048   -0.6540 C   0  0  0  0  0  0  0  0  0  0  0  0
    5.4287    1.4572   -1.5158 C   0  0  0  0  0  0  0  0  0  0  0  0
    6.1737    0.8960   -2.5560 C   0  0  0  0  0  0  0  0  0  0  0  0
    6.7089    1.7207   -3.5488 C   0  0  0  0  0  0  0  0  0  0  0  0
    6.5115    3.1108   -3.5105 C   0  0  0  0  0  0  0  0  0  0  0  0
    5.8784    3.6848   -2.3999 C   0  0  0  0  0  0  0  0  0  0  0  0
    5.4054    2.8489   -1.3848 C   0  0  0  0  0  0  0  0  0  0  0  0
    5.6769    5.0735   -2.3565 C   0  0  0  0  0  0  0  0  0  0  0  0
    5.8804    5.8508   -3.4883 C   0  0  0  0  0  0  0  0  0  0  0  0
    6.4573    5.2726   -4.6093 C   0  0  0  0  0  0  0  0  0  0  0  0
    6.8939    3.9471   -4.5643 C   0  0  0  0  0  0  0  0  0  0  0  0
    4.1264    0.7609   -3.3953 H   0  0  0  0  0  0  0  0  0  0  0  0
    3.0881    2.7655   -0.1181 H   0  0  0  0  0  0  0  0  0  0  0  0
   -0.8352    3.8233    0.7466 H   0  0  0  0  0  0  0  0  0  0  0  0
    2.9931    6.0351   -2.1396 H   0  0  0  0  0  0  0  0  0  0  0  0
    2.4659    4.4509   -2.8260 H   0  0  0  0  0  0  0  0  0  0  0  0
    3.4585    4.5291   -1.3417 H   0  0  0  0  0  0  0  0  0  0  0  0
   -2.2095    5.3893    1.6456 H   0  0  0  0  0  0  0  0  0  0  0  0
   -3.7769    7.1076    2.4166 H   0  0  0  0  0  0  0  0  0  0  0  0
   -3.1457    9.5067    2.3067 H   0  0  0  0  0  0  0  0  0  0  0  0
   -0.9162   10.1619    1.4154 H   0  0  0  0  0  0  0  0  0  0  0  0
    0.4937    8.4760    0.2968 H   0  0  0  0  0  0  0  0  0  0  0  0
    4.7773   -0.4525   -0.7892 H   0  0  0  0  0  0  0  0  0  0  0  0
    4.7371    0.8478    0.3952 H   0  0  0  0  0  0  0  0  0  0  0  0
    6.2498   -0.1844   -2.6669 H   0  0  0  0  0  0  0  0  0  0  0  0
    7.2041    1.2675   -4.4047 H   0  0  0  0  0  0  0  0  0  0  0  0
    4.9183    3.2988   -0.5273 H   0  0  0  0  0  0  0  0  0  0  0  0
    5.2667    5.5523   -1.4699 H   0  0  0  0  0  0  0  0  0  0  0  0
    5.5987    6.9006   -3.4839 H   0  0  0  0  0  0  0  0  0  0  0  0
    6.5819    5.8554   -5.5165 H   0  0  0  0  0  0  0  0  0  0  0  0
    7.5109    3.5627   -5.3700 H   0  0  0  0  0  0  0  0  0  0  0  0
  1  2  1  0  0  0  0
  1 32  1  0  0  0  0
  2  3  2  0  0  0  0
  4  6  1  0  0  0  0
  4 21  1  0  0  0  0
  4  5  1  1  0  0  0
  4  2  1  0  0  0  0
  6  7  1  0  0  0  0
  6 33  1  0  0  0  0
  7  8  2  0  0  0  0
  7  9  1  0  0  0  0
  9 10  2  0  0  0  0
  9 13  1  0  0  0  0
 10 11  1  0  0  0  0
 10 34  1  0  0  0  0
 11 12  2  0  0  0  0
 11 15  1  0  0  0  0
 12 13  1  0  0  0  0
 13 14  1  0  0  0  0
 14 35  1  0  0  0  0
 14 36  1  0  0  0  0
 14 37  1  0  0  0  0
 15 16  2  0  0  0  0
 15 20  1  0  0  0  0
 16 17  1  0  0  0  0
 16 38  1  0  0  0  0
 17 18  2  0  0  0  0
 17 39  1  0  0  0  0
 18 19  1  0  0  0  0
 18 40  1  0  0  0  0
 19 20  2  0  0  0  0
 19 41  1  0  0  0  0
 20 42  1  0  0  0  0
 21 22  1  0  0  0  0
 21 43  1  0  0  0  0
 21 44  1  0  0  0  0
 22 23  2  0  0  0  0
 22 27  1  0  0  0  0
 23 24  1  0  0  0  0
 23 45  1  0  0  0  0
 24 25  2  0  0  0  0
 24 46  1  0  0  0  0
 25 26  1  0  0  0  0
 25 31  1  0  0  0  0
 26 27  2  0  0  0  0
 26 28  1  0  0  0  0
 27 47  1  0  0  0  0
 28 29  2  0  0  0  0
 28 48  1  0  0  0  0
 29 30  1  0  0  0  0
 29 49  1  0  0  0  0
 30 31  2  0  0  0  0
 30 50  1  0  0  0  0
 31 51  1  0  0  0  0
M  END
$$$$
