4HG
 OpenBabel04121316053D

 28 29  0  0  0  0  0  0  0  0999 V2000
    0.8738   -0.0149    0.0642 O   0  0  0  0  0  0  0  0  0  0  0  0
    2.2458    0.0790    0.0792 C   0  0  0  0  0  0  0  0  0  0  0  0
    2.9250    1.2905   -0.0015 C   0  0  0  0  0  0  0  0  0  0  0  0
    4.2777    1.4171   -0.0147 N   0  0  0  0  0  0  0  0  0  0  0  0
    4.9776    0.2600    0.0663 C   0  0  0  0  0  0  0  0  0  0  0  0
    4.4122   -1.0279    0.1339 C   0  0  0  0  0  0  0  0  0  0  0  0
    2.9976   -1.0967    0.1188 C   0  0  0  0  0  0  0  0  0  0  0  0
    2.3594   -2.3434    0.0754 C   0  0  0  0  0  0  0  0  0  0  0  0
    3.0963   -3.5008   -0.1240 C   0  0  0  0  0  0  0  0  0  0  0  0
    4.4803   -3.4627   -0.0063 C   0  0  0  0  0  0  0  0  0  0  0  0
    5.1366   -2.2422    0.1771 C   0  0  0  0  0  0  0  0  0  0  0  0
    7.2078   -2.3300    0.5292 I   0  0  0  0  0  0  0  0  0  0  0  0
    2.1309    2.5451   -0.1088 C   0  0  0  0  0  0  0  0  0  0  0  0
    0.9072    2.5162   -0.1184 O   0  0  0  0  0  0  0  0  0  0  0  0
    2.8463    3.7091   -0.1938 N   0  0  0  0  0  0  0  0  0  0  0  0
    2.1616    4.9752   -0.2719 C   0  0  0  0  0  0  0  0  0  0  0  0
    3.1721    6.1042   -0.3406 C   0  0  0  0  0  0  0  0  0  0  0  0
    4.3836    5.9389   -0.3293 O   0  0  0  0  0  0  0  0  0  0  0  0
    2.6101    7.3328   -0.4157 O   0  0  0  0  0  0  0  0  0  0  0  0
    0.4970    0.8919   -0.0132 H   0  0  0  0  0  0  0  0  0  0  0  0
    6.0553    0.4022    0.0258 H   0  0  0  0  0  0  0  0  0  0  0  0
    1.2737   -2.4093    0.1390 H   0  0  0  0  0  0  0  0  0  0  0  0
    2.5836   -4.4270   -0.3655 H   0  0  0  0  0  0  0  0  0  0  0  0
    5.0336   -4.3958   -0.0547 H   0  0  0  0  0  0  0  0  0  0  0  0
    3.8670    3.6736   -0.1859 H   0  0  0  0  0  0  0  0  0  0  0  0
    1.5354    5.0780    0.6203 H   0  0  0  0  0  0  0  0  0  0  0  0
    1.5346    4.9681   -1.1692 H   0  0  0  0  0  0  0  0  0  0  0  0
    1.6340    7.3378   -0.4163 H   0  0  0  0  0  0  0  0  0  0  0  0
  1  2  1  0  0  0  0
  1 20  1  0  0  0  0
  2  3  2  0  0  0  0
  2  7  1  0  0  0  0
  3  4  1  0  0  0  0
  3 13  1  0  0  0  0
  4  5  2  0  0  0  0
  5  6  1  0  0  0  0
  5 21  1  0  0  0  0
  6  7  2  0  0  0  0
  6 11  1  0  0  0  0
  7  8  1  0  0  0  0
  8  9  2  0  0  0  0
  8 22  1  0  0  0  0
  9 10  1  0  0  0  0
  9 23  1  0  0  0  0
 10 11  2  0  0  0  0
 10 24  1  0  0  0  0
 11 12  1  0  0  0  0
 13 14  2  0  0  0  0
 13 15  1  0  0  0  0
 15 16  1  0  0  0  0
 15 25  1  0  0  0  0
 16 17  1  0  0  0  0
 16 26  1  0  0  0  0
 16 27  1  0  0  0  0
 17 18  2  0  0  0  0
 17 19  1  0  0  0  0
 19 28  1  0  0  0  0
M  END
$$$$
