4HL
 OpenBabel04121316053D

 20 20  0  0  0  0  0  0  0  0999 V2000
    0.9634    0.0344   -0.0065 N   0  0  0  0  0  0  0  0  0  0  0  0
    2.3994    0.0777    0.0399 N   0  0  0  0  0  0  0  0  0  0  0  0
    2.9787   -1.2476   -0.2481 C   0  0  0  0  0  0  0  0  0  0  0  0
    4.4974   -1.2258   -0.2605 C   0  0  0  0  0  0  0  0  0  0  0  0
    5.2356   -0.1492    0.2670 C   0  0  0  0  0  0  0  0  0  0  0  0
    6.6154   -0.0759    0.0979 C   0  0  0  0  0  0  0  0  0  0  0  0
    7.2833   -1.1254   -0.5060 C   0  0  0  0  0  0  0  0  0  0  0  0
    6.5972   -2.2643   -0.9181 C   0  0  0  0  0  0  0  0  0  0  0  0
    5.2025   -2.2993   -0.8237 C   0  0  0  0  0  0  0  0  0  0  0  0
    8.6265   -1.0664   -0.7273 O   0  0  0  0  0  0  0  0  0  0  0  0
    0.5796    0.9741    0.1353 H   0  0  0  0  0  0  0  0  0  0  0  0
    0.5709   -0.5444    0.7395 H   0  0  0  0  0  0  0  0  0  0  0  0
    2.7366    0.3808    0.9556 H   0  0  0  0  0  0  0  0  0  0  0  0
    2.6338   -1.5820   -1.2363 H   0  0  0  0  0  0  0  0  0  0  0  0
    2.6439   -1.9766    0.5001 H   0  0  0  0  0  0  0  0  0  0  0  0
    4.7502    0.6727    0.7798 H   0  0  0  0  0  0  0  0  0  0  0  0
    7.1350    0.8167    0.4356 H   0  0  0  0  0  0  0  0  0  0  0  0
    7.1422   -3.1019   -1.3379 H   0  0  0  0  0  0  0  0  0  0  0  0
    4.6706   -3.1638   -1.2199 H   0  0  0  0  0  0  0  0  0  0  0  0
    8.9181   -0.1573   -0.5408 H   0  0  0  0  0  0  0  0  0  0  0  0
  1  2  1  0  0  0  0
  1 11  1  0  0  0  0
  1 12  1  0  0  0  0
  2  3  1  0  0  0  0
  2 13  1  0  0  0  0
  3  4  1  0  0  0  0
  3 14  1  0  0  0  0
  3 15  1  0  0  0  0
  4  5  2  0  0  0  0
  4  9  1  0  0  0  0
  5  6  1  0  0  0  0
  5 16  1  0  0  0  0
  6  7  2  0  0  0  0
  6 17  1  0  0  0  0
  7  8  1  0  0  0  0
  7 10  1  0  0  0  0
  8  9  2  0  0  0  0
  8 18  1  0  0  0  0
  9 19  1  0  0  0  0
 10 20  1  0  0  0  0
M  END
$$$$
