4IG
 OpenBabel04121316053D

 59 62  0  0  1  0  0  0  0  0999 V2000
    0.9665    0.0149    0.0980 C   0  0  0  0  0  0  0  0  0  0  0  0
    2.3885   -0.0122    0.1541 O   0  0  0  0  0  0  0  0  0  0  0  0
    2.8360   -0.8050    1.2589 C   0  0  0  0  0  0  0  0  0  0  0  0
    4.3532   -0.8319    1.2509 C   0  0  0  0  0  0  0  0  0  0  0  0
    4.9663   -1.7195    2.3582 C   0  0  0  0  0  0  0  0  0  0  0  0
    6.4397   -1.7671    2.3619 N   0  0  0  0  0  0  0  0  0  0  0  0
    7.1691   -1.3846    3.4930 C   0  0  0  0  0  0  0  0  0  0  0  0
    6.8777   -1.6702    4.6406 O   0  0  0  0  0  0  0  0  0  0  0  0
    8.2532   -0.3462    3.0964 C   0  0  1  0  0  0  0  0  0  0  0  0
    8.8324   -0.0813    3.9888 H   0  0  0  0  0  0  0  0  0  0  0  0
    9.1635   -0.8811    2.1295 O   0  0  0  0  0  0  0  0  0  0  0  0
    8.5533   -1.6306    1.1493 C   0  0  0  0  0  0  0  0  0  0  0  0
    7.2097   -2.0506    1.2118 C   0  0  0  0  0  0  0  0  0  0  0  0
    6.6705   -2.7630    0.1489 C   0  0  0  0  0  0  0  0  0  0  0  0
    7.4205   -2.9657   -1.0151 C   0  0  0  0  0  0  0  0  0  0  0  0
    8.7652   -2.5671   -1.0547 C   0  0  0  0  0  0  0  0  0  0  0  0
    9.3319   -1.9015    0.0263 C   0  0  0  0  0  0  0  0  0  0  0  0
    6.7990   -3.5733   -2.1878 C   0  0  0  0  0  0  0  0  0  0  0  0
    6.9142   -4.9540   -2.3488 C   0  0  0  0  0  0  0  0  0  0  0  0
    7.6017   -5.7061   -1.4089 N   0  0  0  0  0  0  0  0  0  0  0  0
    6.4399   -5.6050   -3.4132 N   0  0  0  0  0  0  0  0  0  0  0  0
    5.8186   -4.8730   -4.3391 C   0  0  0  0  0  0  0  0  0  0  0  0
    5.6161   -3.5480   -4.2685 N   0  0  0  0  0  0  0  0  0  0  0  0
    6.1049   -2.8838   -3.1869 C   0  0  0  0  0  0  0  0  0  0  0  0
    5.8317   -1.3798   -3.1988 C   0  0  0  0  0  0  0  0  0  0  0  0
    6.3331   -0.5442   -2.0340 C   0  0  0  0  0  0  0  0  0  0  0  0
    5.3674   -5.5485   -5.4362 N   0  0  0  0  0  0  0  0  0  0  0  0
    7.5330    0.9240    2.6015 C   0  0  0  0  0  0  0  0  0  0  0  0
    7.8858    1.5918    1.4194 C   0  0  0  0  0  0  0  0  0  0  0  0
    7.0136    2.5337    0.8717 C   0  0  0  0  0  0  0  0  0  0  0  0
    7.3232    3.1112   -0.2964 F   0  0  0  0  0  0  0  0  0  0  0  0
    5.8025    2.8410    1.4792 C   0  0  0  0  0  0  0  0  0  0  0  0
    5.4896    2.2374    2.6848 C   0  0  0  0  0  0  0  0  0  0  0  0
    6.3537    1.3195    3.2659 C   0  0  0  0  0  0  0  0  0  0  0  0
    4.2900    2.4388    3.2448 F   0  0  0  0  0  0  0  0  0  0  0  0
    0.6521    0.6292   -0.7502 H   0  0  0  0  0  0  0  0  0  0  0  0
    0.5651    0.4517    1.0171 H   0  0  0  0  0  0  0  0  0  0  0  0
    0.5757   -0.9981   -0.0390 H   0  0  0  0  0  0  0  0  0  0  0  0
    2.4569   -1.8241    1.1341 H   0  0  0  0  0  0  0  0  0  0  0  0
    2.4621   -0.3718    2.1900 H   0  0  0  0  0  0  0  0  0  0  0  0
    4.7376    0.1880    1.2756 H   0  0  0  0  0  0  0  0  0  0  0  0
    4.6251   -1.1937    0.2669 H   0  0  0  0  0  0  0  0  0  0  0  0
    4.5892   -2.7415    2.2796 H   0  0  0  0  0  0  0  0  0  0  0  0
    4.6327   -1.3173    3.3234 H   0  0  0  0  0  0  0  0  0  0  0  0
    5.6383   -3.1031    0.1702 H   0  0  0  0  0  0  0  0  0  0  0  0
    9.3481   -2.7268   -1.9602 H   0  0  0  0  0  0  0  0  0  0  0  0
   10.3568   -1.5470   -0.0369 H   0  0  0  0  0  0  0  0  0  0  0  0
    7.8867   -5.2921   -0.5328 H   0  0  0  0  0  0  0  0  0  0  0  0
    7.6454   -6.7031   -1.5361 H   0  0  0  0  0  0  0  0  0  0  0  0
    4.7445   -1.2347   -3.2548 H   0  0  0  0  0  0  0  0  0  0  0  0
    6.2654   -0.9547   -4.1105 H   0  0  0  0  0  0  0  0  0  0  0  0
    5.8635   -0.9056   -1.1321 H   0  0  0  0  0  0  0  0  0  0  0  0
    6.0804    0.5143   -2.0767 H   0  0  0  0  0  0  0  0  0  0  0  0
    7.4179   -0.6028   -1.9431 H   0  0  0  0  0  0  0  0  0  0  0  0
    5.5560   -6.5360   -5.4700 H   0  0  0  0  0  0  0  0  0  0  0  0
    4.9023   -5.0466   -6.1696 H   0  0  0  0  0  0  0  0  0  0  0  0
    8.7905    1.3427    0.8702 H   0  0  0  0  0  0  0  0  0  0  0  0
    5.0983    3.5127    1.0052 H   0  0  0  0  0  0  0  0  0  0  0  0
    6.0241    0.8174    4.1745 H   0  0  0  0  0  0  0  0  0  0  0  0
  1  2  1  0  0  0  0
  1 36  1  0  0  0  0
  1 37  1  0  0  0  0
  1 38  1  0  0  0  0
  2  3  1  0  0  0  0
  3  4  1  0  0  0  0
  3 39  1  0  0  0  0
  3 40  1  0  0  0  0
  4  5  1  0  0  0  0
  4 41  1  0  0  0  0
  4 42  1  0  0  0  0
  5  6  1  0  0  0  0
  5 43  1  0  0  0  0
  5 44  1  0  0  0  0
  6  7  1  0  0  0  0
  6 13  1  0  0  0  0
  7  8  2  0  0  0  0
  7  9  1  0  0  0  0
  9 11  1  0  0  0  0
  9 28  1  0  0  0  0
  9 10  1  1  0  0  0
 11 12  1  0  0  0  0
 12 13  2  0  0  0  0
 12 17  1  0  0  0  0
 13 14  1  0  0  0  0
 14 15  2  0  0  0  0
 14 45  1  0  0  0  0
 15 16  1  0  0  0  0
 15 18  1  0  0  0  0
 16 17  2  0  0  0  0
 16 46  1  0  0  0  0
 17 47  1  0  0  0  0
 18 19  2  0  0  0  0
 18 24  1  0  0  0  0
 19 20  1  0  0  0  0
 19 21  1  0  0  0  0
 20 48  1  0  0  0  0
 20 49  1  0  0  0  0
 21 22  2  0  0  0  0
 22 23  1  0  0  0  0
 22 27  1  0  0  0  0
 23 24  2  0  0  0  0
 24 25  1  0  0  0  0
 25 26  1  0  0  0  0
 25 50  1  0  0  0  0
 25 51  1  0  0  0  0
 26 52  1  0  0  0  0
 26 53  1  0  0  0  0
 26 54  1  0  0  0  0
 27 55  1  0  0  0  0
 27 56  1  0  0  0  0
 28 29  2  0  0  0  0
 28 34  1  0  0  0  0
 29 30  1  0  0  0  0
 29 57  1  0  0  0  0
 30 31  1  0  0  0  0
 30 32  2  0  0  0  0
 32 33  1  0  0  0  0
 32 58  1  0  0  0  0
 33 34  2  0  0  0  0
 33 35  1  0  0  0  0
 34 59  1  0  0  0  0
M  END
$$$$
