4JZ
 OpenBabel04121316053D

 60 63  0  0  0  0  0  0  0  0999 V2000
    0.8313   -0.0038   -0.0040 C   0  0  0  0  0  0  0  0  0  0  0  0
    2.3191    0.0358   -0.0055 C   0  0  0  0  0  0  0  0  0  0  0  0
    3.0148    1.2471    0.0069 C   0  0  0  0  0  0  0  0  0  0  0  0
    4.3885    1.2637   -0.2029 C   0  0  0  0  0  0  0  0  0  0  0  0
    5.1007    0.0677   -0.2880 C   0  0  0  0  0  0  0  0  0  0  0  0
    4.3930   -1.1299   -0.1028 C   0  0  0  0  0  0  0  0  0  0  0  0
    3.0154   -1.1615   -0.0519 C   0  0  0  0  0  0  0  0  0  0  0  0
    6.4765    0.0644   -0.5662 N   0  0  0  0  0  0  0  0  0  0  0  0
    7.2663    1.1504   -0.8023 N   0  0  0  0  0  0  0  0  0  0  0  0
    6.9792    2.1153   -0.7244 H   0  0  0  0  0  0  0  0  0  0  0  0
    8.5476    0.7562   -1.0890 C   0  0  0  0  0  0  0  0  0  0  0  0
    8.6383   -0.5750   -1.1029 C   0  0  0  0  0  0  0  0  0  0  0  0
    7.2637   -1.0691   -0.7884 C   0  0  0  0  0  0  0  0  0  0  0  0
    6.8786   -2.3090   -0.7355 N   0  0  0  0  0  0  0  0  0  0  0  0
    7.7991   -3.2651   -0.9511 C   0  0  0  0  0  0  0  0  0  0  0  0
    8.9709   -3.0126   -1.2162 O   0  0  0  0  0  0  0  0  0  0  0  0
    7.3288   -4.5523   -0.8427 N   0  0  0  0  0  0  0  0  0  0  0  0
    8.2388   -5.5696   -1.0405 C   0  0  0  0  0  0  0  0  0  0  0  0
    8.0057   -6.9144   -1.0168 N   0  0  0  0  0  0  0  0  0  0  0  0
    7.1315   -7.3944   -0.8414 H   0  0  0  0  0  0  0  0  0  0  0  0
    9.1174   -7.6603   -1.2765 N   0  0  0  0  0  0  0  0  0  0  0  0
   10.0737   -6.7389   -1.4626 C   0  0  0  0  0  0  0  0  0  0  0  0
    9.5747   -5.4587   -1.3076 C   0  0  0  0  0  0  0  0  0  0  0  0
   11.5080   -6.9679   -1.7856 C   0  0  0  0  0  0  0  0  0  0  0  0
   12.1775   -5.6932   -1.9712 O   0  0  0  0  0  0  0  0  0  0  0  0
   13.5157   -5.7064   -2.1849 C   0  0  0  0  0  0  0  0  0  0  0  0
   14.2904   -6.8545   -2.1884 C   0  0  0  0  0  0  0  0  0  0  0  0
   15.6550   -6.7590   -2.4129 C   0  0  0  0  0  0  0  0  0  0  0  0
   16.2170   -5.4999   -2.5284 C   0  0  0  0  0  0  0  0  0  0  0  0
   15.4977   -4.3585   -2.5570 N   0  0  0  0  0  0  0  0  0  0  0  0
   14.1552   -4.4920   -2.4225 C   0  0  0  0  0  0  0  0  0  0  0  0
    9.7475    1.6129   -1.3506 C   0  0  0  0  0  0  0  0  0  0  0  0
   10.8263    1.2796   -0.2972 C   0  0  0  0  0  0  0  0  0  0  0  0
   10.2940    1.2781   -2.7546 C   0  0  0  0  0  0  0  0  0  0  0  0
    9.3906    3.0940   -1.2732 C   0  0  0  0  0  0  0  0  0  0  0  0
    0.4196    1.0056    0.0508 H   0  0  0  0  0  0  0  0  0  0  0  0
    0.4781   -0.5841    0.8518 H   0  0  0  0  0  0  0  0  0  0  0  0
    0.4863   -0.4691   -0.9335 H   0  0  0  0  0  0  0  0  0  0  0  0
    2.4925    2.1880    0.1453 H   0  0  0  0  0  0  0  0  0  0  0  0
    4.8888    2.2197   -0.3103 H   0  0  0  0  0  0  0  0  0  0  0  0
    4.8872   -2.0875   -0.0194 H   0  0  0  0  0  0  0  0  0  0  0  0
    2.5115   -2.1239   -0.0537 H   0  0  0  0  0  0  0  0  0  0  0  0
    9.5415   -1.1123   -1.3027 H   0  0  0  0  0  0  0  0  0  0  0  0
    6.3506   -4.6899   -0.6377 H   0  0  0  0  0  0  0  0  0  0  0  0
   10.1873   -4.5769   -1.4104 H   0  0  0  0  0  0  0  0  0  0  0  0
   11.5792   -7.5278   -2.7212 H   0  0  0  0  0  0  0  0  0  0  0  0
   11.9594   -7.5047   -0.9456 H   0  0  0  0  0  0  0  0  0  0  0  0
   13.8587   -7.8332   -2.0224 H   0  0  0  0  0  0  0  0  0  0  0  0
   16.2576   -7.6549   -2.4855 H   0  0  0  0  0  0  0  0  0  0  0  0
   17.2930   -5.3797   -2.6017 H   0  0  0  0  0  0  0  0  0  0  0  0
   13.5930   -3.5667   -2.5303 H   0  0  0  0  0  0  0  0  0  0  0  0
   11.1261    0.2234   -0.3319 H   0  0  0  0  0  0  0  0  0  0  0  0
   10.4607    1.4745    0.7181 H   0  0  0  0  0  0  0  0  0  0  0  0
   11.7321    1.8698   -0.4588 H   0  0  0  0  0  0  0  0  0  0  0  0
   10.5816    0.2218   -2.8453 H   0  0  0  0  0  0  0  0  0  0  0  0
   11.1856    1.8682   -2.9824 H   0  0  0  0  0  0  0  0  0  0  0  0
    9.5412    1.4720   -3.5279 H   0  0  0  0  0  0  0  0  0  0  0  0
    9.0009    3.3507   -0.2813 H   0  0  0  0  0  0  0  0  0  0  0  0
    8.6247    3.3504   -2.0142 H   0  0  0  0  0  0  0  0  0  0  0  0
   10.2690    3.7163   -1.4636 H   0  0  0  0  0  0  0  0  0  0  0  0
  1  2  1  0  0  0  0
  1 36  1  0  0  0  0
  1 37  1  0  0  0  0
  1 38  1  0  0  0  0
  2  3  2  0  0  0  0
  2  7  1  0  0  0  0
  3  4  1  0  0  0  0
  3 39  1  0  0  0  0
  4  5  2  0  0  0  0
  4 40  1  0  0  0  0
  5  6  1  0  0  0  0
  5  8  1  0  0  0  0
  6  7  2  0  0  0  0
  6 41  1  0  0  0  0
  7 42  1  0  0  0  0
  8  9  1  0  0  0  0
  8 13  1  0  0  0  0
  9 10  1  0  0  0  0
  9 11  1  0  0  0  0
 11 12  2  0  0  0  0
 11 32  1  0  0  0  0
 12 13  1  0  0  0  0
 12 43  1  0  0  0  0
 13 14  2  0  0  0  0
 14 15  1  0  0  0  0
 15 16  2  0  0  0  0
 15 17  1  0  0  0  0
 17 18  1  0  0  0  0
 17 44  1  0  0  0  0
 18 19  1  0  0  0  0
 18 23  2  0  0  0  0
 19 20  1  0  0  0  0
 19 21  1  0  0  0  0
 21 22  2  0  0  0  0
 22 23  1  0  0  0  0
 22 24  1  0  0  0  0
 23 45  1  0  0  0  0
 24 25  1  0  0  0  0
 24 46  1  0  0  0  0
 24 47  1  0  0  0  0
 25 26  1  0  0  0  0
 26 27  2  0  0  0  0
 26 31  1  0  0  0  0
 27 28  1  0  0  0  0
 27 48  1  0  0  0  0
 28 29  2  0  0  0  0
 28 49  1  0  0  0  0
 29 30  1  0  0  0  0
 29 50  1  0  0  0  0
 30 31  2  0  0  0  0
 31 51  1  0  0  0  0
 32 33  1  0  0  0  0
 32 34  1  0  0  0  0
 32 35  1  0  0  0  0
 33 52  1  0  0  0  0
 33 53  1  0  0  0  0
 33 54  1  0  0  0  0
 34 55  1  0  0  0  0
 34 56  1  0  0  0  0
 34 57  1  0  0  0  0
 35 58  1  0  0  0  0
 35 59  1  0  0  0  0
 35 60  1  0  0  0  0
M  END
$$$$
