4MV
 OpenBabel04121316053D

 20 19  0  0  0  0  0  0  0  0999 V2000
    1.0057    0.1006   -0.0966 C   0  0  0  0  0  0  0  0  0  0  0  0
    2.5329    0.0826   -0.0573 C   0  0  0  0  0  0  0  0  0  0  0  0
    3.0500   -0.6854    1.1663 C   0  0  0  0  0  0  0  0  0  0  0  0
    2.5908   -0.0877    2.5000 C   0  0  0  0  0  0  0  0  0  0  0  0
    3.1236   -0.9005    3.6538 C   0  0  0  0  0  0  0  0  0  0  0  0
    3.8250   -1.8962    3.5420 O   0  0  0  0  0  0  0  0  0  0  0  0
    2.7331   -0.4317    4.8595 O   0  0  0  0  0  0  0  0  0  0  0  0
    3.0694   -0.5593   -1.3385 C   0  0  0  0  0  0  0  0  0  0  0  0
    0.5859    0.5998    0.7809 H   0  0  0  0  0  0  0  0  0  0  0  0
    0.6075   -0.9195   -0.1293 H   0  0  0  0  0  0  0  0  0  0  0  0
    0.6435    0.6415   -0.9753 H   0  0  0  0  0  0  0  0  0  0  0  0
    2.9000    1.1157   -0.0093 H   0  0  0  0  0  0  0  0  0  0  0  0
    4.1481   -0.7066    1.1424 H   0  0  0  0  0  0  0  0  0  0  0  0
    2.7233   -1.7322    1.1052 H   0  0  0  0  0  0  0  0  0  0  0  0
    1.4988   -0.0999    2.5718 H   0  0  0  0  0  0  0  0  0  0  0  0
    2.9452    0.9455    2.5850 H   0  0  0  0  0  0  0  0  0  0  0  0
    2.1653    0.3606    4.8243 H   0  0  0  0  0  0  0  0  0  0  0  0
    2.7272   -1.5961   -1.4322 H   0  0  0  0  0  0  0  0  0  0  0  0
    4.1643   -0.5629   -1.3493 H   0  0  0  0  0  0  0  0  0  0  0  0
    2.7255   -0.0094   -2.2206 H   0  0  0  0  0  0  0  0  0  0  0  0
  1  2  1  0  0  0  0
  1  9  1  0  0  0  0
  1 10  1  0  0  0  0
  1 11  1  0  0  0  0
  2  3  1  0  0  0  0
  2  8  1  0  0  0  0
  2 12  1  0  0  0  0
  3  4  1  0  0  0  0
  3 13  1  0  0  0  0
  3 14  1  0  0  0  0
  4  5  1  0  0  0  0
  4 15  1  0  0  0  0
  4 16  1  0  0  0  0
  5  6  2  0  0  0  0
  5  7  1  0  0  0  0
  7 17  1  0  0  0  0
  8 18  1  0  0  0  0
  8 19  1  0  0  0  0
  8 20  1  0  0  0  0
M  END
$$$$
