4NH
 OpenBabel04121316053D

 50 51  0  0  1  0  0  0  0  0999 V2000
    1.0160    0.0693   -0.0471 N   0  0  0  0  0  0  0  0  0  0  0  0
    2.4720    0.0888   -0.0459 C   0  0  0  0  0  0  0  0  0  0  0  0
    2.9533    0.1083    1.3154 C   0  0  0  0  0  0  0  0  0  0  0  0
    3.3500    0.1243    2.4374 C   0  0  0  0  0  0  0  0  0  0  0  0
    3.8314    0.1437    3.7987 C   0  0  0  0  0  0  0  0  0  0  0  0
    4.2824    1.4993    4.0630 O   0  0  0  0  0  0  0  0  0  0  0  0
    4.6010    1.7903    5.3572 C   0  0  0  0  0  0  0  0  0  0  0  0
    4.6286    3.1240    5.7802 C   0  0  0  0  0  0  0  0  0  0  0  0
    5.1224    3.4697    7.0643 C   0  0  0  0  0  0  0  0  0  0  0  0
    5.3021    2.4674    8.0249 C   0  0  0  0  0  0  0  0  0  0  0  0
    4.9198    1.1810    7.6507 C   0  0  0  0  0  0  0  0  0  0  0  0
    4.8780    0.8238    6.2906 C   0  0  0  0  0  0  0  0  0  0  0  0
    6.5034    2.7559    9.4574 S   0  0  0  0  0  0  0  0  0  0  0  0
    7.4112    3.8024    9.0399 O   0  0  0  0  0  0  0  0  0  0  0  0
    5.6652    2.9700   10.6268 O   0  0  0  0  0  0  0  0  0  0  0  0
    7.5496    1.3448    9.7342 N   0  0  0  0  0  0  0  0  0  0  0  0
    7.0207   -0.0581    9.7656 C   0  0  0  0  0  0  0  0  0  0  0  0
    7.0665   -0.6735    8.3559 C   0  0  0  0  0  0  0  0  0  0  0  0
    8.4927   -0.6582    7.2718 S   0  0  0  0  0  0  0  0  0  0  0  0
    9.0154    1.1077    7.6104 C   0  0  0  0  0  0  0  0  0  0  0  0
    8.9864    1.3892    9.1569 C   0  0  2  0  0  0  0  0  0  0  0  0
    9.4101    2.3722    9.3949 H   0  0  0  0  0  0  0  0  0  0  0  0
    9.9175    0.3791    9.8970 C   0  0  0  0  0  0  0  0  0  0  0  0
   10.4993   -0.5733    9.3695 O   0  0  0  0  0  0  0  0  0  0  0  0
   10.1173    0.5632   11.2371 N   0  0  0  0  0  0  0  0  0  0  0  0
   10.9677   -0.4050   11.8350 O   0  0  0  0  0  0  0  0  0  0  0  0
    8.1847    2.1114    6.8158 C   0  0  0  0  0  0  0  0  0  0  0  0
   10.3751    1.2447    6.9669 C   0  0  0  0  0  0  0  0  0  0  0  0
    0.6813    0.1015   -1.0070 H   0  0  0  0  0  0  0  0  0  0  0  0
    0.6784    0.9178    0.4051 H   0  0  0  0  0  0  0  0  0  0  0  0
    2.8279    0.9659   -0.5962 H   0  0  0  0  0  0  0  0  0  0  0  0
    2.8403   -0.7995   -0.5689 H   0  0  0  0  0  0  0  0  0  0  0  0
    4.6700   -0.5546    3.8923 H   0  0  0  0  0  0  0  0  0  0  0  0
    3.0277   -0.1265    4.4931 H   0  0  0  0  0  0  0  0  0  0  0  0
    4.2952    3.9024    5.1001 H   0  0  0  0  0  0  0  0  0  0  0  0
    5.3929    4.5000    7.2799 H   0  0  0  0  0  0  0  0  0  0  0  0
    4.8818    0.3713    8.3617 H   0  0  0  0  0  0  0  0  0  0  0  0
    5.0972   -0.2012    5.9841 H   0  0  0  0  0  0  0  0  0  0  0  0
    5.9981   -0.0528   10.1660 H   0  0  0  0  0  0  0  0  0  0  0  0
    7.5925   -0.6912   10.4526 H   0  0  0  0  0  0  0  0  0  0  0  0
    6.6575    0.0914    7.7579 H   0  0  0  0  0  0  0  0  0  0  0  0
    6.4110   -1.5364    8.2218 H   0  0  0  0  0  0  0  0  0  0  0  0
    9.6412    1.2247   11.8376 H   0  0  0  0  0  0  0  0  0  0  0  0
   11.2265   -0.9597   11.0586 H   0  0  0  0  0  0  0  0  0  0  0  0
    7.2192    2.0790    7.2237 H   0  0  0  0  0  0  0  0  0  0  0  0
    8.0112    1.8874    5.7622 H   0  0  0  0  0  0  0  0  0  0  0  0
    8.5301    3.1485    6.9140 H   0  0  0  0  0  0  0  0  0  0  0  0
   11.0884    0.5123    7.3342 H   0  0  0  0  0  0  0  0  0  0  0  0
   10.7647    2.2513    7.1393 H   0  0  0  0  0  0  0  0  0  0  0  0
   10.2669    1.1045    5.8830 H   0  0  0  0  0  0  0  0  0  0  0  0
  1  2  1  0  0  0  0
  1 29  1  0  0  0  0
  1 30  1  0  0  0  0
  2  3  1  0  0  0  0
  2 31  1  0  0  0  0
  2 32  1  0  0  0  0
  3  4  3  0  0  0  0
  4  5  1  0  0  0  0
  5  6  1  0  0  0  0
  5 33  1  0  0  0  0
  5 34  1  0  0  0  0
  6  7  1  0  0  0  0
  7  8  2  0  0  0  0
  7 12  1  0  0  0  0
  8  9  1  0  0  0  0
  8 35  1  0  0  0  0
  9 10  2  0  0  0  0
  9 36  1  0  0  0  0
 10 11  1  0  0  0  0
 10 13  1  0  0  0  0
 11 12  2  0  0  0  0
 11 37  1  0  0  0  0
 12 38  1  0  0  0  0
 13 14  2  0  0  0  0
 13 15  2  0  0  0  0
 13 16  1  0  0  0  0
 16 17  1  0  0  0  0
 16 21  1  0  0  0  0
 17 18  1  0  0  0  0
 17 39  1  0  0  0  0
 17 40  1  0  0  0  0
 18 19  1  0  0  0  0
 18 41  1  0  0  0  0
 18 42  1  0  0  0  0
 19 20  1  0  0  0  0
 20 21  1  0  0  0  0
 20 27  1  0  0  0  0
 20 28  1  0  0  0  0
 21 22  1  1  0  0  0
 21 23  1  0  0  0  0
 23 24  2  0  0  0  0
 23 25  1  0  0  0  0
 25 26  1  0  0  0  0
 25 43  1  0  0  0  0
 26 44  1  0  0  0  0
 27 45  1  0  0  0  0
 27 46  1  0  0  0  0
 27 47  1  0  0  0  0
 28 48  1  0  0  0  0
 28 49  1  0  0  0  0
 28 50  1  0  0  0  0
M  END
$$$$
