4NI
 OpenBabel04121316053D

 16 15  0  0  0  0  0  0  0  0999 V2000
    0.9497   -0.0439    0.0379 O   0  5  0  0  0  0  0  0  0  0  0  0
    2.1815   -0.0992   -0.0639 N   0  3  0  0  0  0  0  0  0  0  0  0
    2.7980   -0.6108   -1.0059 O   0  0  0  0  0  0  0  0  0  0  0  0
    2.9616    0.5167    1.0700 C   0  0  0  0  0  0  0  0  0  0  0  0
    4.4584    0.3941    0.8443 C   0  0  0  0  0  0  0  0  0  0  0  0
    5.2705    1.0133    1.9842 C   0  0  0  0  0  0  0  0  0  0  0  0
    6.7479    0.8584    1.6991 C   0  0  0  0  0  0  0  0  0  0  0  0
    7.2068    0.3175    0.7032 O   0  0  0  0  0  0  0  0  0  0  0  0
    7.5426    1.3785    2.6567 O   0  0  0  0  0  0  0  0  0  0  0  0
    2.6477   -0.0100    1.9769 H   0  0  0  0  0  0  0  0  0  0  0  0
    2.6477    1.5642    1.1219 H   0  0  0  0  0  0  0  0  0  0  0  0
    4.7341    0.8833   -0.0995 H   0  0  0  0  0  0  0  0  0  0  0  0
    4.7341   -0.6639    0.7409 H   0  0  0  0  0  0  0  0  0  0  0  0
    5.0332    0.5092    2.9277 H   0  0  0  0  0  0  0  0  0  0  0  0
    5.0332    2.0791    2.0750 H   0  0  0  0  0  0  0  0  0  0  0  0
    7.0809    1.7881    3.4108 H   0  0  0  0  0  0  0  0  0  0  0  0
  1  2  1  0  0  0  0
  2  3  2  0  0  0  0
  2  4  1  0  0  0  0
  4  5  1  0  0  0  0
  4 10  1  0  0  0  0
  4 11  1  0  0  0  0
  5  6  1  0  0  0  0
  5 12  1  0  0  0  0
  5 13  1  0  0  0  0
  6  7  1  0  0  0  0
  6 14  1  0  0  0  0
  6 15  1  0  0  0  0
  7  8  2  0  0  0  0
  7  9  1  0  0  0  0
  9 16  1  0  0  0  0
M  CHG  2   1  -1   2   1
M  END
$$$$
