4NM
 OpenBabel04121316053D

 19 19  0  0  0  0  0  0  0  0999 V2000
    0.8680    0.2100    0.1661 S   0  0  0  0  0  0  0  0  0  0  0  0
    2.6973    0.1056    0.1218 C   0  0  0  0  0  0  0  0  0  0  0  0
    3.1969   -1.1159    0.8566 C   0  0  0  0  0  0  0  0  0  0  0  0
    4.2252   -1.0527    1.8067 C   0  0  0  0  0  0  0  0  0  0  0  0
    4.7103   -2.2284    2.3968 C   0  0  0  0  0  0  0  0  0  0  0  0
    4.1055   -3.4649    2.1155 C   0  0  0  0  0  0  0  0  0  0  0  0
    3.0145   -3.5103    1.2501 C   0  0  0  0  0  0  0  0  0  0  0  0
    2.6301   -2.3641    0.5662 C   0  0  0  0  0  0  0  0  0  0  0  0
    4.6592   -4.6825    2.7016 N   0  3  0  0  0  0  0  0  0  0  0  0
    5.6558   -4.6027    3.3830 O   0  0  0  0  0  0  0  0  0  0  0  0
    4.1311   -5.9445    2.4537 O   0  0  0  0  0  0  0  0  0  0  0  0
    0.7163    1.2338   -0.6798 H   0  0  0  0  0  0  0  0  0  0  0  0
    3.0965    1.0240    0.5625 H   0  0  0  0  0  0  0  0  0  0  0  0
    3.0422    0.0568   -0.9187 H   0  0  0  0  0  0  0  0  0  0  0  0
    4.6652   -0.0993    2.0952 H   0  0  0  0  0  0  0  0  0  0  0  0
    5.5585   -2.1733    3.0793 H   0  0  0  0  0  0  0  0  0  0  0  0
    2.4254   -4.3991    1.0609 H   0  0  0  0  0  0  0  0  0  0  0  0
    1.8456   -2.4478   -0.1835 H   0  0  0  0  0  0  0  0  0  0  0  0
    3.3948   -5.7739    1.8625 H   0  0  0  0  0  0  0  0  0  0  0  0
  1  2  1  0  0  0  0
  1 12  1  0  0  0  0
  2  3  1  0  0  0  0
  2 13  1  0  0  0  0
  2 14  1  0  0  0  0
  3  4  2  0  0  0  0
  3  8  1  0  0  0  0
  4  5  1  0  0  0  0
  4 15  1  0  0  0  0
  5  6  2  0  0  0  0
  5 16  1  0  0  0  0
  6  7  1  0  0  0  0
  6  9  1  0  0  0  0
  7  8  2  0  0  0  0
  7 17  1  0  0  0  0
  8 18  1  0  0  0  0
  9 10  2  0  0  0  0
  9 11  1  0  0  0  0
 11 19  1  0  0  0  0
M  CHG  1   9   1
M  END
$$$$
