4NZ
 OpenBabel04121316053D

 19 19  0  0  0  0  0  0  0  0999 V2000
    0.9841   -0.0313    0.0901 O   0  5  0  0  0  0  0  0  0  0  0  0
    2.2218    0.0186    0.1068 N   0  3  0  0  0  0  0  0  0  0  0  0
    2.9122    0.9008   -0.4194 O   0  0  0  0  0  0  0  0  0  0  0  0
    2.9222   -1.0748    0.7698 C   0  0  0  0  0  0  0  0  0  0  0  0
    4.0806   -0.8232    1.5155 C   0  0  0  0  0  0  0  0  0  0  0  0
    4.8091   -1.9057    2.0192 C   0  0  0  0  0  0  0  0  0  0  0  0
    4.3163   -3.2077    1.8586 C   0  0  0  0  0  0  0  0  0  0  0  0
    3.0898   -3.4344    1.2221 C   0  0  0  0  0  0  0  0  0  0  0  0
    2.4211   -2.3712    0.6198 C   0  0  0  0  0  0  0  0  0  0  0  0
    5.3248   -4.5617    2.4185 S   0  0  0  0  0  0  0  0  0  0  0  0
    6.4828   -4.6091    1.5629 O   0  0  0  0  0  0  0  0  0  0  0  0
    5.3964   -4.4782    3.8593 O   0  0  0  0  0  0  0  0  0  0  0  0
    4.4002   -5.9030    2.0524 N   0  0  0  0  0  0  0  0  0  0  0  0
    4.4255    0.1928    1.6963 H   0  0  0  0  0  0  0  0  0  0  0  0
    5.7585   -1.7373    2.5267 H   0  0  0  0  0  0  0  0  0  0  0  0
    2.6435   -4.4213    1.1636 H   0  0  0  0  0  0  0  0  0  0  0  0
    1.5249   -2.5591    0.0320 H   0  0  0  0  0  0  0  0  0  0  0  0
    4.3514   -6.1364    1.0641 H   0  0  0  0  0  0  0  0  0  0  0  0
    3.5994   -6.0566    2.6579 H   0  0  0  0  0  0  0  0  0  0  0  0
  1  2  1  0  0  0  0
  2  3  2  0  0  0  0
  2  4  1  0  0  0  0
  4  5  2  0  0  0  0
  4  9  1  0  0  0  0
  5  6  1  0  0  0  0
  5 14  1  0  0  0  0
  6  7  2  0  0  0  0
  6 15  1  0  0  0  0
  7  8  1  0  0  0  0
  7 10  1  0  0  0  0
  8  9  2  0  0  0  0
  8 16  1  0  0  0  0
  9 17  1  0  0  0  0
 10 11  2  0  0  0  0
 10 12  2  0  0  0  0
 10 13  1  0  0  0  0
 13 18  1  0  0  0  0
 13 19  1  0  0  0  0
M  CHG  2   1  -1   2   1
M  END
$$$$
