4PA
 OpenBabel04121316053D

 17 16  0  0  0  0  0  0  0  0999 V2000
    1.0449   -0.0948   -0.0089 C   0  0  0  0  0  0  0  0  0  0  0  0
    2.5643   -0.0808    0.0055 C   0  0  0  0  0  0  0  0  0  0  0  0
    3.0929    0.9153    1.0306 C   0  0  0  0  0  0  0  0  0  0  0  0
    4.5274    0.8978    1.0125 O   0  0  0  0  0  0  0  0  0  0  0  0
    5.0898    1.7620    1.9018 C   0  0  0  0  0  0  0  0  0  0  0  0
    4.4687    2.4978    2.6590 O   0  0  0  0  0  0  0  0  0  0  0  0
    6.5868    1.7107    1.8491 C   0  0  0  0  0  0  0  0  0  0  0  0
    0.6737   -0.8121   -0.7471 H   0  0  0  0  0  0  0  0  0  0  0  0
    0.6480    0.8931   -0.2646 H   0  0  0  0  0  0  0  0  0  0  0  0
    0.6480   -0.3786    0.9713 H   0  0  0  0  0  0  0  0  0  0  0  0
    2.9454    0.1732   -0.9907 H   0  0  0  0  0  0  0  0  0  0  0  0
    2.9454   -1.0839    0.2308 H   0  0  0  0  0  0  0  0  0  0  0  0
    2.7382    0.6390    2.0307 H   0  0  0  0  0  0  0  0  0  0  0  0
    2.7382    1.9230    0.7830 H   0  0  0  0  0  0  0  0  0  0  0  0
    6.9364    0.9887    1.1060 H   0  0  0  0  0  0  0  0  0  0  0  0
    6.9689    1.4127    2.8290 H   0  0  0  0  0  0  0  0  0  0  0  0
    6.9689    2.6988    1.5793 H   0  0  0  0  0  0  0  0  0  0  0  0
  1  2  1  0  0  0  0
  1  8  1  0  0  0  0
  1  9  1  0  0  0  0
  1 10  1  0  0  0  0
  2  3  1  0  0  0  0
  2 11  1  0  0  0  0
  2 12  1  0  0  0  0
  3  4  1  0  0  0  0
  3 13  1  0  0  0  0
  3 14  1  0  0  0  0
  4  5  1  0  0  0  0
  5  6  2  0  0  0  0
  5  7  1  0  0  0  0
  7 15  1  0  0  0  0
  7 16  1  0  0  0  0
  7 17  1  0  0  0  0
M  END
$$$$
