4SP
 OpenBabel04121316053D

 50 53  0  0  0  0  0  0  0  0999 V2000
    1.1160    0.0580   -0.0796 N   0  0  0  0  0  0  0  0  0  0  0  0
    2.8027    0.1281   -0.0158 S   0  0  0  0  0  0  0  0  0  0  0  0
    3.1721    1.5040   -0.2827 O   0  0  0  0  0  0  0  0  0  0  0  0
    3.1785   -0.5510    1.1955 O   0  0  0  0  0  0  0  0  0  0  0  0
    3.2609   -0.8728   -1.3970 C   0  0  0  0  0  0  0  0  0  0  0  0
    3.6580   -0.3184   -2.6161 C   0  0  0  0  0  0  0  0  0  0  0  0
    3.7719   -1.1457   -3.7457 C   0  0  0  0  0  0  0  0  0  0  0  0
    3.6336   -2.5332   -3.6246 C   0  0  0  0  0  0  0  0  0  0  0  0
    3.4637   -3.0590   -2.3344 C   0  0  0  0  0  0  0  0  0  0  0  0
    3.2061   -2.2503   -1.2396 C   0  0  0  0  0  0  0  0  0  0  0  0
    3.5859   -3.3716   -4.7499 N   0  0  0  0  0  0  0  0  0  0  0  0
    3.3877   -4.7572   -4.7404 C   0  0  0  0  0  0  0  0  0  0  0  0
    4.1850   -5.4938   -5.5403 N   0  0  0  0  0  0  0  0  0  0  0  0
    4.1296   -6.8453   -5.4275 C   0  0  0  0  0  0  0  0  0  0  0  0
    4.8687   -7.6526   -6.2442 O   0  0  0  0  0  0  0  0  0  0  0  0
    5.8673   -7.0431   -7.0367 C   0  0  0  0  0  0  0  0  0  0  0  0
    6.8065   -8.1382   -7.6061 C   0  0  0  0  0  0  0  0  0  0  0  0
    7.7985   -8.5396   -6.4981 C   0  0  0  0  0  0  0  0  0  0  0  0
    7.1275   -9.3670   -5.4009 C   0  0  0  0  0  0  0  0  0  0  0  0
    6.5043  -10.6321   -5.9789 C   0  0  0  0  0  0  0  0  0  0  0  0
    5.5217  -10.3303   -7.1092 C   0  0  0  0  0  0  0  0  0  0  0  0
    6.1512   -9.4234   -8.1698 C   0  0  0  0  0  0  0  0  0  0  0  0
    3.2541   -7.4474   -4.5256 C   0  0  0  0  0  0  0  0  0  0  0  0
    2.4545   -6.5813   -3.8189 C   0  0  0  0  0  0  0  0  0  0  0  0
    2.4567   -5.2514   -3.8895 N   0  0  0  0  0  0  0  0  0  0  0  0
    1.6571   -7.3701   -3.0418 N   0  0  0  0  0  0  0  0  0  0  0  0
    0.9436   -7.0443   -2.4071 H   0  0  0  0  0  0  0  0  0  0  0  0
    1.9909   -8.6706   -3.3055 C   0  0  0  0  0  0  0  0  0  0  0  0
    2.9627   -8.7540   -4.1892 N   0  0  0  0  0  0  0  0  0  0  0  0
    0.7286    0.7106    0.6044 H   0  0  0  0  0  0  0  0  0  0  0  0
    0.7671   -0.8887    0.0717 H   0  0  0  0  0  0  0  0  0  0  0  0
    3.8456    0.7492   -2.7040 H   0  0  0  0  0  0  0  0  0  0  0  0
    3.9594   -0.6901   -4.7156 H   0  0  0  0  0  0  0  0  0  0  0  0
    3.4964   -4.1298   -2.1621 H   0  0  0  0  0  0  0  0  0  0  0  0
    2.9547   -2.7136   -0.2902 H   0  0  0  0  0  0  0  0  0  0  0  0
    3.9229   -3.0260   -5.6340 H   0  0  0  0  0  0  0  0  0  0  0  0
    6.4729   -6.3482   -6.4362 H   0  0  0  0  0  0  0  0  0  0  0  0
    5.3933   -6.4766   -7.8427 H   0  0  0  0  0  0  0  0  0  0  0  0
    7.3663   -7.6728   -8.4283 H   0  0  0  0  0  0  0  0  0  0  0  0
    8.2487   -7.6431   -6.0572 H   0  0  0  0  0  0  0  0  0  0  0  0
    8.6221   -9.1160   -6.9373 H   0  0  0  0  0  0  0  0  0  0  0  0
    6.3567   -8.7867   -4.8858 H   0  0  0  0  0  0  0  0  0  0  0  0
    7.8589   -9.6194   -4.6283 H   0  0  0  0  0  0  0  0  0  0  0  0
    5.9958  -11.1886   -5.1848 H   0  0  0  0  0  0  0  0  0  0  0  0
    7.3069  -11.2732   -6.3627 H   0  0  0  0  0  0  0  0  0  0  0  0
    4.6140   -9.8715   -6.7082 H   0  0  0  0  0  0  0  0  0  0  0  0
    5.1888  -11.2702   -7.5657 H   0  0  0  0  0  0  0  0  0  0  0  0
    5.4216   -9.1895   -8.9529 H   0  0  0  0  0  0  0  0  0  0  0  0
    6.9409  -10.0122   -8.6619 H   0  0  0  0  0  0  0  0  0  0  0  0
    1.4911   -9.5072   -2.8341 H   0  0  0  0  0  0  0  0  0  0  0  0
  1  2  1  0  0  0  0
  1 30  1  0  0  0  0
  1 31  1  0  0  0  0
  2  3  2  0  0  0  0
  2  4  2  0  0  0  0
  2  5  1  0  0  0  0
  5  6  2  0  0  0  0
  5 10  1  0  0  0  0
  6  7  1  0  0  0  0
  6 32  1  0  0  0  0
  7  8  2  0  0  0  0
  7 33  1  0  0  0  0
  8  9  1  0  0  0  0
  8 11  1  0  0  0  0
  9 10  2  0  0  0  0
  9 34  1  0  0  0  0
 10 35  1  0  0  0  0
 11 12  1  0  0  0  0
 11 36  1  0  0  0  0
 12 13  2  0  0  0  0
 12 25  1  0  0  0  0
 13 14  1  0  0  0  0
 14 15  1  0  0  0  0
 14 23  2  0  0  0  0
 15 16  1  0  0  0  0
 16 17  1  0  0  0  0
 16 37  1  0  0  0  0
 16 38  1  0  0  0  0
 17 18  1  0  0  0  0
 17 22  1  0  0  0  0
 17 39  1  0  0  0  0
 18 19  1  0  0  0  0
 18 40  1  0  0  0  0
 18 41  1  0  0  0  0
 19 20  1  0  0  0  0
 19 42  1  0  0  0  0
 19 43  1  0  0  0  0
 20 21  1  0  0  0  0
 20 44  1  0  0  0  0
 20 45  1  0  0  0  0
 21 22  1  0  0  0  0
 21 46  1  0  0  0  0
 21 47  1  0  0  0  0
 22 48  1  0  0  0  0
 22 49  1  0  0  0  0
 23 24  1  0  0  0  0
 23 29  1  0  0  0  0
 24 25  2  0  0  0  0
 24 26  1  0  0  0  0
 26 27  1  0  0  0  0
 26 28  1  0  0  0  0
 28 29  2  0  0  0  0
 28 50  1  0  0  0  0
M  END
$$$$
