4TP
 OpenBabel04121316053D

 23 22  0  0  1  0  0  0  0  0999 V2000
    1.1380   -0.0019   -0.0875 O   0  0  0  0  0  0  0  0  0  0  0  0
    2.5795   -0.0325   -0.1503 C   0  0  1  0  0  0  0  0  0  0  0  0
    2.9120   -1.0603    0.0395 H   0  0  0  0  0  0  0  0  0  0  0  0
    3.0825    0.4804   -1.5072 C   0  0  1  0  0  0  0  0  0  0  0  0
    2.7341    1.5037   -1.6879 H   0  0  0  0  0  0  0  0  0  0  0  0
    4.6278    0.4339   -1.6799 C   0  0  0  0  0  0  0  0  0  0  0  0
    5.2142   -0.4541   -2.2808 O   0  0  0  0  0  0  0  0  0  0  0  0
    5.3210    1.4658   -1.1395 O   0  0  0  0  0  0  0  0  0  0  0  0
    2.4752   -0.3715   -2.5675 N   0  0  0  0  0  0  0  0  0  0  0  0
    3.0269    0.8511    0.9845 C   0  0  0  0  0  0  0  0  0  0  0  0
    4.4405    0.9690    1.0664 O   0  0  0  0  0  0  0  0  0  0  0  0
    5.0172    2.0373    2.2988 P   0  0  0  0  0  0  0  0  0  0  0  0
    4.8593    3.2107    1.3391 O   0  0  0  0  0  0  0  0  0  0  0  0
    3.6603    1.8754    3.1815 O   0  0  0  0  0  0  0  0  0  0  0  0
    5.5938    3.1056    3.5313 O   0  0  0  0  0  0  0  0  0  0  0  0
    0.7881   -0.6778   -0.6887 H   0  0  0  0  0  0  0  0  0  0  0  0
    4.8440    1.9696   -0.4420 H   0  0  0  0  0  0  0  0  0  0  0  0
    1.4650   -0.3897   -2.4871 H   0  0  0  0  0  0  0  0  0  0  0  0
    2.8307   -1.3234   -2.4451 H   0  0  0  0  0  0  0  0  0  0  0  0
    2.6323    0.4031    1.9043 H   0  0  0  0  0  0  0  0  0  0  0  0
    2.5827    1.8482    0.8705 H   0  0  0  0  0  0  0  0  0  0  0  0
    2.9507    2.4912    2.9243 H   0  0  0  0  0  0  0  0  0  0  0  0
    6.4241    3.5106    3.2196 H   0  0  0  0  0  0  0  0  0  0  0  0
  1  2  1  0  0  0  0
  1 16  1  0  0  0  0
  2  3  1  1  0  0  0
  2  4  1  0  0  0  0
  2 10  1  0  0  0  0
  4  5  1  6  0  0  0
  4  6  1  0  0  0  0
  4  9  1  0  0  0  0
  6  7  2  0  0  0  0
  6  8  1  0  0  0  0
  8 17  1  0  0  0  0
  9 18  1  0  0  0  0
  9 19  1  0  0  0  0
 10 11  1  0  0  0  0
 10 20  1  0  0  0  0
 10 21  1  0  0  0  0
 11 12  1  0  0  0  0
 12 13  2  0  0  0  0
 12 14  1  0  0  0  0
 12 15  1  0  0  0  0
 14 22  1  0  0  0  0
 15 23  1  0  0  0  0
M  END
$$$$
