4UN
 OpenBabel04121316053D

 53 56  0  0  0  0  0  0  0  0999 V2000
    1.0512    0.1166    0.0832 C   0  0  0  0  0  0  0  0  0  0  0  0
    2.5114   -0.0313    0.0622 C   0  0  0  0  0  0  0  0  0  0  0  0
    3.2809    1.0811   -0.0773 O   0  0  0  0  0  0  0  0  0  0  0  0
    4.5887    0.6241   -0.2350 N   0  0  0  0  0  0  0  0  0  0  0  0
    4.4906   -0.7095   -0.0979 C   0  0  0  0  0  0  0  0  0  0  0  0
    3.2008   -1.1434    0.0960 N   0  0  0  0  0  0  0  0  0  0  0  0
    5.6609   -1.6860   -0.0698 C   0  0  0  0  0  0  0  0  0  0  0  0
    6.4781   -1.5849   -1.3961 C   0  0  0  0  0  0  0  0  0  0  0  0
    7.0389   -0.4918   -1.9476 N   0  0  0  0  0  0  0  0  0  0  0  0
    7.8133   -1.0065   -3.0220 O   0  0  0  0  0  0  0  0  0  0  0  0
    7.6255   -2.3572   -3.0173 C   0  0  0  0  0  0  0  0  0  0  0  0
    6.7419   -2.7243   -2.1329 N   0  0  0  0  0  0  0  0  0  0  0  0
    8.3950   -3.2512   -3.9114 C   0  0  0  0  0  0  0  0  0  0  0  0
    6.4568   -1.5520    1.3031 C   0  0  0  0  0  0  0  0  0  0  0  0
    7.2680   -0.3075    1.4314 C   0  0  0  0  0  0  0  0  0  0  0  0
    6.6048    0.8691    1.7618 C   0  0  0  0  0  0  0  0  0  0  0  0
    7.1910    2.0808    1.4549 C   0  0  0  0  0  0  0  0  0  0  0  0
    8.5246    2.1174    1.0627 C   0  0  0  0  0  0  0  0  0  0  0  0
    9.2634    0.9390    0.9596 C   0  0  0  0  0  0  0  0  0  0  0  0
    8.6179   -0.2838    1.0727 C   0  0  0  0  0  0  0  0  0  0  0  0
    5.0483   -3.1473    0.0247 C   0  0  0  0  0  0  0  0  0  0  0  0
    6.0360   -4.3031    0.0902 C   0  0  0  0  0  0  0  0  0  0  0  0
    7.4272   -4.1172   -0.0366 C   0  0  0  0  0  0  0  0  0  0  0  0
    8.3031   -5.1433   -0.2863 C   0  0  0  0  0  0  0  0  0  0  0  0
    7.8187   -6.4258   -0.2399 C   0  0  0  0  0  0  0  0  0  0  0  0
    6.4744   -6.6521    0.0936 C   0  0  0  0  0  0  0  0  0  0  0  0
    5.5647   -5.6024    0.1776 C   0  0  0  0  0  0  0  0  0  0  0  0
    8.7651   -7.4486   -0.4744 N   0  0  0  0  0  0  0  0  0  0  0  0
    8.2638   -9.0230   -0.5133 S   0  0  0  0  0  0  0  0  0  0  0  0
    8.0383   -9.4192    0.8493 O   0  0  0  0  0  0  0  0  0  0  0  0
    7.2599   -9.1817   -1.5472 O   0  0  0  0  0  0  0  0  0  0  0  0
    9.6000   -9.7628   -0.9989 O   0  0  0  0  0  0  0  0  0  0  0  0
    0.7210    1.1578    0.0796 H   0  0  0  0  0  0  0  0  0  0  0  0
    0.6465   -0.3820    0.9681 H   0  0  0  0  0  0  0  0  0  0  0  0
    0.6405   -0.3817   -0.8005 H   0  0  0  0  0  0  0  0  0  0  0  0
    8.9351   -2.7357   -4.7073 H   0  0  0  0  0  0  0  0  0  0  0  0
    7.7028   -3.9680   -4.3678 H   0  0  0  0  0  0  0  0  0  0  0  0
    9.1168   -3.8473   -3.3361 H   0  0  0  0  0  0  0  0  0  0  0  0
    7.1463   -2.3691    1.5283 H   0  0  0  0  0  0  0  0  0  0  0  0
    5.7588   -1.6291    2.1517 H   0  0  0  0  0  0  0  0  0  0  0  0
    5.5731    0.8370    2.1047 H   0  0  0  0  0  0  0  0  0  0  0  0
    6.5845    2.9798    1.4800 H   0  0  0  0  0  0  0  0  0  0  0  0
    8.9829    3.0708    0.8276 H   0  0  0  0  0  0  0  0  0  0  0  0
   10.3232    0.9744    0.7325 H   0  0  0  0  0  0  0  0  0  0  0  0
    9.1536   -1.1990    0.8311 H   0  0  0  0  0  0  0  0  0  0  0  0
    4.3882   -3.3105   -0.8429 H   0  0  0  0  0  0  0  0  0  0  0  0
    4.4027   -3.2200    0.9140 H   0  0  0  0  0  0  0  0  0  0  0  0
    7.8908   -3.1403   -0.0839 H   0  0  0  0  0  0  0  0  0  0  0  0
    9.3272   -4.8892   -0.5371 H   0  0  0  0  0  0  0  0  0  0  0  0
    6.0857   -7.6513    0.2496 H   0  0  0  0  0  0  0  0  0  0  0  0
    4.5037   -5.8187    0.2820 H   0  0  0  0  0  0  0  0  0  0  0  0
    9.6203   -7.2098   -0.9690 H   0  0  0  0  0  0  0  0  0  0  0  0
   10.1947   -9.8246   -0.2258 H   0  0  0  0  0  0  0  0  0  0  0  0
  1  2  1  0  0  0  0
  1 33  1  0  0  0  0
  1 34  1  0  0  0  0
  1 35  1  0  0  0  0
  2  3  1  0  0  0  0
  2  6  2  0  0  0  0
  3  4  1  0  0  0  0
  4  5  2  0  0  0  0
  5  6  1  0  0  0  0
  5  7  1  0  0  0  0
  7  8  1  0  0  0  0
  7 14  1  0  0  0  0
  7 21  1  0  0  0  0
  8  9  2  0  0  0  0
  8 12  1  0  0  0  0
  9 10  1  0  0  0  0
 10 11  1  0  0  0  0
 11 12  2  0  0  0  0
 11 13  1  0  0  0  0
 13 36  1  0  0  0  0
 13 37  1  0  0  0  0
 13 38  1  0  0  0  0
 14 15  1  0  0  0  0
 14 39  1  0  0  0  0
 14 40  1  0  0  0  0
 15 16  2  0  0  0  0
 15 20  1  0  0  0  0
 16 17  1  0  0  0  0
 16 41  1  0  0  0  0
 17 18  2  0  0  0  0
 17 42  1  0  0  0  0
 18 19  1  0  0  0  0
 18 43  1  0  0  0  0
 19 20  2  0  0  0  0
 19 44  1  0  0  0  0
 20 45  1  0  0  0  0
 21 22  1  0  0  0  0
 21 46  1  0  0  0  0
 21 47  1  0  0  0  0
 22 23  2  0  0  0  0
 22 27  1  0  0  0  0
 23 24  1  0  0  0  0
 23 48  1  0  0  0  0
 24 25  2  0  0  0  0
 24 49  1  0  0  0  0
 25 26  1  0  0  0  0
 25 28  1  0  0  0  0
 26 27  2  0  0  0  0
 26 50  1  0  0  0  0
 27 51  1  0  0  0  0
 28 29  1  0  0  0  0
 28 52  1  0  0  0  0
 29 30  2  0  0  0  0
 29 31  2  0  0  0  0
 29 32  1  0  0  0  0
 32 53  1  0  0  0  0
M  END
$$$$
