4VQ
 OpenBabel04121316053D

 50 52  0  0  0  0  0  0  0  0999 V2000
    0.9348    0.2030   -0.2692 C   0  0  0  0  0  0  0  0  0  0  0  0
    2.3056    0.0507    0.1099 O   0  0  0  0  0  0  0  0  0  0  0  0
    2.9591   -0.8326   -0.7007 C   0  0  0  0  0  0  0  0  0  0  0  0
    3.8957   -0.3560   -1.6341 C   0  0  0  0  0  0  0  0  0  0  0  0
    4.3009    0.9404   -1.8373 O   0  0  0  0  0  0  0  0  0  0  0  0
    3.7893    1.9062   -0.9338 C   0  0  0  0  0  0  0  0  0  0  0  0
    4.5032   -1.2490   -2.5197 C   0  0  0  0  0  0  0  0  0  0  0  0
    4.2220   -2.6230   -2.4955 C   0  0  0  0  0  0  0  0  0  0  0  0
    3.3288   -3.0758   -1.4921 C   0  0  0  0  0  0  0  0  0  0  0  0
    2.7100   -2.2020   -0.5782 C   0  0  0  0  0  0  0  0  0  0  0  0
    1.8500   -2.7865    0.3245 O   0  0  0  0  0  0  0  0  0  0  0  0
    1.5060   -2.0916    1.5307 C   0  0  0  0  0  0  0  0  0  0  0  0
    4.8047   -3.5447   -3.4977 C   0  0  0  0  0  0  0  0  0  0  0  0
    5.5977   -3.1291   -4.5739 C   0  0  0  0  0  0  0  0  0  0  0  0
    6.0734   -3.9537   -5.5406 N   0  0  0  0  0  0  0  0  0  0  0  0
    5.7450   -5.2479   -5.4112 C   0  0  0  0  0  0  0  0  0  0  0  0
    4.9752   -5.6970   -4.3146 C   0  0  0  0  0  0  0  0  0  0  0  0
    4.4869   -4.8562   -3.3656 N   0  0  0  0  0  0  0  0  0  0  0  0
    4.6079   -7.1085   -4.1719 C   0  0  0  0  0  0  0  0  0  0  0  0
    5.5884   -8.0782   -3.9658 C   0  0  0  0  0  0  0  0  0  0  0  0
    5.2682   -9.4386   -3.9885 C   0  0  0  0  0  0  0  0  0  0  0  0
    3.9820   -9.8858   -4.3532 C   0  0  0  0  0  0  0  0  0  0  0  0
    2.9766   -8.9081   -4.5479 C   0  0  0  0  0  0  0  0  0  0  0  0
    3.2911   -7.5382   -4.3689 C   0  0  0  0  0  0  0  0  0  0  0  0
    1.5676   -9.1918   -5.0001 C   0  0  0  0  0  0  0  0  0  0  0  0
    3.7119  -11.3582   -4.5659 C   0  0  0  0  0  0  0  0  0  0  0  0
    2.6337  -11.8257   -4.9236 O   0  0  0  0  0  0  0  0  0  0  0  0
    4.7419  -12.2020   -4.3756 O   0  0  0  0  0  0  0  0  0  0  0  0
    6.2938   -6.1047   -6.3486 N   0  0  0  0  0  0  0  0  0  0  0  0
    0.4746    0.7648    0.5493 H   0  0  0  0  0  0  0  0  0  0  0  0
    0.4057   -0.7491   -0.3830 H   0  0  0  0  0  0  0  0  0  0  0  0
    0.8212    0.7437   -1.2065 H   0  0  0  0  0  0  0  0  0  0  0  0
    4.2098    2.8818   -1.1783 H   0  0  0  0  0  0  0  0  0  0  0  0
    4.0743    1.6651    0.0963 H   0  0  0  0  0  0  0  0  0  0  0  0
    2.7089    2.0036   -1.0604 H   0  0  0  0  0  0  0  0  0  0  0  0
    5.1898   -0.8213   -3.2473 H   0  0  0  0  0  0  0  0  0  0  0  0
    3.0957   -4.1394   -1.4308 H   0  0  0  0  0  0  0  0  0  0  0  0
    0.9927   -2.7908    2.1916 H   0  0  0  0  0  0  0  0  0  0  0  0
    0.7405   -1.3270    1.4048 H   0  0  0  0  0  0  0  0  0  0  0  0
    2.3734   -1.6496    2.0295 H   0  0  0  0  0  0  0  0  0  0  0  0
    5.8830   -2.0944   -4.7246 H   0  0  0  0  0  0  0  0  0  0  0  0
    6.6251   -7.7735   -3.8176 H   0  0  0  0  0  0  0  0  0  0  0  0
    6.0805  -10.1066   -3.7343 H   0  0  0  0  0  0  0  0  0  0  0  0
    2.5026   -6.7872   -4.4526 H   0  0  0  0  0  0  0  0  0  0  0  0
    1.3366  -10.2322   -5.1935 H   0  0  0  0  0  0  0  0  0  0  0  0
    1.3806   -8.6761   -5.9490 H   0  0  0  0  0  0  0  0  0  0  0  0
    0.8554   -8.8535   -4.2434 H   0  0  0  0  0  0  0  0  0  0  0  0
    5.5984  -11.8391   -4.1113 H   0  0  0  0  0  0  0  0  0  0  0  0
    6.7155   -5.6493   -7.1474 H   0  0  0  0  0  0  0  0  0  0  0  0
    5.9062   -7.0304   -6.4577 H   0  0  0  0  0  0  0  0  0  0  0  0
  1  2  1  0  0  0  0
  1 30  1  0  0  0  0
  1 31  1  0  0  0  0
  1 32  1  0  0  0  0
  2  3  1  0  0  0  0
  3  4  2  0  0  0  0
  3 10  1  0  0  0  0
  4  5  1  0  0  0  0
  4  7  1  0  0  0  0
  5  6  1  0  0  0  0
  6 33  1  0  0  0  0
  6 34  1  0  0  0  0
  6 35  1  0  0  0  0
  7  8  2  0  0  0  0
  7 36  1  0  0  0  0
  8  9  1  0  0  0  0
  8 13  1  0  0  0  0
  9 10  2  0  0  0  0
  9 37  1  0  0  0  0
 10 11  1  0  0  0  0
 11 12  1  0  0  0  0
 12 38  1  0  0  0  0
 12 39  1  0  0  0  0
 12 40  1  0  0  0  0
 13 14  2  0  0  0  0
 13 18  1  0  0  0  0
 14 15  1  0  0  0  0
 14 41  1  0  0  0  0
 15 16  2  0  0  0  0
 16 17  1  0  0  0  0
 16 29  1  0  0  0  0
 17 18  2  0  0  0  0
 17 19  1  0  0  0  0
 19 20  2  0  0  0  0
 19 24  1  0  0  0  0
 20 21  1  0  0  0  0
 20 42  1  0  0  0  0
 21 22  2  0  0  0  0
 21 43  1  0  0  0  0
 22 23  1  0  0  0  0
 22 26  1  0  0  0  0
 23 24  2  0  0  0  0
 23 25  1  0  0  0  0
 24 44  1  0  0  0  0
 25 45  1  0  0  0  0
 25 46  1  0  0  0  0
 25 47  1  0  0  0  0
 26 27  2  0  0  0  0
 26 28  1  0  0  0  0
 28 48  1  0  0  0  0
 29 49  1  0  0  0  0
 29 50  1  0  0  0  0
M  END
$$$$
