512
 OpenBabel04121316053D

 19 19  0  0  0  0  0  0  0  0999 V2000
    1.0414   -0.1952   -0.2749 O   0  0  0  0  0  0  0  0  0  0  0  0
    2.3644   -0.0563   -0.0525 C   0  0  0  0  0  0  0  0  0  0  0  0
    2.8289   -0.1113    1.0747 O   0  0  0  0  0  0  0  0  0  0  0  0
    3.1343   -0.0423   -1.3535 C   0  0  0  0  0  0  0  0  0  0  0  0
    4.5192   -0.0913   -0.9941 O   0  0  0  0  0  0  0  0  0  0  0  0
    5.3325   -0.1701   -2.0725 C   0  0  0  0  0  0  0  0  0  0  0  0
    5.9386    0.9396   -2.7212 C   0  0  0  0  0  0  0  0  0  0  0  0
    5.6202    2.7367   -2.2347 Br  0  0  0  0  0  0  0  0  0  0  0  0
    6.7849    0.5644   -3.7326 C   0  0  0  0  0  0  0  0  0  0  0  0
    6.8669   -1.1338   -3.8811 S   0  0  0  0  0  0  0  0  0  0  0  0
    5.7663   -1.3835   -2.5770 C   0  0  0  0  0  0  0  0  0  0  0  0
    5.4543   -2.7596   -2.2208 C   0  0  0  0  0  0  0  0  0  0  0  0
    5.8669   -3.7578   -2.7848 O   0  0  0  0  0  0  0  0  0  0  0  0
    4.5890   -2.8637   -1.1743 O   0  0  0  0  0  0  0  0  0  0  0  0
    0.6764   -0.5738    0.5526 H   0  0  0  0  0  0  0  0  0  0  0  0
    2.8879    0.8444   -1.9428 H   0  0  0  0  0  0  0  0  0  0  0  0
    2.8582   -0.9602   -1.8873 H   0  0  0  0  0  0  0  0  0  0  0  0
    7.3735    1.1886   -4.3904 H   0  0  0  0  0  0  0  0  0  0  0  0
    4.4563   -2.0251   -0.6943 H   0  0  0  0  0  0  0  0  0  0  0  0
  1  2  1  0  0  0  0
  1 15  1  0  0  0  0
  2  3  2  0  0  0  0
  2  4  1  0  0  0  0
  4  5  1  0  0  0  0
  4 16  1  0  0  0  0
  4 17  1  0  0  0  0
  5  6  1  0  0  0  0
  6  7  1  0  0  0  0
  6 11  2  0  0  0  0
  7  8  1  0  0  0  0
  7  9  2  0  0  0  0
  9 10  1  0  0  0  0
  9 18  1  0  0  0  0
 10 11  1  0  0  0  0
 11 12  1  0  0  0  0
 12 13  2  0  0  0  0
 12 14  1  0  0  0  0
 14 19  1  0  0  0  0
M  END
$$$$
