514
 OpenBabel04121316053D

 31 33  0  0  0  0  0  0  0  0999 V2000
    1.8662    4.1739    0.2018 O   0  0  0  0  0  0  0  0  0  0  0  0
    3.0627    4.4744    0.1378 C   0  0  0  0  0  0  0  0  0  0  0  0
    3.3183    5.8877    0.5574 C   0  0  0  0  0  0  0  0  0  0  0  0
    4.4873    6.0160    1.2795 C   0  0  0  0  0  0  0  0  0  0  0  0
    4.9445    7.2525    1.6926 C   0  0  0  0  0  0  0  0  0  0  0  0
    4.2464    8.4061    1.3573 C   0  0  0  0  0  0  0  0  0  0  0  0
    3.0266    8.3127    0.6856 C   0  0  0  0  0  0  0  0  0  0  0  0
    2.5000    7.0415    0.3706 C   0  0  0  0  0  0  0  0  0  0  0  0
    4.0454    3.4863    0.0028 N   0  0  0  0  0  0  0  0  0  0  0  0
    5.1807    2.9071   -0.1281 C   0  0  0  0  0  0  0  0  0  0  0  0
    4.4712    1.8422    0.4337 N   0  0  0  0  0  0  0  0  0  0  0  0
    5.1616    1.5368    1.3900 N   0  0  0  0  0  0  0  0  0  0  0  0
    6.1691    1.0916    0.6708 C   0  0  0  0  0  0  0  0  0  0  0  0
    6.6843    1.8727   -0.3086 C   0  0  0  0  0  0  0  0  0  0  0  0
    7.6043    0.3967   -0.5084 C   0  0  0  0  0  0  0  0  0  0  0  0
    7.0644   -0.7237   -0.1886 N   0  3  0  0  0  0  0  0  0  0  0  0
    5.8817   -0.3384    0.3886 C   0  0  0  0  0  0  0  0  0  0  0  0
    7.3191   -2.3094   -0.1182 C   0  0  0  0  0  0  0  0  0  0  0  0
    8.4221   -2.7196   -0.3409 O   0  0  0  0  0  0  0  0  0  0  0  0
    6.0762   -3.1975    0.2021 C   0  0  0  0  0  0  0  0  0  0  0  0
    5.0402    5.1252    1.5346 H   0  0  0  0  0  0  0  0  0  0  0  0
    5.8738    7.2912    2.2455 H   0  0  0  0  0  0  0  0  0  0  0  0
    4.6623    9.3719    1.6336 H   0  0  0  0  0  0  0  0  0  0  0  0
    2.5192    9.2362    0.3939 H   0  0  0  0  0  0  0  0  0  0  0  0
    1.4807    7.0142   -0.0282 H   0  0  0  0  0  0  0  0  0  0  0  0
    8.7013    0.4536   -0.7196 H   0  0  0  0  0  0  0  0  0  0  0  0
    5.6931   -0.8330    1.3370 H   0  0  0  0  0  0  0  0  0  0  0  0
    5.1202   -0.5105   -0.3826 H   0  0  0  0  0  0  0  0  0  0  0  0
    5.1776   -2.6076    0.4048 H   0  0  0  0  0  0  0  0  0  0  0  0
    6.2226   -3.8241    1.0884 H   0  0  0  0  0  0  0  0  0  0  0  0
    5.8167   -3.8249   -0.6547 H   0  0  0  0  0  0  0  0  0  0  0  0
  1  2  2  0  0  0  0
  2  3  1  0  0  0  0
  2  9  1  0  0  0  0
  3  4  2  0  0  0  0
  3  8  1  0  0  0  0
  4  5  1  0  0  0  0
  4 21  1  0  0  0  0
  5  6  2  0  0  0  0
  5 22  1  0  0  0  0
  6  7  1  0  0  0  0
  6 23  1  0  0  0  0
  7  8  2  0  0  0  0
  7 24  1  0  0  0  0
  8 25  1  0  0  0  0
  9 10  2  0  0  0  0
 10 11  1  0  0  0  0
 10 14  1  0  0  0  0
 11 12  2  0  0  0  0
 12 13  1  0  0  0  0
 13 14  2  0  0  0  0
 13 17  1  0  0  0  0
 14 15  1  0  0  0  0
 15 16  2  0  0  0  0
 15 26  1  0  0  0  0
 16 17  1  0  0  0  0
 16 18  1  0  0  0  0
 17 27  1  0  0  0  0
 17 28  1  0  0  0  0
 18 19  2  0  0  0  0
 18 20  1  0  0  0  0
 20 29  1  0  0  0  0
 20 30  1  0  0  0  0
 20 31  1  0  0  0  0
M  CHG  1  16   1
M  END
$$$$
