516
 OpenBabel04121316053D

 72 76  0  0  1  0  0  0  0  0999 V2000
    0.0891   -0.5413   -0.8506 C   0  0  0  0  0  0  0  0  0  0  0  0
    0.7902   -1.7685   -0.4154 N   0  0  0  0  0  0  0  0  0  0  0  0
    0.0230   -3.0289   -0.2653 C   0  0  2  0  0  0  0  0  0  0  0  0
   -0.9849   -2.8233    0.0248 H   0  0  0  0  0  0  0  0  0  0  0  0
    0.7502   -4.0244    0.7594 C   0  0  0  0  0  0  0  0  0  0  0  0
    1.1262   -5.1456    0.3881 O   0  0  0  0  0  0  0  0  0  0  0  0
    1.0038   -3.7440    2.0888 N   0  0  0  0  0  0  0  0  0  0  0  0
    0.5650   -2.6767    3.0415 C   0  0  2  0  0  0  0  0  0  0  0  0
    0.9491   -1.7613    2.5851 H   0  0  0  0  0  0  0  0  0  0  0  0
    1.2928   -2.7213    4.4192 C   0  0  0  0  0  0  0  0  0  0  0  0
    0.7065   -2.7365    5.5159 O   0  0  0  0  0  0  0  0  0  0  0  0
    2.6486   -2.5792    4.3186 N   0  0  0  0  0  0  0  0  0  0  0  0
    3.3901   -1.4085    4.7395 C   0  0  0  0  0  0  0  0  0  0  0  0
    4.7346   -1.7096    4.0911 C   0  0  0  0  0  0  0  0  0  0  0  0
    4.9113   -3.2186    4.2754 C   0  0  0  0  0  0  0  0  0  0  0  0
    3.4969   -3.7362    4.4791 C   0  0  1  0  0  0  0  0  0  0  0  0
    3.2160   -4.4489    3.7007 H   0  0  0  0  0  0  0  0  0  0  0  0
    3.3696   -4.3706    5.8212 C   0  0  0  0  0  0  0  0  0  0  0  0
    2.8418   -5.9943    5.8217 S   0  0  0  0  0  0  0  0  0  0  0  0
    2.8661   -5.9311    7.5100 C   0  0  0  0  0  0  0  0  0  0  0  0
    3.4525   -4.7748    7.9941 C   0  0  0  0  0  0  0  0  0  0  0  0
    3.6998   -3.8475    6.9902 N   0  0  0  0  0  0  0  0  0  0  0  0
    3.7468   -4.4942    9.4169 C   0  0  0  0  0  0  0  0  0  0  0  0
    3.9650   -3.1607    9.8204 C   0  0  0  0  0  0  0  0  0  0  0  0
    4.1632   -2.8365   11.1670 C   0  0  0  0  0  0  0  0  0  0  0  0
    4.1194   -3.8345   12.1377 C   0  0  0  0  0  0  0  0  0  0  0  0
    3.8626   -5.1640   11.7792 C   0  0  0  0  0  0  0  0  0  0  0  0
    3.7399   -5.5155   10.4177 C   0  0  0  0  0  0  0  0  0  0  0  0
    3.6121   -6.8949   10.1562 C   0  0  0  0  0  0  0  0  0  0  0  0
    3.1841   -7.7980   11.1117 C   0  0  0  0  0  0  0  0  0  0  0  0
    3.1713   -7.4018   12.4294 C   0  0  0  0  0  0  0  0  0  0  0  0
    3.6801   -6.1483   12.7647 C   0  0  0  0  0  0  0  0  0  0  0  0
   -0.9825   -2.6591    3.3134 C   0  0  0  0  0  0  0  0  0  0  0  0
   -1.5122   -1.4921    4.1661 C   0  0  0  0  0  0  0  0  0  0  0  0
   -1.1033   -0.1211    3.6235 C   0  0  0  0  0  0  0  0  0  0  0  0
   -1.7527    0.0868    2.2680 C   0  0  0  0  0  0  0  0  0  0  0  0
   -1.4835   -1.1520    1.4563 C   0  0  0  0  0  0  0  0  0  0  0  0
   -1.7836   -2.5185    2.0528 C   0  0  0  0  0  0  0  0  0  0  0  0
   -0.3633   -3.7351   -1.5519 C   0  0  0  0  0  0  0  0  0  0  0  0
    0.8366    0.2511   -0.9110 H   0  0  0  0  0  0  0  0  0  0  0  0
   -0.6184   -0.0090   -0.2048 H   0  0  0  0  0  0  0  0  0  0  0  0
   -0.4756   -0.6776   -1.7707 H   0  0  0  0  0  0  0  0  0  0  0  0
    1.2442   -1.5868    0.4791 H   0  0  0  0  0  0  0  0  0  0  0  0
    1.5117   -4.5146    2.5106 H   0  0  0  0  0  0  0  0  0  0  0  0
    3.4629   -1.3583    5.8337 H   0  0  0  0  0  0  0  0  0  0  0  0
    2.9152   -0.4926    4.3764 H   0  0  0  0  0  0  0  0  0  0  0  0
    5.5661   -1.1407    4.5074 H   0  0  0  0  0  0  0  0  0  0  0  0
    4.6688   -1.5036    3.0152 H   0  0  0  0  0  0  0  0  0  0  0  0
    5.5666   -3.4356    5.1266 H   0  0  0  0  0  0  0  0  0  0  0  0
    5.3510   -3.6947    3.3941 H   0  0  0  0  0  0  0  0  0  0  0  0
    2.4708   -6.8006    7.9951 H   0  0  0  0  0  0  0  0  0  0  0  0
    3.9655   -2.3550    9.0873 H   0  0  0  0  0  0  0  0  0  0  0  0
    4.3175   -1.8017   11.4661 H   0  0  0  0  0  0  0  0  0  0  0  0
    4.2386   -3.5631   13.1851 H   0  0  0  0  0  0  0  0  0  0  0  0
    3.8314   -7.3080    9.1822 H   0  0  0  0  0  0  0  0  0  0  0  0
    2.9058   -8.8019   10.8078 H   0  0  0  0  0  0  0  0  0  0  0  0
    2.8145   -8.0830   13.1927 H   0  0  0  0  0  0  0  0  0  0  0  0
    3.8885   -5.9323   13.8080 H   0  0  0  0  0  0  0  0  0  0  0  0
   -1.2604   -3.6271    3.7457 H   0  0  0  0  0  0  0  0  0  0  0  0
   -1.2331   -1.5906    5.2077 H   0  0  0  0  0  0  0  0  0  0  0  0
   -2.6102   -1.5454    4.1336 H   0  0  0  0  0  0  0  0  0  0  0  0
   -0.0101   -0.0578    3.5235 H   0  0  0  0  0  0  0  0  0  0  0  0
   -1.4047    0.6797    4.2969 H   0  0  0  0  0  0  0  0  0  0  0  0
   -1.3086    0.9716    1.7837 H   0  0  0  0  0  0  0  0  0  0  0  0
   -2.8304    0.2390    2.3099 H   0  0  0  0  0  0  0  0  0  0  0  0
   -0.4048   -1.0641    1.3797 H   0  0  0  0  0  0  0  0  0  0  0  0
   -1.9872   -1.0847    0.4920 H   0  0  0  0  0  0  0  0  0  0  0  0
   -1.5338   -3.4273    1.5101 H   0  0  0  0  0  0  0  0  0  0  0  0
   -2.8655   -2.6059    2.1179 H   0  0  0  0  0  0  0  0  0  0  0  0
   -0.8880   -4.6746   -1.3177 H   0  0  0  0  0  0  0  0  0  0  0  0
    0.5079   -3.9475   -2.1620 H   0  0  0  0  0  0  0  0  0  0  0  0
   -1.0840   -3.1179   -2.1039 H   0  0  0  0  0  0  0  0  0  0  0  0
  1  2  1  0  0  0  0
  1 40  1  0  0  0  0
  1 41  1  0  0  0  0
  1 42  1  0  0  0  0
  2 43  1  0  0  0  0
  3  5  1  0  0  0  0
  3 39  1  0  0  0  0
  3  4  1  1  0  0  0
  3  2  1  0  0  0  0
  5  6  2  0  0  0  0
  5  7  1  0  0  0  0
  7 44  1  0  0  0  0
  8 10  1  0  0  0  0
  8 33  1  0  0  0  0
  8  9  1  6  0  0  0
  8  7  1  0  0  0  0
 10 11  2  0  0  0  0
 10 12  1  0  0  0  0
 12 13  1  0  0  0  0
 12 16  1  0  0  0  0
 13 14  1  0  0  0  0
 13 45  1  0  0  0  0
 13 46  1  0  0  0  0
 14 15  1  0  0  0  0
 14 47  1  0  0  0  0
 14 48  1  0  0  0  0
 15 16  1  0  0  0  0
 15 49  1  0  0  0  0
 15 50  1  0  0  0  0
 16 18  1  0  0  0  0
 16 17  1  6  0  0  0
 18 19  1  0  0  0  0
 18 22  2  0  0  0  0
 19 20  1  0  0  0  0
 20 21  2  0  0  0  0
 20 51  1  0  0  0  0
 21 22  1  0  0  0  0
 21 23  1  0  0  0  0
 23 24  2  0  0  0  0
 23 28  1  0  0  0  0
 24 25  1  0  0  0  0
 24 52  1  0  0  0  0
 25 26  2  0  0  0  0
 25 53  1  0  0  0  0
 26 27  1  0  0  0  0
 26 54  1  0  0  0  0
 27 28  2  0  0  0  0
 27 32  1  0  0  0  0
 28 29  1  0  0  0  0
 29 30  2  0  0  0  0
 29 55  1  0  0  0  0
 30 31  1  0  0  0  0
 30 56  1  0  0  0  0
 31 32  2  0  0  0  0
 31 57  1  0  0  0  0
 32 58  1  0  0  0  0
 33 34  1  0  0  0  0
 33 38  1  0  0  0  0
 33 59  1  0  0  0  0
 34 35  1  0  0  0  0
 34 60  1  0  0  0  0
 34 61  1  0  0  0  0
 35 36  1  0  0  0  0
 35 62  1  0  0  0  0
 35 63  1  0  0  0  0
 36 37  1  0  0  0  0
 36 64  1  0  0  0  0
 36 65  1  0  0  0  0
 37 38  1  0  0  0  0
 37 66  1  0  0  0  0
 37 67  1  0  0  0  0
 38 68  1  0  0  0  0
 38 69  1  0  0  0  0
 39 70  1  0  0  0  0
 39 71  1  0  0  0  0
 39 72  1  0  0  0  0
M  END
$$$$
