51P
 OpenBabel04121316053D

 38 40  0  0  0  0  0  0  0  0999 V2000
    0.9411    0.0251   -0.0260 C   0  0  0  0  0  0  0  0  0  0  0  0
    2.3438    0.1378    0.2091 O   0  0  0  0  0  0  0  0  0  0  0  0
    2.9541    0.8292   -0.7986 C   0  0  0  0  0  0  0  0  0  0  0  0
    2.8099    2.2264   -0.7785 C   0  0  0  0  0  0  0  0  0  0  0  0
    3.2543    2.9879   -1.8474 C   0  0  0  0  0  0  0  0  0  0  0  0
    4.1314    2.4029   -2.7270 C   0  0  0  0  0  0  0  0  0  0  0  0
    4.5654    1.1004   -2.4713 C   0  0  0  0  0  0  0  0  0  0  0  0
    3.7760    0.2034   -1.7396 C   0  0  0  0  0  0  0  0  0  0  0  0
    3.8198   -1.2714   -2.0705 C   0  0  0  0  0  0  0  0  0  0  0  0
    4.2377   -1.7903   -3.2610 C   0  0  0  0  0  0  0  0  0  0  0  0
    4.6829   -1.1312   -4.4562 C   0  0  0  0  0  0  0  0  0  0  0  0
    4.1939    0.0613   -4.9488 C   0  0  0  0  0  0  0  0  0  0  0  0
    5.0213    0.5807   -5.8817 O   0  0  0  0  0  0  0  0  0  0  0  0
    5.7948   -0.4537   -6.2764 C   0  0  0  0  0  0  0  0  0  0  0  0
    5.5674   -1.5634   -5.4819 C   0  0  0  0  0  0  0  0  0  0  0  0
    6.1726   -2.7420   -5.9053 C   0  0  0  0  0  0  0  0  0  0  0  0
    6.0079   -3.9405   -5.2525 N   0  0  0  0  0  0  0  0  0  0  0  0
    6.8357   -2.7244   -7.0889 N   0  0  0  0  0  0  0  0  0  0  0  0
    6.9648   -1.5634   -7.7572 C   0  0  0  0  0  0  0  0  0  0  0  0
    6.5359   -0.3730   -7.3828 N   0  0  0  0  0  0  0  0  0  0  0  0
    7.5545   -1.5873   -8.9946 N   0  0  0  0  0  0  0  0  0  0  0  0
    3.2376   -2.2954   -1.1112 C   0  0  0  0  0  0  0  0  0  0  0  0
    0.5450   -0.6571    0.7314 H   0  0  0  0  0  0  0  0  0  0  0  0
    0.7246   -0.4049   -1.0116 H   0  0  0  0  0  0  0  0  0  0  0  0
    0.4491    0.9941    0.0892 H   0  0  0  0  0  0  0  0  0  0  0  0
    2.3237    2.7054    0.0623 H   0  0  0  0  0  0  0  0  0  0  0  0
    2.9871    4.0324   -1.9572 H   0  0  0  0  0  0  0  0  0  0  0  0
    4.4853    2.9319   -3.6106 H   0  0  0  0  0  0  0  0  0  0  0  0
    5.4420    0.7583   -3.0141 H   0  0  0  0  0  0  0  0  0  0  0  0
    4.2401   -2.8773   -3.3167 H   0  0  0  0  0  0  0  0  0  0  0  0
    3.3984    0.7240   -4.6459 H   0  0  0  0  0  0  0  0  0  0  0  0
    5.5789   -3.9840   -4.3440 H   0  0  0  0  0  0  0  0  0  0  0  0
    6.4029   -4.7697   -5.6648 H   0  0  0  0  0  0  0  0  0  0  0  0
    7.8809   -2.4584   -9.3580 H   0  0  0  0  0  0  0  0  0  0  0  0
    7.6148   -0.7045   -9.4729 H   0  0  0  0  0  0  0  0  0  0  0  0
    2.7549   -1.9056   -0.2239 H   0  0  0  0  0  0  0  0  0  0  0  0
    4.0171   -2.9692   -0.7452 H   0  0  0  0  0  0  0  0  0  0  0  0
    2.4647   -2.8941   -1.6149 H   0  0  0  0  0  0  0  0  0  0  0  0
  1  2  1  0  0  0  0
  1 23  1  0  0  0  0
  1 24  1  0  0  0  0
  1 25  1  0  0  0  0
  2  3  1  0  0  0  0
  3  4  2  0  0  0  0
  3  8  1  0  0  0  0
  4  5  1  0  0  0  0
  4 26  1  0  0  0  0
  5  6  2  0  0  0  0
  5 27  1  0  0  0  0
  6  7  1  0  0  0  0
  6 28  1  0  0  0  0
  7  8  2  0  0  0  0
  7 29  1  0  0  0  0
  8  9  1  0  0  0  0
  9 10  2  0  0  0  0
  9 22  1  0  0  0  0
 10 11  1  0  0  0  0
 10 30  1  0  0  0  0
 11 12  2  0  0  0  0
 11 15  1  0  0  0  0
 12 13  1  0  0  0  0
 12 31  1  0  0  0  0
 13 14  1  0  0  0  0
 14 15  2  0  0  0  0
 14 20  1  0  0  0  0
 15 16  1  0  0  0  0
 16 17  1  0  0  0  0
 16 18  2  0  0  0  0
 17 32  1  0  0  0  0
 17 33  1  0  0  0  0
 18 19  1  0  0  0  0
 19 20  2  0  0  0  0
 19 21  1  0  0  0  0
 21 34  1  0  0  0  0
 21 35  1  0  0  0  0
 22 36  1  0  0  0  0
 22 37  1  0  0  0  0
 22 38  1  0  0  0  0
M  END
$$$$
