521
 OpenBabel04121316053D

 29 31  0  0  0  0  0  0  0  0999 V2000
    1.1414   -0.1154    0.1060 O   0  0  0  0  0  0  0  0  0  0  0  0
    2.3586   -0.0816    0.0845 C   0  0  0  0  0  0  0  0  0  0  0  0
    3.2318    1.1608    0.0605 C   0  0  0  0  0  0  0  0  0  0  0  0
    4.3343    0.7240   -0.8265 N   0  0  0  0  0  0  0  0  0  0  0  0
    4.6214   -0.9285   -0.6212 S   0  0  0  0  0  0  0  0  0  0  0  0
    5.6515   -1.1052    0.3619 O   0  0  0  0  0  0  0  0  0  0  0  0
    4.5486   -1.6568   -1.8688 O   0  0  0  0  0  0  0  0  0  0  0  0
    3.1640   -1.2190    0.1076 N   0  0  0  0  0  0  0  0  0  0  0  0
    5.0229    1.6074   -1.6810 C   0  0  0  0  0  0  0  0  0  0  0  0
    4.7790    2.9673   -1.6884 C   0  0  0  0  0  0  0  0  0  0  0  0
    5.5922    3.7948   -2.9100 S   0  0  0  0  0  0  0  0  0  0  0  0
    6.4003    2.3691   -3.4338 C   0  0  0  0  0  0  0  0  0  0  0  0
    6.0546    1.2871   -2.6348 C   0  0  0  0  0  0  0  0  0  0  0  0
    6.8098   -0.2586   -2.7481 Cl  0  0  0  0  0  0  0  0  0  0  0  0
    7.2987    2.4468   -4.5972 C   0  0  0  0  0  0  0  0  0  0  0  0
    7.7304    3.6795   -5.0994 C   0  0  0  0  0  0  0  0  0  0  0  0
    8.4041    3.7478   -6.3124 C   0  0  0  0  0  0  0  0  0  0  0  0
    8.8158    2.5808   -6.9469 C   0  0  0  0  0  0  0  0  0  0  0  0
    8.5407    1.3492   -6.3817 C   0  0  0  0  0  0  0  0  0  0  0  0
    7.7078    1.2916   -5.2782 C   0  0  0  0  0  0  0  0  0  0  0  0
    3.6165    1.3482    1.0674 H   0  0  0  0  0  0  0  0  0  0  0  0
    2.6706    2.0190   -0.3114 H   0  0  0  0  0  0  0  0  0  0  0  0
    2.8043   -2.1597    0.0206 H   0  0  0  0  0  0  0  0  0  0  0  0
    4.1306    3.5450   -1.0483 H   0  0  0  0  0  0  0  0  0  0  0  0
    7.5161    4.6116   -4.5827 H   0  0  0  0  0  0  0  0  0  0  0  0
    8.6032    4.7180   -6.7536 H   0  0  0  0  0  0  0  0  0  0  0  0
    9.3460    2.6272   -7.8892 H   0  0  0  0  0  0  0  0  0  0  0  0
    8.9177    0.4229   -6.8036 H   0  0  0  0  0  0  0  0  0  0  0  0
    7.3793    0.2977   -5.0095 H   0  0  0  0  0  0  0  0  0  0  0  0
  1  2  2  0  0  0  0
  2  3  1  0  0  0  0
  2  8  1  0  0  0  0
  3  4  1  0  0  0  0
  3 21  1  0  0  0  0
  3 22  1  0  0  0  0
  4  5  1  0  0  0  0
  4  9  1  0  0  0  0
  5  6  2  0  0  0  0
  5  7  2  0  0  0  0
  5  8  1  0  0  0  0
  8 23  1  0  0  0  0
  9 10  2  0  0  0  0
  9 13  1  0  0  0  0
 10 11  1  0  0  0  0
 10 24  1  0  0  0  0
 11 12  1  0  0  0  0
 12 13  2  0  0  0  0
 12 15  1  0  0  0  0
 13 14  1  0  0  0  0
 15 16  2  0  0  0  0
 15 20  1  0  0  0  0
 16 17  1  0  0  0  0
 16 25  1  0  0  0  0
 17 18  2  0  0  0  0
 17 26  1  0  0  0  0
 18 19  1  0  0  0  0
 18 27  1  0  0  0  0
 19 20  2  0  0  0  0
 19 28  1  0  0  0  0
 20 29  1  0  0  0  0
M  END
$$$$
