527
 OpenBabel04121316063D

 62 65  0  0  0  0  0  0  0  0999 V2000
    1.1054    0.0819    0.0499 O   0  0  0  0  0  0  0  0  0  0  0  0
    2.4517    0.3092    0.0492 C   0  0  0  0  0  0  0  0  0  0  0  0
    2.8944    1.4442    0.0316 O   0  0  0  0  0  0  0  0  0  0  0  0
    3.2998   -0.9690    0.1428 C   0  0  0  0  0  0  0  0  0  0  0  0
    4.7169   -0.9611    0.1848 O   0  0  0  0  0  0  0  0  0  0  0  0
    5.3836   -2.1768    0.2921 C   0  0  0  0  0  0  0  0  0  0  0  0
    6.8763   -2.2109    0.4893 C   0  0  0  0  0  0  0  0  0  0  0  0
    7.8737   -0.5886    0.5798 Br  0  0  0  0  0  0  0  0  0  0  0  0
    7.4579   -3.4737    0.6176 C   0  0  0  0  0  0  0  0  0  0  0  0
    6.1828   -4.5845    0.3752 S   0  0  0  0  0  0  0  0  0  0  0  0
    4.8856   -3.4823    0.2255 C   0  0  0  0  0  0  0  0  0  0  0  0
    3.6499   -4.2798    0.0353 C   0  0  0  0  0  0  0  0  0  0  0  0
    3.5499   -5.4779    0.0811 O   0  0  0  0  0  0  0  0  0  0  0  0
    2.5186   -3.5570   -0.1727 O   0  0  0  0  0  0  0  0  0  0  0  0
    8.8496   -4.1038    0.8189 C   0  0  0  0  0  0  0  0  0  0  0  0
   10.0718   -3.5142    0.6479 C   0  0  0  0  0  0  0  0  0  0  0  0
   11.2614   -4.3009    0.7063 C   0  0  0  0  0  0  0  0  0  0  0  0
   11.2790   -5.7194    0.7301 C   0  0  0  0  0  0  0  0  0  0  0  0
   10.1022   -6.3959    0.9312 C   0  0  0  0  0  0  0  0  0  0  0  0
    8.9840   -5.4727    1.1837 C   0  0  0  0  0  0  0  0  0  0  0  0
   10.0631   -7.8547    0.7424 N   0  0  0  0  0  0  0  0  0  0  0  0
    8.7801   -8.6559    0.4895 C   0  0  0  0  0  0  0  0  0  0  0  0
    7.8452   -7.5750    0.1442 C   0  0  0  0  0  0  0  0  0  0  0  0
    8.3774   -6.9516   -1.1942 C   0  0  0  0  0  0  0  0  0  0  0  0
    7.9137   -7.8927   -2.2376 N   0  0  0  0  0  0  0  0  0  0  0  0
    8.6309   -9.1879   -2.0334 C   0  0  0  0  0  0  0  0  0  0  0  0
    8.4794   -9.7003   -0.6073 C   0  0  0  0  0  0  0  0  0  0  0  0
    6.2108   -7.7843   -2.2801 S   0  0  0  0  0  0  0  0  0  0  0  0
    5.6326   -8.4252   -1.1171 O   0  0  0  0  0  0  0  0  0  0  0  0
    5.9414   -6.3915   -2.5901 O   0  0  0  0  0  0  0  0  0  0  0  0
    5.7482   -8.8268   -3.6078 C   0  0  0  0  0  0  0  0  0  0  0  0
    4.2458   -8.8816   -3.5826 C   0  0  0  0  0  0  0  0  0  0  0  0
    3.5892  -10.1103   -3.4981 C   0  0  0  0  0  0  0  0  0  0  0  0
    2.2085  -10.1555   -3.6576 C   0  0  0  0  0  0  0  0  0  0  0  0
    1.4691   -8.9742   -3.7244 C   0  0  0  0  0  0  0  0  0  0  0  0
    2.1021   -7.7460   -3.6095 C   0  0  0  0  0  0  0  0  0  0  0  0
    3.4838   -7.7011   -3.6178 C   0  0  0  0  0  0  0  0  0  0  0  0
    0.7740   -0.6666   -0.4862 H   0  0  0  0  0  0  0  0  0  0  0  0
    3.0008   -1.5188   -0.7511 H   0  0  0  0  0  0  0  0  0  0  0  0
    2.9678   -1.3890    1.1005 H   0  0  0  0  0  0  0  0  0  0  0  0
    2.4044   -3.0053    0.6075 H   0  0  0  0  0  0  0  0  0  0  0  0
   10.1472   -2.4466    0.5018 H   0  0  0  0  0  0  0  0  0  0  0  0
   12.2123   -3.7801    0.7201 H   0  0  0  0  0  0  0  0  0  0  0  0
   12.2084   -6.2617    0.5927 H   0  0  0  0  0  0  0  0  0  0  0  0
    8.0518   -5.7697    1.6441 H   0  0  0  0  0  0  0  0  0  0  0  0
   10.9265   -8.2934    0.4277 H   0  0  0  0  0  0  0  0  0  0  0  0
    8.5402   -9.1492    1.4392 H   0  0  0  0  0  0  0  0  0  0  0  0
    7.8633   -7.2360    1.1506 H   0  0  0  0  0  0  0  0  0  0  0  0
    6.7777   -7.6103    0.2131 H   0  0  0  0  0  0  0  0  0  0  0  0
    9.4710   -6.8949   -1.3514 H   0  0  0  0  0  0  0  0  0  0  0  0
    8.0536   -5.9296   -1.4007 H   0  0  0  0  0  0  0  0  0  0  0  0
    9.7050   -9.0406   -2.2079 H   0  0  0  0  0  0  0  0  0  0  0  0
    8.3007   -9.9136   -2.7809 H   0  0  0  0  0  0  0  0  0  0  0  0
    8.9658  -10.6657   -0.4555 H   0  0  0  0  0  0  0  0  0  0  0  0
    7.4046   -9.9486   -0.5014 H   0  0  0  0  0  0  0  0  0  0  0  0
    6.1717   -9.8087   -3.3747 H   0  0  0  0  0  0  0  0  0  0  0  0
    6.1461   -8.4283   -4.5360 H   0  0  0  0  0  0  0  0  0  0  0  0
    4.1412  -11.0312   -3.3229 H   0  0  0  0  0  0  0  0  0  0  0  0
    1.7053  -11.1140   -3.7285 H   0  0  0  0  0  0  0  0  0  0  0  0
    0.3941   -9.0082   -3.8559 H   0  0  0  0  0  0  0  0  0  0  0  0
    1.5402   -6.8203   -3.5388 H   0  0  0  0  0  0  0  0  0  0  0  0
    3.9523   -6.7193   -3.6182 H   0  0  0  0  0  0  0  0  0  0  0  0
  1  2  1  0  0  0  0
  1 38  1  0  0  0  0
  2  3  2  0  0  0  0
  2  4  1  0  0  0  0
  4  5  1  0  0  0  0
  4 39  1  0  0  0  0
  4 40  1  0  0  0  0
  5  6  1  0  0  0  0
  6  7  1  0  0  0  0
  6 11  2  0  0  0  0
  7  8  1  0  0  0  0
  7  9  2  0  0  0  0
  9 10  1  0  0  0  0
  9 15  1  0  0  0  0
 10 11  1  0  0  0  0
 11 12  1  0  0  0  0
 12 13  2  0  0  0  0
 12 14  1  0  0  0  0
 14 41  1  0  0  0  0
 15 16  2  0  0  0  0
 15 20  1  0  0  0  0
 16 17  1  0  0  0  0
 16 42  1  0  0  0  0
 17 18  2  0  0  0  0
 17 43  1  0  0  0  0
 18 19  1  0  0  0  0
 18 44  1  0  0  0  0
 19 20  2  0  0  0  0
 19 21  1  0  0  0  0
 20 45  1  0  0  0  0
 21 22  1  0  0  0  0
 21 46  1  0  0  0  0
 22 23  1  0  0  0  0
 22 27  1  0  0  0  0
 22 47  1  0  0  0  0
 23 24  1  0  0  0  0
 23 48  1  0  0  0  0
 23 49  1  0  0  0  0
 24 25  1  0  0  0  0
 24 50  1  0  0  0  0
 24 51  1  0  0  0  0
 25 26  1  0  0  0  0
 25 28  1  0  0  0  0
 26 27  1  0  0  0  0
 26 52  1  0  0  0  0
 26 53  1  0  0  0  0
 27 54  1  0  0  0  0
 27 55  1  0  0  0  0
 28 29  2  0  0  0  0
 28 30  2  0  0  0  0
 28 31  1  0  0  0  0
 31 32  1  0  0  0  0
 31 56  1  0  0  0  0
 31 57  1  0  0  0  0
 32 33  2  0  0  0  0
 32 37  1  0  0  0  0
 33 34  1  0  0  0  0
 33 58  1  0  0  0  0
 34 35  2  0  0  0  0
 34 59  1  0  0  0  0
 35 36  1  0  0  0  0
 35 60  1  0  0  0  0
 36 37  2  0  0  0  0
 36 61  1  0  0  0  0
 37 62  1  0  0  0  0
M  END
$$$$
