528
 OpenBabel04121316063D

 66 67  0  0  1  0  0  0  0  0999 V2000
    6.8307   -5.1920    0.6449 N   0  0  0  0  0  0  0  0  0  0  0  0
    7.6871   -4.5551   -0.2703 C   0  0  0  0  0  0  0  0  0  0  0  0
    6.7245   -4.0302   -1.3844 C   0  0  0  0  0  0  0  0  0  0  0  0
    6.1108   -2.3741   -1.0773 C   0  0  0  0  0  0  0  0  0  0  0  0
    5.8860   -1.2151   -2.2571 C   0  0  0  0  0  0  0  0  0  0  0  0
    5.9824   -1.4919   -3.8393 C   0  0  0  0  0  0  0  0  0  0  0  0
    6.5627   -3.0418   -4.4751 C   0  0  0  0  0  0  0  0  0  0  0  0
    6.9646   -4.5175   -3.1748 C   0  0  0  0  0  0  0  0  0  0  0  0
    5.1255   -3.6017   -5.6923 C   0  0  1  0  0  0  0  0  0  0  0  0
    4.1844   -3.2399   -5.1820 H   0  0  0  0  0  0  0  0  0  0  0  0
    5.3567   -2.7010   -6.9011 C   0  0  0  0  0  0  0  0  0  0  0  0
    5.9419   -3.0036   -7.9240 O   0  0  0  0  0  0  0  0  0  0  0  0
    5.0128   -1.4250   -6.6279 O   0  0  0  0  0  0  0  0  0  0  0  0
    5.3484   -5.6743   -5.4025 C   0  0  0  0  0  0  0  0  0  0  0  0
    5.6549   -6.3376   -3.6759 P   0  0  2  0  0  0  0  0  0  0  0  0
    4.8277   -5.1378   -3.1650 O   0  0  0  0  0  0  0  0  0  0  0  0
    5.5699   -4.7750   -4.4223 C   0  0  2  0  0  0  0  0  0  0  0  0
    4.1196   -4.7572   -4.6608 H   0  0  0  0  0  0  0  0  0  0  0  0
    6.9230   -4.6083   -5.9874 C   0  0  0  0  0  0  0  0  0  0  0  0
    8.3270   -4.9131   -5.6661 C   0  0  0  0  0  0  0  0  0  0  0  0
    6.2928   -5.5512   -7.2985 C   0  0  0  0  0  0  0  0  0  0  0  0
    5.6833   -3.3059   -2.9490 N   0  0  0  0  0  0  0  0  0  0  0  0
    8.1745   -3.0297   -2.8492 S   0  0  0  0  0  0  0  0  0  0  0  0
    8.8443   -4.3835   -2.4550 O   0  0  0  0  0  0  0  0  0  0  0  0
    8.8911   -2.5025   -3.9779 O   0  0  0  0  0  0  0  0  0  0  0  0
    8.4687   -2.1030   -1.5448 C   0  0  0  0  0  0  0  0  0  0  0  0
    9.8215   -2.5217   -1.2254 C   0  0  0  0  0  0  0  0  0  0  0  0
    9.9330   -1.6355   -0.0629 C   0  0  0  0  0  0  0  0  0  0  0  0
   11.2880   -1.8927    0.3578 C   0  0  0  0  0  0  0  0  0  0  0  0
   12.0536   -0.7693    0.5274 C   0  0  0  0  0  0  0  0  0  0  0  0
   13.4047   -0.9497    0.5990 C   0  0  0  0  0  0  0  0  0  0  0  0
   13.9330   -2.2379    0.6951 C   0  0  0  0  0  0  0  0  0  0  0  0
   13.1169   -3.3594    0.7148 C   0  0  0  0  0  0  0  0  0  0  0  0
   11.7900   -3.1972    0.4565 C   0  0  0  0  0  0  0  0  0  0  0  0
    6.5816   -7.6817   -4.2482 O   0  0  0  0  0  0  0  0  0  0  0  0
    7.4804   -5.7539    1.1765 H   0  0  0  0  0  0  0  0  0  0  0  0
    6.2968   -5.7639    0.0005 H   0  0  0  0  0  0  0  0  0  0  0  0
    8.4880   -5.2376   -0.5879 H   0  0  0  0  0  0  0  0  0  0  0  0
    8.2778   -3.8273    0.3040 H   0  0  0  0  0  0  0  0  0  0  0  0
    6.3621   -1.7995   -0.1585 H   0  0  0  0  0  0  0  0  0  0  0  0
    5.7774   -0.1616   -1.9816 H   0  0  0  0  0  0  0  0  0  0  0  0
    4.8655   -1.3863   -4.0403 H   0  0  0  0  0  0  0  0  0  0  0  0
    7.5304   -5.3571   -3.5358 H   0  0  0  0  0  0  0  0  0  0  0  0
    4.6326   -1.3686   -5.7369 H   0  0  0  0  0  0  0  0  0  0  0  0
    6.4785   -6.1424   -5.3069 H   0  0  0  0  0  0  0  0  0  0  0  0
    4.7548   -6.4369   -5.8541 H   0  0  0  0  0  0  0  0  0  0  0  0
    7.1175   -3.5700   -6.3072 H   0  0  0  0  0  0  0  0  0  0  0  0
    8.5776   -5.7778   -5.0706 H   0  0  0  0  0  0  0  0  0  0  0  0
    8.4413   -4.1157   -4.9951 H   0  0  0  0  0  0  0  0  0  0  0  0
    8.9694   -4.6237   -6.4783 H   0  0  0  0  0  0  0  0  0  0  0  0
    6.3541   -6.6359   -7.0421 H   0  0  0  0  0  0  0  0  0  0  0  0
    6.8379   -5.3946   -8.1890 H   0  0  0  0  0  0  0  0  0  0  0  0
    5.1785   -5.3525   -7.4172 H   0  0  0  0  0  0  0  0  0  0  0  0
    5.1049   -3.8770   -2.2691 H   0  0  0  0  0  0  0  0  0  0  0  0
    7.9905   -2.3241   -0.6234 H   0  0  0  0  0  0  0  0  0  0  0  0
    8.2499   -1.1653   -1.9951 H   0  0  0  0  0  0  0  0  0  0  0  0
   10.4762   -2.4374   -2.0962 H   0  0  0  0  0  0  0  0  0  0  0  0
    9.8937   -3.5929   -0.9597 H   0  0  0  0  0  0  0  0  0  0  0  0
    9.2152   -1.8399    0.7458 H   0  0  0  0  0  0  0  0  0  0  0  0
    9.7168   -0.6325   -0.4598 H   0  0  0  0  0  0  0  0  0  0  0  0
   11.5800    0.2072    0.5354 H   0  0  0  0  0  0  0  0  0  0  0  0
   14.0453   -0.0829    0.5989 H   0  0  0  0  0  0  0  0  0  0  0  0
   15.0009   -2.3618    0.7781 H   0  0  0  0  0  0  0  0  0  0  0  0
   13.4921   -4.3526    0.9088 H   0  0  0  0  0  0  0  0  0  0  0  0
   11.1828   -4.0875    0.2878 H   0  0  0  0  0  0  0  0  0  0  0  0
    6.5364   -8.4454   -3.6369 H   0  0  0  0  0  0  0  0  0  0  0  0
  1  2  1  0  0  0  0
  1 36  1  0  0  0  0
  1 37  1  0  0  0  0
  2  3  1  0  0  0  0
  2 38  1  0  0  0  0
  2 39  1  0  0  0  0
  3  4  2  0  0  0  0
  3  8  1  0  0  0  0
  4  5  1  0  0  0  0
  4 40  1  0  0  0  0
  5  6  2  0  0  0  0
  5 41  1  0  0  0  0
  6  7  1  0  0  0  0
  6 42  1  0  0  0  0
  7  8  2  0  0  0  0
  7  9  1  0  0  0  0
  8 43  1  0  0  0  0
  9 10  1  1  0  0  0
  9 11  1  0  0  0  0
  9 14  1  0  0  0  0
 11 12  2  0  0  0  0
 11 13  1  0  0  0  0
 13 44  1  0  0  0  0
 14 45  1  0  0  0  0
 14 46  1  0  0  0  0
 15 35  1  1  0  0  0
 15 16  2  0  0  0  0
 15 14  1  0  0  0  0
 17 19  1  0  0  0  0
 17 22  1  0  0  0  0
 17 18  1  6  0  0  0
 17 15  1  0  0  0  0
 19 20  1  0  0  0  0
 19 21  1  0  0  0  0
 19 47  1  0  0  0  0
 20 48  1  0  0  0  0
 20 49  1  0  0  0  0
 20 50  1  0  0  0  0
 21 51  1  0  0  0  0
 21 52  1  0  0  0  0
 21 53  1  0  0  0  0
 22 23  1  0  0  0  0
 22 54  1  0  0  0  0
 23 24  2  0  0  0  0
 23 25  2  0  0  0  0
 23 26  1  0  0  0  0
 26 27  1  0  0  0  0
 26 55  1  0  0  0  0
 26 56  1  0  0  0  0
 27 28  1  0  0  0  0
 27 57  1  0  0  0  0
 27 58  1  0  0  0  0
 28 29  1  0  0  0  0
 28 59  1  0  0  0  0
 28 60  1  0  0  0  0
 29 30  2  0  0  0  0
 29 34  1  0  0  0  0
 30 31  1  0  0  0  0
 30 61  1  0  0  0  0
 31 32  2  0  0  0  0
 31 62  1  0  0  0  0
 32 33  1  0  0  0  0
 32 63  1  0  0  0  0
 33 34  2  0  0  0  0
 33 64  1  0  0  0  0
 34 65  1  0  0  0  0
 35 66  1  0  0  0  0
M  END
$$$$
