52X
 OpenBabel04121316063D

 37 38  0  0  0  0  0  0  0  0999 V2000
    1.0078   -0.0316   -0.0815 C   0  0  0  0  0  0  0  0  0  0  0  0
    2.4411   -0.0306   -0.0717 O   0  0  0  0  0  0  0  0  0  0  0  0
    2.9748   -0.4259   -1.2594 C   0  0  0  0  0  0  0  0  0  0  0  0
    2.2990   -0.6924   -2.2517 O   0  0  0  0  0  0  0  0  0  0  0  0
    4.3481   -0.4819   -1.1901 N   0  0  0  0  0  0  0  0  0  0  0  0
    5.0859   -0.7744   -2.3502 C   0  0  0  0  0  0  0  0  0  0  0  0
    5.1521   -2.0833   -2.7981 C   0  0  0  0  0  0  0  0  0  0  0  0
    5.8188   -2.4088   -3.9844 C   0  0  0  0  0  0  0  0  0  0  0  0
    6.3973   -1.3706   -4.7269 C   0  0  0  0  0  0  0  0  0  0  0  0
    6.3533   -0.0386   -4.3086 C   0  0  0  0  0  0  0  0  0  0  0  0
    5.6986    0.2420   -3.0758 C   0  0  0  0  0  0  0  0  0  0  0  0
    7.0204    0.7504   -5.3259 C   0  0  0  0  0  0  0  0  0  0  0  0
    7.2239    2.2372   -5.3556 C   0  0  0  0  0  0  0  0  0  0  0  0
    6.6202    2.9325   -4.1565 C   0  0  0  0  0  0  0  0  0  0  0  0
    6.7891    4.3512   -4.1170 N   0  0  0  0  0  0  0  0  0  0  0  0
    6.2603    5.0308   -3.0443 C   0  0  0  0  0  0  0  0  0  0  0  0
    5.6612    4.4857   -2.1216 O   0  0  0  0  0  0  0  0  0  0  0  0
    6.4805    6.5086   -3.0894 C   0  0  0  0  0  0  0  0  0  0  0  0
    7.4477   -0.1428   -6.2882 C   0  0  0  0  0  0  0  0  0  0  0  0
    7.0722   -1.4024   -5.9264 N   0  0  0  0  0  0  0  0  0  0  0  0
    7.2604   -2.2342   -6.4668 H   0  0  0  0  0  0  0  0  0  0  0  0
    8.4854    0.2958   -8.0005 I   0  0  0  0  0  0  0  0  0  0  0  0
    0.6466    0.2456    0.9127 H   0  0  0  0  0  0  0  0  0  0  0  0
    0.6238   -1.0316   -0.3156 H   0  0  0  0  0  0  0  0  0  0  0  0
    0.6273    0.6997   -0.8029 H   0  0  0  0  0  0  0  0  0  0  0  0
    4.7739    0.0578   -0.4468 H   0  0  0  0  0  0  0  0  0  0  0  0
    4.6831   -2.8652   -2.2085 H   0  0  0  0  0  0  0  0  0  0  0  0
    5.8588   -3.4392   -4.3176 H   0  0  0  0  0  0  0  0  0  0  0  0
    5.5781    1.2490   -2.6963 H   0  0  0  0  0  0  0  0  0  0  0  0
    6.7784    2.6509   -6.2692 H   0  0  0  0  0  0  0  0  0  0  0  0
    8.2983    2.4552   -5.3922 H   0  0  0  0  0  0  0  0  0  0  0  0
    7.0845    2.5487   -3.2399 H   0  0  0  0  0  0  0  0  0  0  0  0
    5.5384    2.7518   -4.1322 H   0  0  0  0  0  0  0  0  0  0  0  0
    7.2757    4.8261   -4.8640 H   0  0  0  0  0  0  0  0  0  0  0  0
    7.0359    6.8027   -3.9833 H   0  0  0  0  0  0  0  0  0  0  0  0
    7.0509    6.8006   -2.2050 H   0  0  0  0  0  0  0  0  0  0  0  0
    5.5076    7.0047   -3.0958 H   0  0  0  0  0  0  0  0  0  0  0  0
  1  2  1  0  0  0  0
  1 23  1  0  0  0  0
  1 24  1  0  0  0  0
  1 25  1  0  0  0  0
  2  3  1  0  0  0  0
  3  4  2  0  0  0  0
  3  5  1  0  0  0  0
  5  6  1  0  0  0  0
  5 26  1  0  0  0  0
  6  7  2  0  0  0  0
  6 11  1  0  0  0  0
  7  8  1  0  0  0  0
  7 27  1  0  0  0  0
  8  9  2  0  0  0  0
  8 28  1  0  0  0  0
  9 10  1  0  0  0  0
  9 20  1  0  0  0  0
 10 11  2  0  0  0  0
 10 12  1  0  0  0  0
 11 29  1  0  0  0  0
 12 13  1  0  0  0  0
 12 19  2  0  0  0  0
 13 14  1  0  0  0  0
 13 30  1  0  0  0  0
 13 31  1  0  0  0  0
 14 15  1  0  0  0  0
 14 32  1  0  0  0  0
 14 33  1  0  0  0  0
 15 16  1  0  0  0  0
 15 34  1  0  0  0  0
 16 17  2  0  0  0  0
 16 18  1  0  0  0  0
 18 35  1  0  0  0  0
 18 36  1  0  0  0  0
 18 37  1  0  0  0  0
 19 20  1  0  0  0  0
 19 22  1  0  0  0  0
 20 21  1  0  0  0  0
M  END
$$$$
