538
 OpenBabel04121316063D

 71 75  0  0  1  0  0  0  0  0999 V2000
    1.0035   -0.0192   -0.0123 C   0  0  0  0  0  0  0  0  0  0  0  0
    2.5262   -0.0537   -0.0376 C   0  0  0  0  0  0  0  0  0  0  0  0
    3.0290   -1.0390   -1.1041 C   0  0  1  0  0  0  0  0  0  0  0  0
    2.6827   -2.0462   -0.8350 H   0  0  0  0  0  0  0  0  0  0  0  0
    2.5352   -0.6747   -2.4947 C   0  0  0  0  0  0  0  0  0  0  0  0
    2.1478   -1.6882   -3.3831 C   0  0  0  0  0  0  0  0  0  0  0  0
    1.9673   -1.3997   -4.7314 C   0  0  0  0  0  0  0  0  0  0  0  0
    2.0088   -0.0786   -5.1691 C   0  0  0  0  0  0  0  0  0  0  0  0
    2.2313    0.9524   -4.2624 C   0  0  0  0  0  0  0  0  0  0  0  0
    2.5663    0.6504   -2.9499 C   0  0  0  0  0  0  0  0  0  0  0  0
    4.4769   -1.1015   -1.1202 N   0  0  0  0  0  0  0  0  0  0  0  0
    5.1237   -2.0005   -1.9280 C   0  0  0  0  0  0  0  0  0  0  0  0
    4.6232   -2.8786   -2.6286 O   0  0  0  0  0  0  0  0  0  0  0  0
    6.5644   -1.9001   -1.9120 C   0  0  0  0  0  0  0  0  0  0  0  0
    7.1895   -0.9876   -2.7357 C   0  0  0  0  0  0  0  0  0  0  0  0
    8.5710   -0.9268   -2.7176 C   0  0  0  0  0  0  0  0  0  0  0  0
    9.3136   -1.8313   -1.9277 C   0  0  0  0  0  0  0  0  0  0  0  0
    8.6572   -2.7512   -1.1054 C   0  0  0  0  0  0  0  0  0  0  0  0
    7.2581   -2.7802   -1.0883 C   0  0  0  0  0  0  0  0  0  0  0  0
    9.6338   -3.5038   -0.4100 C   0  0  0  0  0  0  0  0  0  0  0  0
    9.3802   -4.5694    0.5874 C   0  0  0  0  0  0  0  0  0  0  0  0
   10.8702   -3.0571   -0.8234 C   0  0  0  0  0  0  0  0  0  0  0  0
   10.6711   -2.0585   -1.7625 N   0  0  0  0  0  0  0  0  0  0  0  0
   11.7990   -1.4109   -2.4245 C   0  0  0  0  0  0  0  0  0  0  0  0
   11.4536   -0.3981   -3.4650 C   0  0  0  0  0  0  0  0  0  0  0  0
   10.9450   -0.8059   -4.7121 C   0  0  0  0  0  0  0  0  0  0  0  0
   10.7005    0.1329   -5.6955 C   0  0  0  0  0  0  0  0  0  0  0  0
   10.9339    1.4826   -5.4228 C   0  0  0  0  0  0  0  0  0  0  0  0
   11.3166    1.8988   -4.1351 C   0  0  0  0  0  0  0  0  0  0  0  0
   11.5816    0.9603   -3.1587 C   0  0  0  0  0  0  0  0  0  0  0  0
   10.7623    2.4641   -6.4704 C   0  0  0  0  0  0  0  0  0  0  0  0
   11.7614    2.4616   -7.4725 C   0  0  0  0  0  0  0  0  0  0  0  0
   11.8661    3.5039   -8.3781 C   0  0  0  0  0  0  0  0  0  0  0  0
   10.8882    4.4859   -8.3853 C   0  0  0  0  0  0  0  0  0  0  0  0
    9.8059    4.4095   -7.5000 C   0  0  0  0  0  0  0  0  0  0  0  0
    9.7477    3.4352   -6.4864 C   0  0  0  0  0  0  0  0  0  0  0  0
    8.6226    3.5828   -5.4950 C   0  0  0  0  0  0  0  0  0  0  0  0
    7.8467    4.5347   -5.5752 O   0  0  0  0  0  0  0  0  0  0  0  0
    8.4624    2.6951   -4.4971 O   0  0  0  0  0  0  0  0  0  0  0  0
   12.2116   -3.5241   -0.3760 C   0  0  0  0  0  0  0  0  0  0  0  0
    0.6477    0.7067    0.7211 H   0  0  0  0  0  0  0  0  0  0  0  0
    0.6072   -1.0074    0.2387 H   0  0  0  0  0  0  0  0  0  0  0  0
    0.5852    0.2692   -0.9825 H   0  0  0  0  0  0  0  0  0  0  0  0
    2.9067   -0.3392    0.9503 H   0  0  0  0  0  0  0  0  0  0  0  0
    2.9154    0.9568   -0.2156 H   0  0  0  0  0  0  0  0  0  0  0  0
    2.0879   -2.7225   -3.0461 H   0  0  0  0  0  0  0  0  0  0  0  0
    1.8240   -2.2108   -5.4389 H   0  0  0  0  0  0  0  0  0  0  0  0
    1.8791    0.1484   -6.2215 H   0  0  0  0  0  0  0  0  0  0  0  0
    2.1861    1.9896   -4.5773 H   0  0  0  0  0  0  0  0  0  0  0  0
    2.8639    1.4599   -2.2907 H   0  0  0  0  0  0  0  0  0  0  0  0
    5.0191   -0.4515   -0.5624 H   0  0  0  0  0  0  0  0  0  0  0  0
    6.6225   -0.3384   -3.3984 H   0  0  0  0  0  0  0  0  0  0  0  0
    9.0194   -0.1767   -3.3452 H   0  0  0  0  0  0  0  0  0  0  0  0
    6.7166   -3.4878   -0.4706 H   0  0  0  0  0  0  0  0  0  0  0  0
    8.3113   -4.7368    0.7380 H   0  0  0  0  0  0  0  0  0  0  0  0
    9.8195   -4.2848    1.5481 H   0  0  0  0  0  0  0  0  0  0  0  0
    9.8304   -5.5080    0.2519 H   0  0  0  0  0  0  0  0  0  0  0  0
   12.4068   -2.1912   -2.8969 H   0  0  0  0  0  0  0  0  0  0  0  0
   12.4030   -0.9448   -1.6370 H   0  0  0  0  0  0  0  0  0  0  0  0
   10.6447   -1.8404   -4.8792 H   0  0  0  0  0  0  0  0  0  0  0  0
   10.3068   -0.1793   -6.6616 H   0  0  0  0  0  0  0  0  0  0  0  0
   11.3585    2.9580   -3.8794 H   0  0  0  0  0  0  0  0  0  0  0  0
   11.8578    1.2869   -2.1578 H   0  0  0  0  0  0  0  0  0  0  0  0
   12.4998    1.6586   -7.5057 H   0  0  0  0  0  0  0  0  0  0  0  0
   12.7119    3.5491   -9.0588 H   0  0  0  0  0  0  0  0  0  0  0  0
   10.9645    5.3168   -9.0809 H   0  0  0  0  0  0  0  0  0  0  0  0
    9.0108    5.1484   -7.5876 H   0  0  0  0  0  0  0  0  0  0  0  0
    9.0168    1.8989   -4.4817 H   0  0  0  0  0  0  0  0  0  0  0  0
   12.1113   -4.3153    0.3739 H   0  0  0  0  0  0  0  0  0  0  0  0
   12.7730   -2.7060    0.0842 H   0  0  0  0  0  0  0  0  0  0  0  0
   12.7829   -3.9353   -1.2127 H   0  0  0  0  0  0  0  0  0  0  0  0
  1  2  1  0  0  0  0
  1 41  1  0  0  0  0
  1 42  1  0  0  0  0
  1 43  1  0  0  0  0
  2  3  1  0  0  0  0
  2 44  1  0  0  0  0
  2 45  1  0  0  0  0
  3  4  1  1  0  0  0
  3  5  1  0  0  0  0
  3 11  1  0  0  0  0
  5  6  2  0  0  0  0
  5 10  1  0  0  0  0
  6  7  1  0  0  0  0
  6 46  1  0  0  0  0
  7  8  2  0  0  0  0
  7 47  1  0  0  0  0
  8  9  1  0  0  0  0
  8 48  1  0  0  0  0
  9 10  2  0  0  0  0
  9 49  1  0  0  0  0
 10 50  1  0  0  0  0
 11 12  1  0  0  0  0
 11 51  1  0  0  0  0
 12 13  2  0  0  0  0
 12 14  1  0  0  0  0
 14 15  2  0  0  0  0
 14 19  1  0  0  0  0
 15 16  1  0  0  0  0
 15 52  1  0  0  0  0
 16 17  2  0  0  0  0
 16 53  1  0  0  0  0
 17 18  1  0  0  0  0
 17 23  1  0  0  0  0
 18 19  2  0  0  0  0
 18 20  1  0  0  0  0
 19 54  1  0  0  0  0
 20 21  1  0  0  0  0
 20 22  2  0  0  0  0
 21 55  1  0  0  0  0
 21 56  1  0  0  0  0
 21 57  1  0  0  0  0
 22 23  1  0  0  0  0
 22 40  1  0  0  0  0
 23 24  1  0  0  0  0
 24 25  1  0  0  0  0
 24 58  1  0  0  0  0
 24 59  1  0  0  0  0
 25 26  2  0  0  0  0
 25 30  1  0  0  0  0
 26 27  1  0  0  0  0
 26 60  1  0  0  0  0
 27 28  2  0  0  0  0
 27 61  1  0  0  0  0
 28 29  1  0  0  0  0
 28 31  1  0  0  0  0
 29 30  2  0  0  0  0
 29 62  1  0  0  0  0
 30 63  1  0  0  0  0
 31 32  2  0  0  0  0
 31 36  1  0  0  0  0
 32 33  1  0  0  0  0
 32 64  1  0  0  0  0
 33 34  2  0  0  0  0
 33 65  1  0  0  0  0
 34 35  1  0  0  0  0
 34 66  1  0  0  0  0
 35 36  2  0  0  0  0
 35 67  1  0  0  0  0
 36 37  1  0  0  0  0
 37 38  2  0  0  0  0
 37 39  1  0  0  0  0
 39 68  1  0  0  0  0
 40 69  1  0  0  0  0
 40 70  1  0  0  0  0
 40 71  1  0  0  0  0
M  END
$$$$
