53N
 OpenBabel04121316063D

 30 31  0  0  0  0  0  0  0  0999 V2000
    0.9159   -0.1764    0.1346 O   0  0  0  0  0  0  0  0  0  0  0  0
    2.2398   -0.1285   -0.0729 C   0  0  0  0  0  0  0  0  0  0  0  0
    2.7154   -0.4201   -1.1635 O   0  0  0  0  0  0  0  0  0  0  0  0
    2.9871    0.2478    1.1570 C   0  0  0  0  0  0  0  0  0  0  0  0
    4.4693    0.2454    0.8266 C   0  0  0  0  0  0  0  0  0  0  0  0
    5.2394    0.5639    2.0428 C   0  0  0  0  0  0  0  0  0  0  0  0
    5.4468    1.7574    2.6944 C   0  0  0  0  0  0  0  0  0  0  0  0
    6.1412    1.5594    3.9224 C   0  0  0  0  0  0  0  0  0  0  0  0
    6.4044    0.2232    4.1514 C   0  0  0  0  0  0  0  0  0  0  0  0
    5.9713   -0.7384    2.8134 S   0  0  0  0  0  0  0  0  0  0  0  0
    7.0273   -0.4528    5.2754 C   0  0  0  0  0  0  0  0  0  0  0  0
    7.9227    0.2268    6.0996 C   0  0  0  0  0  0  0  0  0  0  0  0
    8.5592   -0.4520    7.1330 C   0  0  0  0  0  0  0  0  0  0  0  0
    8.4140   -1.8372    7.2555 C   0  0  0  0  0  0  0  0  0  0  0  0
    7.5324   -2.5196    6.4159 C   0  0  0  0  0  0  0  0  0  0  0  0
    6.7737   -1.8161    5.4966 C   0  0  0  0  0  0  0  0  0  0  0  0
    7.4285   -3.9801    6.4454 N   0  3  0  0  0  0  0  0  0  0  0  0
    8.1445   -4.5873    7.2517 O   0  0  0  0  0  0  0  0  0  0  0  0
    6.6497   -4.5241    5.6473 O   0  5  0  0  0  0  0  0  0  0  0  0
    0.5646   -0.5506   -0.6994 H   0  0  0  0  0  0  0  0  0  0  0  0
    2.7609   -0.4890    1.9408 H   0  0  0  0  0  0  0  0  0  0  0  0
    2.6701    1.2352    1.5099 H   0  0  0  0  0  0  0  0  0  0  0  0
    4.7244    0.9521    0.0332 H   0  0  0  0  0  0  0  0  0  0  0  0
    4.7497   -0.7521    0.4540 H   0  0  0  0  0  0  0  0  0  0  0  0
    5.0887    2.7146    2.3365 H   0  0  0  0  0  0  0  0  0  0  0  0
    6.3940    2.3541    4.6137 H   0  0  0  0  0  0  0  0  0  0  0  0
    8.1424    1.2789    5.9286 H   0  0  0  0  0  0  0  0  0  0  0  0
    9.1910    0.1010    7.8215 H   0  0  0  0  0  0  0  0  0  0  0  0
    8.9938   -2.3685    8.0027 H   0  0  0  0  0  0  0  0  0  0  0  0
    6.0189   -2.3414    4.9126 H   0  0  0  0  0  0  0  0  0  0  0  0
  1  2  1  0  0  0  0
  1 20  1  0  0  0  0
  2  3  2  0  0  0  0
  2  4  1  0  0  0  0
  4  5  1  0  0  0  0
  4 21  1  0  0  0  0
  4 22  1  0  0  0  0
  5  6  1  0  0  0  0
  5 23  1  0  0  0  0
  5 24  1  0  0  0  0
  6  7  2  0  0  0  0
  6 10  1  0  0  0  0
  7  8  1  0  0  0  0
  7 25  1  0  0  0  0
  8  9  2  0  0  0  0
  8 26  1  0  0  0  0
  9 10  1  0  0  0  0
  9 11  1  0  0  0  0
 11 12  2  0  0  0  0
 11 16  1  0  0  0  0
 12 13  1  0  0  0  0
 12 27  1  0  0  0  0
 13 14  2  0  0  0  0
 13 28  1  0  0  0  0
 14 15  1  0  0  0  0
 14 29  1  0  0  0  0
 15 16  2  0  0  0  0
 15 17  1  0  0  0  0
 16 30  1  0  0  0  0
 17 18  2  0  0  0  0
 17 19  1  0  0  0  0
M  CHG  2  17   1  19  -1
M  END
$$$$
