53R
 OpenBabel04121316063D

 49 51  0  0  1  0  0  0  0  0999 V2000
    8.3010    1.7627   -0.5263 C   0  0  0  0  0  0  0  0  0  0  0  0
    7.0690    2.4806   -0.4875 O   0  0  0  0  0  0  0  0  0  0  0  0
    6.8205    2.9549    0.7684 C   0  0  0  0  0  0  0  0  0  0  0  0
    5.9713    2.2485    1.5997 C   0  0  0  0  0  0  0  0  0  0  0  0
    5.6404    2.7753    2.8454 C   0  0  0  0  0  0  0  0  0  0  0  0
    6.1712    4.0087    3.2461 C   0  0  0  0  0  0  0  0  0  0  0  0
    7.0157    4.7434    2.4221 C   0  0  0  0  0  0  0  0  0  0  0  0
    7.3147    4.1959    1.1586 C   0  0  0  0  0  0  0  0  0  0  0  0
    7.5597    6.0346    2.8713 C   0  0  0  0  0  0  0  0  0  0  0  0
    6.9600    6.8134    3.8824 C   0  0  0  0  0  0  0  0  0  0  0  0
    7.4234    8.0963    4.1658 C   0  0  0  0  0  0  0  0  0  0  0  0
    8.5798    8.5601    3.5514 C   0  0  0  0  0  0  0  0  0  0  0  0
    9.2774    7.7412    2.6740 C   0  0  0  0  0  0  0  0  0  0  0  0
    8.7365    6.5229    2.2924 C   0  0  0  0  0  0  0  0  0  0  0  0
    4.7003    2.0469    3.7640 C   0  0  2  0  0  0  0  0  0  0  0  0
    4.3334    1.1416    3.2688 H   0  0  0  0  0  0  0  0  0  0  0  0
    3.5633    2.9101    4.0666 C   0  0  0  0  0  0  0  0  0  0  0  0
    2.6668    3.6712    4.3185 C   0  0  0  0  0  0  0  0  0  0  0  0
    1.5784    4.5221    4.6333 C   0  0  0  0  0  0  0  0  0  0  0  0
    0.3488    3.9927    4.9732 C   0  0  0  0  0  0  0  0  0  0  0  0
    0.1237    2.5070    5.0232 C   0  0  0  0  0  0  0  0  0  0  0  0
   -0.7010    4.7797    5.2820 N   0  0  0  0  0  0  0  0  0  0  0  0
   -0.5010    6.1034    5.2397 C   0  0  0  0  0  0  0  0  0  0  0  0
    0.6560    6.7035    4.9109 N   0  0  0  0  0  0  0  0  0  0  0  0
    1.6940    5.9048    4.6039 C   0  0  0  0  0  0  0  0  0  0  0  0
    2.9319    6.4972    4.3629 N   0  0  0  0  0  0  0  0  0  0  0  0
   -1.5734    6.8826    5.5664 N   0  0  0  0  0  0  0  0  0  0  0  0
    5.4277    1.6649    5.0477 C   0  0  0  0  0  0  0  0  0  0  0  0
    8.4222    1.3857   -1.5460 H   0  0  0  0  0  0  0  0  0  0  0  0
    8.2866    0.9026    0.1527 H   0  0  0  0  0  0  0  0  0  0  0  0
    9.1528    2.4138   -0.3020 H   0  0  0  0  0  0  0  0  0  0  0  0
    5.5555    1.3026    1.2719 H   0  0  0  0  0  0  0  0  0  0  0  0
    5.9028    4.3885    4.2299 H   0  0  0  0  0  0  0  0  0  0  0  0
    7.9240    4.7378    0.4424 H   0  0  0  0  0  0  0  0  0  0  0  0
    6.1141    6.4551    4.4641 H   0  0  0  0  0  0  0  0  0  0  0  0
    6.8862    8.7250    4.8706 H   0  0  0  0  0  0  0  0  0  0  0  0
    8.9481    9.5563    3.7667 H   0  0  0  0  0  0  0  0  0  0  0  0
   10.2373    8.0395    2.2682 H   0  0  0  0  0  0  0  0  0  0  0  0
    9.2628    5.9464    1.5378 H   0  0  0  0  0  0  0  0  0  0  0  0
    1.0143    1.9273    4.7621 H   0  0  0  0  0  0  0  0  0  0  0  0
   -0.6555    2.2236    4.3114 H   0  0  0  0  0  0  0  0  0  0  0  0
   -0.1620    2.2064    6.0342 H   0  0  0  0  0  0  0  0  0  0  0  0
    2.9521    7.4985    4.2374 H   0  0  0  0  0  0  0  0  0  0  0  0
    3.6602    5.9383    3.9369 H   0  0  0  0  0  0  0  0  0  0  0  0
   -2.4306    6.4138    5.8050 H   0  0  0  0  0  0  0  0  0  0  0  0
   -1.4739    7.8807    5.5498 H   0  0  0  0  0  0  0  0  0  0  0  0
    4.7570    1.1263    5.7219 H   0  0  0  0  0  0  0  0  0  0  0  0
    5.7944    2.5449    5.5923 H   0  0  0  0  0  0  0  0  0  0  0  0
    6.2934    1.0338    4.8239 H   0  0  0  0  0  0  0  0  0  0  0  0
  1  2  1  0  0  0  0
  1 29  1  0  0  0  0
  1 30  1  0  0  0  0
  1 31  1  0  0  0  0
  2  3  1  0  0  0  0
  3  4  2  0  0  0  0
  3  8  1  0  0  0  0
  4  5  1  0  0  0  0
  4 32  1  0  0  0  0
  5  6  2  0  0  0  0
  6  7  1  0  0  0  0
  6 33  1  0  0  0  0
  7  8  2  0  0  0  0
  7  9  1  0  0  0  0
  8 34  1  0  0  0  0
  9 10  2  0  0  0  0
  9 14  1  0  0  0  0
 10 11  1  0  0  0  0
 10 35  1  0  0  0  0
 11 12  2  0  0  0  0
 11 36  1  0  0  0  0
 12 13  1  0  0  0  0
 12 37  1  0  0  0  0
 13 14  2  0  0  0  0
 13 38  1  0  0  0  0
 14 39  1  0  0  0  0
 15 17  1  0  0  0  0
 15 28  1  0  0  0  0
 15 16  1  6  0  0  0
 15  5  1  0  0  0  0
 17 18  3  0  0  0  0
 18 19  1  0  0  0  0
 19 20  2  0  0  0  0
 19 25  1  0  0  0  0
 20 21  1  0  0  0  0
 20 22  1  0  0  0  0
 21 40  1  0  0  0  0
 21 41  1  0  0  0  0
 21 42  1  0  0  0  0
 22 23  2  0  0  0  0
 23 24  1  0  0  0  0
 23 27  1  0  0  0  0
 24 25  2  0  0  0  0
 25 26  1  0  0  0  0
 26 43  1  0  0  0  0
 26 44  1  0  0  0  0
 27 45  1  0  0  0  0
 27 46  1  0  0  0  0
 28 47  1  0  0  0  0
 28 48  1  0  0  0  0
 28 49  1  0  0  0  0
M  END
$$$$
