53V
 OpenBabel04121316063D

 55 57  0  0  1  0  0  0  0  0999 V2000
    2.2279    3.6209   -4.6191 C   0  0  0  0  0  0  0  0  0  0  0  0
    2.0240    2.2343   -4.3269 O   0  0  0  0  0  0  0  0  0  0  0  0
    3.0796    1.4697   -4.7500 C   0  0  0  0  0  0  0  0  0  0  0  0
    3.6374    0.5599   -3.8976 C   0  0  0  0  0  0  0  0  0  0  0  0
    4.7016   -0.1809   -4.3916 C   0  0  0  0  0  0  0  0  0  0  0  0
    5.1320    0.0131   -5.7004 C   0  0  0  0  0  0  0  0  0  0  0  0
    4.6597    0.9103   -6.5973 C   0  0  0  0  0  0  0  0  0  0  0  0
    3.5611    1.5959   -6.0649 C   0  0  0  0  0  0  0  0  0  0  0  0
    5.2323    1.0421   -7.9919 C   0  0  0  0  0  0  0  0  0  0  0  0
    6.3991    0.3293   -8.4681 C   0  0  0  0  0  0  0  0  0  0  0  0
    7.3579   -0.6210   -7.7709 C   0  0  0  0  0  0  0  0  0  0  0  0
    6.7635    0.4191   -9.8349 C   0  0  0  0  0  0  0  0  0  0  0  0
    5.9712    1.0553  -10.7650 C   0  0  0  0  0  0  0  0  0  0  0  0
    4.9247    1.8286  -10.3210 C   0  0  0  0  0  0  0  0  0  0  0  0
    4.6000    1.8957   -8.9571 C   0  0  0  0  0  0  0  0  0  0  0  0
    3.5411    2.9227   -8.6511 C   0  0  0  0  0  0  0  0  0  0  0  0
    5.5087   -1.1368   -3.6074 C   0  0  2  0  0  0  0  0  0  0  0  0
    4.8511   -1.4959   -2.8011 H   0  0  0  0  0  0  0  0  0  0  0  0
    6.6398   -0.5006   -2.9742 C   0  0  0  0  0  0  0  0  0  0  0  0
    7.5721    0.0238   -2.4522 C   0  0  0  0  0  0  0  0  0  0  0  0
    8.6677    0.6717   -1.8222 C   0  0  0  0  0  0  0  0  0  0  0  0
    8.7039    2.0480   -1.7207 C   0  0  0  0  0  0  0  0  0  0  0  0
    7.6078    2.9122   -2.2794 C   0  0  0  0  0  0  0  0  0  0  0  0
    9.7240    2.6847   -1.1109 N   0  0  0  0  0  0  0  0  0  0  0  0
   10.7047    1.9236   -0.6111 C   0  0  0  0  0  0  0  0  0  0  0  0
   10.7581    0.5865   -0.6747 N   0  0  0  0  0  0  0  0  0  0  0  0
    9.7357   -0.0344   -1.2850 C   0  0  0  0  0  0  0  0  0  0  0  0
    9.7742   -1.4183   -1.3175 N   0  0  0  0  0  0  0  0  0  0  0  0
   11.7239    2.5833    0.0104 N   0  0  0  0  0  0  0  0  0  0  0  0
    5.9661   -2.4343   -4.3081 C   0  0  0  0  0  0  0  0  0  0  0  0
    1.3628    4.1705   -4.2472 H   0  0  0  0  0  0  0  0  0  0  0  0
    2.2917    3.8404   -5.6915 H   0  0  0  0  0  0  0  0  0  0  0  0
    3.1310    3.9823   -4.1158 H   0  0  0  0  0  0  0  0  0  0  0  0
    3.2687    0.4357   -2.8836 H   0  0  0  0  0  0  0  0  0  0  0  0
    5.8826   -0.6821   -5.9728 H   0  0  0  0  0  0  0  0  0  0  0  0
    2.9709    2.2509   -6.6459 H   0  0  0  0  0  0  0  0  0  0  0  0
    7.3241   -0.7810   -6.7094 H   0  0  0  0  0  0  0  0  0  0  0  0
    8.3858   -0.2616   -7.8744 H   0  0  0  0  0  0  0  0  0  0  0  0
    7.2607   -1.6178   -8.2229 H   0  0  0  0  0  0  0  0  0  0  0  0
    7.6786   -0.0610  -10.1814 H   0  0  0  0  0  0  0  0  0  0  0  0
    6.1838    0.9708  -11.8236 H   0  0  0  0  0  0  0  0  0  0  0  0
    4.3574    2.4106  -11.0422 H   0  0  0  0  0  0  0  0  0  0  0  0
    3.3342    3.6010   -9.4811 H   0  0  0  0  0  0  0  0  0  0  0  0
    3.8857    3.5707   -7.8346 H   0  0  0  0  0  0  0  0  0  0  0  0
    2.5902    2.4201   -8.4490 H   0  0  0  0  0  0  0  0  0  0  0  0
    6.8116    2.3436   -2.7694 H   0  0  0  0  0  0  0  0  0  0  0  0
    8.0185    3.5919   -3.0305 H   0  0  0  0  0  0  0  0  0  0  0  0
    7.1404    3.4844   -1.4740 H   0  0  0  0  0  0  0  0  0  0  0  0
   10.5905   -1.8770   -0.9436 H   0  0  0  0  0  0  0  0  0  0  0  0
    9.0764   -1.9416   -1.8241 H   0  0  0  0  0  0  0  0  0  0  0  0
   11.6589    3.5852    0.0553 H   0  0  0  0  0  0  0  0  0  0  0  0
   12.4733    2.0507    0.4118 H   0  0  0  0  0  0  0  0  0  0  0  0
    6.3810   -3.1432   -3.5822 H   0  0  0  0  0  0  0  0  0  0  0  0
    6.7670   -2.2660   -5.0370 H   0  0  0  0  0  0  0  0  0  0  0  0
    5.1318   -2.9210   -4.8244 H   0  0  0  0  0  0  0  0  0  0  0  0
  1  2  1  0  0  0  0
  1 31  1  0  0  0  0
  1 32  1  0  0  0  0
  1 33  1  0  0  0  0
  2  3  1  0  0  0  0
  3  4  2  0  0  0  0
  3  8  1  0  0  0  0
  4  5  1  0  0  0  0
  4 34  1  0  0  0  0
  5  6  2  0  0  0  0
  6  7  1  0  0  0  0
  6 35  1  0  0  0  0
  7  8  2  0  0  0  0
  7  9  1  0  0  0  0
  8 36  1  0  0  0  0
  9 10  2  0  0  0  0
  9 15  1  0  0  0  0
 10 11  1  0  0  0  0
 10 12  1  0  0  0  0
 11 37  1  0  0  0  0
 11 38  1  0  0  0  0
 11 39  1  0  0  0  0
 12 13  2  0  0  0  0
 12 40  1  0  0  0  0
 13 14  1  0  0  0  0
 13 41  1  0  0  0  0
 14 15  2  0  0  0  0
 14 42  1  0  0  0  0
 15 16  1  0  0  0  0
 16 43  1  0  0  0  0
 16 44  1  0  0  0  0
 16 45  1  0  0  0  0
 17 19  1  0  0  0  0
 17 30  1  0  0  0  0
 17 18  1  1  0  0  0
 17  5  1  0  0  0  0
 19 20  3  0  0  0  0
 20 21  1  0  0  0  0
 21 22  2  0  0  0  0
 21 27  1  0  0  0  0
 22 23  1  0  0  0  0
 22 24  1  0  0  0  0
 23 46  1  0  0  0  0
 23 47  1  0  0  0  0
 23 48  1  0  0  0  0
 24 25  2  0  0  0  0
 25 26  1  0  0  0  0
 25 29  1  0  0  0  0
 26 27  2  0  0  0  0
 27 28  1  0  0  0  0
 28 49  1  0  0  0  0
 28 50  1  0  0  0  0
 29 51  1  0  0  0  0
 29 52  1  0  0  0  0
 30 53  1  0  0  0  0
 30 54  1  0  0  0  0
 30 55  1  0  0  0  0
M  END
$$$$
