553
 OpenBabel04121316063D

 34 36  0  0  1  0  0  0  0  0999 V2000
    5.1764   -4.6015   -0.1470 F   0  0  0  0  0  0  0  0  0  0  0  0
    4.5442   -3.4053   -0.0679 C   0  0  0  0  0  0  0  0  0  0  0  0
    5.0991   -2.4917   -1.1434 C   0  0  0  0  0  0  0  0  0  0  0  0
    4.4189   -1.1215   -1.1007 C   0  0  1  0  0  0  0  0  0  0  0  0
    3.3277   -1.2435   -1.1602 H   0  0  0  0  0  0  0  0  0  0  0  0
    4.7719   -0.4212    0.2389 C   0  0  0  0  0  0  0  0  0  0  0  0
    5.6520    0.7284    0.1986 N   0  0  0  0  0  0  0  0  0  0  0  0
    6.1021    1.3778   -0.9191 C   0  0  0  0  0  0  0  0  0  0  0  0
    6.8399    2.3603   -0.8241 O   0  0  0  0  0  0  0  0  0  0  0  0
    5.6662    0.8178   -2.1776 C   0  0  0  0  0  0  0  0  0  0  0  0
    4.8776   -0.3078   -2.2530 C   0  0  0  0  0  0  0  0  0  0  0  0
    4.6401   -0.5926   -3.5678 N   0  0  0  0  0  0  0  0  0  0  0  0
    4.0775   -1.3635   -3.9054 H   0  0  0  0  0  0  0  0  0  0  0  0
    5.3252    0.3025   -4.3642 C   0  0  0  0  0  0  0  0  0  0  0  0
    5.9343    1.2075   -3.5089 C   0  0  0  0  0  0  0  0  0  0  0  0
    5.2841    0.2709   -5.8204 C   0  0  0  0  0  0  0  0  0  0  0  0
    4.8811   -0.8473   -6.5087 C   0  0  0  0  0  0  0  0  0  0  0  0
    4.5768   -0.6264   -7.8231 C   0  0  0  0  0  0  0  0  0  0  0  0
    4.8716    0.5150   -8.4682 N   0  0  0  0  0  0  0  0  0  0  0  0
    5.4248    1.4888   -7.7385 C   0  0  0  0  0  0  0  0  0  0  0  0
    5.5821    1.4397   -6.4171 N   0  0  0  0  0  0  0  0  0  0  0  0
    5.8628    2.6073   -8.3907 N   0  0  0  0  0  0  0  0  0  0  0  0
    4.6996   -3.0207    0.9426 H   0  0  0  0  0  0  0  0  0  0  0  0
    3.4715   -3.5609   -0.2098 H   0  0  0  0  0  0  0  0  0  0  0  0
    4.9737   -2.9704   -2.1228 H   0  0  0  0  0  0  0  0  0  0  0  0
    6.1838   -2.3724   -1.0142 H   0  0  0  0  0  0  0  0  0  0  0  0
    5.2925   -1.1059    0.9130 H   0  0  0  0  0  0  0  0  0  0  0  0
    3.8539   -0.1211    0.7530 H   0  0  0  0  0  0  0  0  0  0  0  0
    5.9846    1.1129    1.0717 H   0  0  0  0  0  0  0  0  0  0  0  0
    6.5314    2.0544   -3.8211 H   0  0  0  0  0  0  0  0  0  0  0  0
    4.7589   -1.8159   -6.0493 H   0  0  0  0  0  0  0  0  0  0  0  0
    4.0446   -1.3740   -8.4020 H   0  0  0  0  0  0  0  0  0  0  0  0
    5.9585    2.5417   -9.3897 H   0  0  0  0  0  0  0  0  0  0  0  0
    6.3797    3.2726   -7.8402 H   0  0  0  0  0  0  0  0  0  0  0  0
  1  2  1  0  0  0  0
  2  3  1  0  0  0  0
  2 23  1  0  0  0  0
  2 24  1  0  0  0  0
  3 25  1  0  0  0  0
  3 26  1  0  0  0  0
  4  6  1  0  0  0  0
  4 11  1  0  0  0  0
  4  5  1  6  0  0  0
  4  3  1  0  0  0  0
  6  7  1  0  0  0  0
  6 27  1  0  0  0  0
  6 28  1  0  0  0  0
  7  8  1  0  0  0  0
  7 29  1  0  0  0  0
  8  9  2  0  0  0  0
  8 10  1  0  0  0  0
 10 11  2  0  0  0  0
 10 15  1  0  0  0  0
 11 12  1  0  0  0  0
 12 13  1  0  0  0  0
 12 14  1  0  0  0  0
 14 15  2  0  0  0  0
 14 16  1  0  0  0  0
 15 30  1  0  0  0  0
 16 17  2  0  0  0  0
 16 21  1  0  0  0  0
 17 18  1  0  0  0  0
 17 31  1  0  0  0  0
 18 19  2  0  0  0  0
 18 32  1  0  0  0  0
 19 20  1  0  0  0  0
 20 21  2  0  0  0  0
 20 22  1  0  0  0  0
 22 33  1  0  0  0  0
 22 34  1  0  0  0  0
M  END
$$$$
