557
 OpenBabel04121316063D

 49 50  0  0  1  0  0  0  0  0999 V2000
    0.8423   -0.0826   -0.0745 O   0  0  0  0  0  0  0  0  0  0  0  0
    2.2642   -0.0898   -0.0481 C   0  0  0  0  0  0  0  0  0  0  0  0
    2.7421    1.1836    0.5191 C   0  0  0  0  0  0  0  0  0  0  0  0
    2.3227    2.4229    0.1126 C   0  0  0  0  0  0  0  0  0  0  0  0
    2.8869    3.3409    0.9481 N   0  0  0  0  0  0  0  0  0  0  0  0
    3.7500    2.7677    1.8163 N   0  0  0  0  0  0  0  0  0  0  0  0
    3.6616    1.4445    1.5693 C   0  0  0  0  0  0  0  0  0  0  0  0
    4.4527    0.4345    2.3488 C   0  0  0  0  0  0  0  0  0  0  0  0
    5.7920    0.6433    2.2555 F   0  0  0  0  0  0  0  0  0  0  0  0
    4.1315    0.4295    3.6677 F   0  0  0  0  0  0  0  0  0  0  0  0
    4.2439   -0.8347    1.9014 F   0  0  0  0  0  0  0  0  0  0  0  0
    2.6789    4.7299    0.9016 C   0  0  0  0  0  0  0  0  0  0  0  0
    1.8428    5.2544   -0.0814 C   0  0  0  0  0  0  0  0  0  0  0  0
    1.8660    6.6090   -0.3266 C   0  0  0  0  0  0  0  0  0  0  0  0
    2.4715    7.4887    0.5735 C   0  0  0  0  0  0  0  0  0  0  0  0
    3.1680    6.9451    1.6661 C   0  0  0  0  0  0  0  0  0  0  0  0
    3.3517    5.5734    1.7799 C   0  0  0  0  0  0  0  0  0  0  0  0
    2.3905    8.9840    0.3033 C   0  0  1  0  0  0  0  0  0  0  0  0
    2.8310    9.1558   -0.6890 H   0  0  0  0  0  0  0  0  0  0  0  0
    0.9408    9.5299    0.3262 C   0  0  0  0  0  0  0  0  0  0  0  0
    0.0322    8.8839   -0.6877 N   0  0  0  0  0  0  0  0  0  0  0  0
   -1.5422    9.4960   -0.6403 S   0  0  0  0  0  0  0  0  0  0  0  0
   -2.0628    9.0894    0.6407 O   0  0  0  0  0  0  0  0  0  0  0  0
   -1.4609   10.8921   -1.0238 O   0  0  0  0  0  0  0  0  0  0  0  0
   -2.4092    8.5715   -1.9405 C   0  0  0  0  0  0  0  0  0  0  0  0
   -2.3910    7.0636   -1.6977 C   0  0  0  0  0  0  0  0  0  0  0  0
   -3.8546    9.0654   -1.9720 C   0  0  0  0  0  0  0  0  0  0  0  0
    3.2246    9.7740    1.3253 C   0  0  0  0  0  0  0  0  0  0  0  0
    0.5638   -0.9510   -0.4030 H   0  0  0  0  0  0  0  0  0  0  0  0
    2.6346   -0.1982   -1.0723 H   0  0  0  0  0  0  0  0  0  0  0  0
    2.5811   -0.9502    0.5375 H   0  0  0  0  0  0  0  0  0  0  0  0
    1.6270    2.6798   -0.6707 H   0  0  0  0  0  0  0  0  0  0  0  0
    1.2119    4.6440   -0.7162 H   0  0  0  0  0  0  0  0  0  0  0  0
    1.3972    6.9559   -1.2429 H   0  0  0  0  0  0  0  0  0  0  0  0
    3.6284    7.5666    2.4287 H   0  0  0  0  0  0  0  0  0  0  0  0
    4.0210    5.1893    2.5465 H   0  0  0  0  0  0  0  0  0  0  0  0
    0.9680   10.6076    0.1346 H   0  0  0  0  0  0  0  0  0  0  0  0
    0.5161    9.3466    1.3196 H   0  0  0  0  0  0  0  0  0  0  0  0
   -0.0711    7.9046   -0.4213 H   0  0  0  0  0  0  0  0  0  0  0  0
   -1.9192    8.8046   -2.8925 H   0  0  0  0  0  0  0  0  0  0  0  0
   -2.8304    6.8100   -0.7270 H   0  0  0  0  0  0  0  0  0  0  0  0
   -1.3755    6.6590   -1.7219 H   0  0  0  0  0  0  0  0  0  0  0  0
   -2.9697    6.5405   -2.4687 H   0  0  0  0  0  0  0  0  0  0  0  0
   -4.3447    8.8882   -1.0075 H   0  0  0  0  0  0  0  0  0  0  0  0
   -4.4349    8.5562   -2.7468 H   0  0  0  0  0  0  0  0  0  0  0  0
   -3.8925   10.1418   -2.1662 H   0  0  0  0  0  0  0  0  0  0  0  0
    4.2684    9.4355    1.3272 H   0  0  0  0  0  0  0  0  0  0  0  0
    2.8241    9.6379    2.3388 H   0  0  0  0  0  0  0  0  0  0  0  0
    3.2244   10.8444    1.1117 H   0  0  0  0  0  0  0  0  0  0  0  0
  1  2  1  0  0  0  0
  1 29  1  0  0  0  0
  2  3  1  0  0  0  0
  2 30  1  0  0  0  0
  2 31  1  0  0  0  0
  3  4  2  0  0  0  0
  3  7  1  0  0  0  0
  4  5  1  0  0  0  0
  4 32  1  0  0  0  0
  5  6  1  0  0  0  0
  5 12  1  0  0  0  0
  6  7  2  0  0  0  0
  7  8  1  0  0  0  0
  8  9  1  0  0  0  0
  8 10  1  0  0  0  0
  8 11  1  0  0  0  0
 12 13  2  0  0  0  0
 12 17  1  0  0  0  0
 13 14  1  0  0  0  0
 13 33  1  0  0  0  0
 14 15  2  0  0  0  0
 14 34  1  0  0  0  0
 15 16  1  0  0  0  0
 15 18  1  0  0  0  0
 16 17  2  0  0  0  0
 16 35  1  0  0  0  0
 17 36  1  0  0  0  0
 18 19  1  6  0  0  0
 18 20  1  0  0  0  0
 18 28  1  0  0  0  0
 20 21  1  0  0  0  0
 20 37  1  0  0  0  0
 20 38  1  0  0  0  0
 21 22  1  0  0  0  0
 21 39  1  0  0  0  0
 22 23  2  0  0  0  0
 22 24  2  0  0  0  0
 22 25  1  0  0  0  0
 25 26  1  0  0  0  0
 25 27  1  0  0  0  0
 25 40  1  0  0  0  0
 26 41  1  0  0  0  0
 26 42  1  0  0  0  0
 26 43  1  0  0  0  0
 27 44  1  0  0  0  0
 27 45  1  0  0  0  0
 27 46  1  0  0  0  0
 28 47  1  0  0  0  0
 28 48  1  0  0  0  0
 28 49  1  0  0  0  0
M  END
$$$$
