55V
 OpenBabel04121316063D

 50 51  0  0  0  0  0  0  0  0999 V2000
    0.9498    0.2449    0.4357 C   0  0  0  0  0  0  0  0  0  0  0  0
    2.2743    0.1599   -0.0957 O   0  0  0  0  0  0  0  0  0  0  0  0
    2.9562   -0.8755    0.4791 C   0  0  0  0  0  0  0  0  0  0  0  0
    4.0043   -0.6050    1.3847 C   0  0  0  0  0  0  0  0  0  0  0  0
    4.5285    0.6115    1.7420 O   0  0  0  0  0  0  0  0  0  0  0  0
    4.0132    1.7399    1.0591 C   0  0  0  0  0  0  0  0  0  0  0  0
    4.6071   -1.6564    2.0710 C   0  0  0  0  0  0  0  0  0  0  0  0
    4.2016   -2.9811    1.8704 C   0  0  0  0  0  0  0  0  0  0  0  0
    3.1928   -3.2239    0.9058 C   0  0  0  0  0  0  0  0  0  0  0  0
    2.5853   -2.1895    0.1787 C   0  0  0  0  0  0  0  0  0  0  0  0
    1.6137   -2.5930   -0.7107 O   0  0  0  0  0  0  0  0  0  0  0  0
    1.1886   -1.7291   -1.7737 C   0  0  0  0  0  0  0  0  0  0  0  0
    4.8934   -4.0786    2.6888 C   0  0  0  0  0  0  0  0  0  0  0  0
    6.3090   -4.0972    2.4045 C   0  0  0  0  0  0  0  0  0  0  0  0
    7.4757   -4.1125    2.1702 C   0  0  0  0  0  0  0  0  0  0  0  0
    8.8678   -4.1209    1.8924 C   0  0  0  0  0  0  0  0  0  0  0  0
    9.5745   -2.9409    1.7502 C   0  0  0  0  0  0  0  0  0  0  0  0
    8.9095   -1.5993    1.8855 C   0  0  0  0  0  0  0  0  0  0  0  0
   10.8938   -2.9345    1.4881 N   0  0  0  0  0  0  0  0  0  0  0  0
   11.5025   -4.1242    1.3647 C   0  0  0  0  0  0  0  0  0  0  0  0
   10.8924   -5.3155    1.4810 N   0  0  0  0  0  0  0  0  0  0  0  0
    9.5790   -5.3059    1.7422 C   0  0  0  0  0  0  0  0  0  0  0  0
    8.9613   -6.5348    1.9197 N   0  0  0  0  0  0  0  0  0  0  0  0
   12.8339   -4.0994    1.1066 N   0  0  0  0  0  0  0  0  0  0  0  0
    4.6690   -3.8598    4.1987 C   0  0  0  0  0  0  0  0  0  0  0  0
    4.3210   -5.4742    2.3371 C   0  0  0  0  0  0  0  0  0  0  0  0
    0.4044    0.9001   -0.2478 H   0  0  0  0  0  0  0  0  0  0  0  0
    0.9384    0.6585    1.4428 H   0  0  0  0  0  0  0  0  0  0  0  0
    0.4333   -0.7204    0.4778 H   0  0  0  0  0  0  0  0  0  0  0  0
    4.5433    2.6302    1.3999 H   0  0  0  0  0  0  0  0  0  0  0  0
    2.9620    1.8868    1.3190 H   0  0  0  0  0  0  0  0  0  0  0  0
    4.1731    1.6475   -0.0203 H   0  0  0  0  0  0  0  0  0  0  0  0
    5.4005   -1.4307    2.7849 H   0  0  0  0  0  0  0  0  0  0  0  0
    2.8448   -4.2334    0.7005 H   0  0  0  0  0  0  0  0  0  0  0  0
    0.6428   -2.3348   -2.5008 H   0  0  0  0  0  0  0  0  0  0  0  0
    2.0182   -1.2185   -2.2703 H   0  0  0  0  0  0  0  0  0  0  0  0
    0.4320   -1.0017   -1.4704 H   0  0  0  0  0  0  0  0  0  0  0  0
    7.8399   -1.6661    2.1011 H   0  0  0  0  0  0  0  0  0  0  0  0
    9.0120   -1.0379    0.9531 H   0  0  0  0  0  0  0  0  0  0  0  0
    9.3649   -1.0407    2.7075 H   0  0  0  0  0  0  0  0  0  0  0  0
    9.5073   -7.3648    1.7447 H   0  0  0  0  0  0  0  0  0  0  0  0
    7.9589   -6.5934    2.0149 H   0  0  0  0  0  0  0  0  0  0  0  0
   13.2702   -3.1964    1.0195 H   0  0  0  0  0  0  0  0  0  0  0  0
   13.3276   -4.9702    1.0077 H   0  0  0  0  0  0  0  0  0  0  0  0
    5.1096   -2.9212    4.5545 H   0  0  0  0  0  0  0  0  0  0  0  0
    5.1294   -4.6636    4.7873 H   0  0  0  0  0  0  0  0  0  0  0  0
    3.6004   -3.8362    4.4424 H   0  0  0  0  0  0  0  0  0  0  0  0
    4.4661   -5.7107    1.2742 H   0  0  0  0  0  0  0  0  0  0  0  0
    3.2456   -5.5285    2.5495 H   0  0  0  0  0  0  0  0  0  0  0  0
    4.8069   -6.2743    2.9061 H   0  0  0  0  0  0  0  0  0  0  0  0
  1  2  1  0  0  0  0
  1 27  1  0  0  0  0
  1 28  1  0  0  0  0
  1 29  1  0  0  0  0
  2  3  1  0  0  0  0
  3  4  2  0  0  0  0
  3 10  1  0  0  0  0
  4  5  1  0  0  0  0
  4  7  1  0  0  0  0
  5  6  1  0  0  0  0
  6 30  1  0  0  0  0
  6 31  1  0  0  0  0
  6 32  1  0  0  0  0
  7  8  2  0  0  0  0
  7 33  1  0  0  0  0
  8  9  1  0  0  0  0
  8 13  1  0  0  0  0
  9 10  2  0  0  0  0
  9 34  1  0  0  0  0
 10 11  1  0  0  0  0
 11 12  1  0  0  0  0
 12 35  1  0  0  0  0
 12 36  1  0  0  0  0
 12 37  1  0  0  0  0
 13 14  1  0  0  0  0
 13 25  1  0  0  0  0
 13 26  1  0  0  0  0
 14 15  3  0  0  0  0
 15 16  1  0  0  0  0
 16 17  2  0  0  0  0
 16 22  1  0  0  0  0
 17 18  1  0  0  0  0
 17 19  1  0  0  0  0
 18 38  1  0  0  0  0
 18 39  1  0  0  0  0
 18 40  1  0  0  0  0
 19 20  2  0  0  0  0
 20 21  1  0  0  0  0
 20 24  1  0  0  0  0
 21 22  2  0  0  0  0
 22 23  1  0  0  0  0
 23 41  1  0  0  0  0
 23 42  1  0  0  0  0
 24 43  1  0  0  0  0
 24 44  1  0  0  0  0
 25 45  1  0  0  0  0
 25 46  1  0  0  0  0
 25 47  1  0  0  0  0
 26 48  1  0  0  0  0
 26 49  1  0  0  0  0
 26 50  1  0  0  0  0
M  END
$$$$
