564
 OpenBabel04121316063D

 55 58  0  0  0  0  0  0  0  0999 V2000
    0.8614   -0.0612   -0.0358 O   0  0  0  0  0  0  0  0  0  0  0  0
    2.0858   -0.0386   -0.0276 C   0  0  0  0  0  0  0  0  0  0  0  0
    2.8528   -1.1318   -0.6162 C   0  0  0  0  0  0  0  0  0  0  0  0
    3.8409   -0.8878   -1.5751 C   0  0  0  0  0  0  0  0  0  0  0  0
    4.4687   -1.9679   -2.1828 C   0  0  0  0  0  0  0  0  0  0  0  0
    4.0858   -3.2726   -1.8433 C   0  0  0  0  0  0  0  0  0  0  0  0
    3.0899   -3.4889   -0.8604 C   0  0  0  0  0  0  0  0  0  0  0  0
    2.4968   -2.4142   -0.2255 C   0  0  0  0  0  0  0  0  0  0  0  0
    2.6271   -4.7691   -0.5890 C   0  0  0  0  0  0  0  0  0  0  0  0
    3.0185   -5.8181   -1.4082 C   0  0  0  0  0  0  0  0  0  0  0  0
    4.0962   -5.6546   -2.2867 C   0  0  0  0  0  0  0  0  0  0  0  0
    4.6436   -4.3780   -2.4809 C   0  0  0  0  0  0  0  0  0  0  0  0
    4.7496   -6.7829   -2.9956 C   0  0  0  0  0  0  0  0  0  0  0  0
    5.7493   -6.6180   -3.6896 O   0  0  0  0  0  0  0  0  0  0  0  0
    4.2192   -8.0013   -2.7957 O   0  0  0  0  0  0  0  0  0  0  0  0
    2.8089    1.0737    0.5749 C   0  0  0  0  0  0  0  0  0  0  0  0
    2.4209    2.3471    0.2155 C   0  0  0  0  0  0  0  0  0  0  0  0
    3.0609    3.4171    0.8050 C   0  0  0  0  0  0  0  0  0  0  0  0
    4.0710    3.2338    1.7764 C   0  0  0  0  0  0  0  0  0  0  0  0
    4.4853    1.9247    2.1127 C   0  0  0  0  0  0  0  0  0  0  0  0
    3.8309    0.8467    1.4972 C   0  0  0  0  0  0  0  0  0  0  0  0
    5.5771    1.6496    3.1508 C   0  0  0  0  0  0  0  0  0  0  0  0
    6.5521    0.5653    2.6420 C   0  0  0  0  0  0  0  0  0  0  0  0
    4.9206    1.1638    4.4602 C   0  0  0  0  0  0  0  0  0  0  0  0
    6.4011    2.9216    3.4438 C   0  0  0  0  0  0  0  0  0  0  0  0
    5.4804    4.1122    3.6961 C   0  0  0  0  0  0  0  0  0  0  0  0
    4.6937    4.4722    2.4191 C   0  0  0  0  0  0  0  0  0  0  0  0
    3.5926    5.4805    2.8126 C   0  0  0  0  0  0  0  0  0  0  0  0
    5.6478    5.1230    1.3999 C   0  0  0  0  0  0  0  0  0  0  0  0
    4.0928    0.1244   -1.8809 H   0  0  0  0  0  0  0  0  0  0  0  0
    5.2048   -1.7893   -2.9646 H   0  0  0  0  0  0  0  0  0  0  0  0
    1.7098   -2.5511    0.5133 H   0  0  0  0  0  0  0  0  0  0  0  0
    1.9165   -4.9486    0.2152 H   0  0  0  0  0  0  0  0  0  0  0  0
    2.4474   -6.7331   -1.3263 H   0  0  0  0  0  0  0  0  0  0  0  0
    5.4844   -4.2432   -3.1607 H   0  0  0  0  0  0  0  0  0  0  0  0
    3.4514   -8.0643   -2.2054 H   0  0  0  0  0  0  0  0  0  0  0  0
    1.6274    2.5009   -0.5091 H   0  0  0  0  0  0  0  0  0  0  0  0
    2.7403    4.4080    0.5000 H   0  0  0  0  0  0  0  0  0  0  0  0
    4.0878   -0.1772    1.7571 H   0  0  0  0  0  0  0  0  0  0  0  0
    6.0566   -0.3973    2.4776 H   0  0  0  0  0  0  0  0  0  0  0  0
    7.3559    0.3824    3.3621 H   0  0  0  0  0  0  0  0  0  0  0  0
    7.0055    0.8636    1.6889 H   0  0  0  0  0  0  0  0  0  0  0  0
    4.3448    0.2452    4.3111 H   0  0  0  0  0  0  0  0  0  0  0  0
    4.2232    1.9016    4.8713 H   0  0  0  0  0  0  0  0  0  0  0  0
    5.6797    0.9670    5.2258 H   0  0  0  0  0  0  0  0  0  0  0  0
    7.0701    3.1367    2.6020 H   0  0  0  0  0  0  0  0  0  0  0  0
    7.0605    2.7686    4.3065 H   0  0  0  0  0  0  0  0  0  0  0  0
    6.0652    4.9718    4.0436 H   0  0  0  0  0  0  0  0  0  0  0  0
    4.7864    3.8834    4.5141 H   0  0  0  0  0  0  0  0  0  0  0  0
    2.8684    5.0213    3.4973 H   0  0  0  0  0  0  0  0  0  0  0  0
    3.0297    5.8446    1.9470 H   0  0  0  0  0  0  0  0  0  0  0  0
    4.0167    6.3635    3.2978 H   0  0  0  0  0  0  0  0  0  0  0  0
    6.4471    4.4409    1.0897 H   0  0  0  0  0  0  0  0  0  0  0  0
    6.1189    6.0144    1.8264 H   0  0  0  0  0  0  0  0  0  0  0  0
    5.1247    5.4185    0.4851 H   0  0  0  0  0  0  0  0  0  0  0  0
  1  2  2  0  0  0  0
  2  3  1  0  0  0  0
  2 16  1  0  0  0  0
  3  4  2  0  0  0  0
  3  8  1  0  0  0  0
  4  5  1  0  0  0  0
  4 30  1  0  0  0  0
  5  6  2  0  0  0  0
  5 31  1  0  0  0  0
  6  7  1  0  0  0  0
  6 12  1  0  0  0  0
  7  8  2  0  0  0  0
  7  9  1  0  0  0  0
  8 32  1  0  0  0  0
  9 10  2  0  0  0  0
  9 33  1  0  0  0  0
 10 11  1  0  0  0  0
 10 34  1  0  0  0  0
 11 12  2  0  0  0  0
 11 13  1  0  0  0  0
 12 35  1  0  0  0  0
 13 14  2  0  0  0  0
 13 15  1  0  0  0  0
 15 36  1  0  0  0  0
 16 17  2  0  0  0  0
 16 21  1  0  0  0  0
 17 18  1  0  0  0  0
 17 37  1  0  0  0  0
 18 19  2  0  0  0  0
 18 38  1  0  0  0  0
 19 20  1  0  0  0  0
 19 27  1  0  0  0  0
 20 21  2  0  0  0  0
 20 22  1  0  0  0  0
 21 39  1  0  0  0  0
 22 23  1  0  0  0  0
 22 24  1  0  0  0  0
 22 25  1  0  0  0  0
 23 40  1  0  0  0  0
 23 41  1  0  0  0  0
 23 42  1  0  0  0  0
 24 43  1  0  0  0  0
 24 44  1  0  0  0  0
 24 45  1  0  0  0  0
 25 26  1  0  0  0  0
 25 46  1  0  0  0  0
 25 47  1  0  0  0  0
 26 27  1  0  0  0  0
 26 48  1  0  0  0  0
 26 49  1  0  0  0  0
 27 28  1  0  0  0  0
 27 29  1  0  0  0  0
 28 50  1  0  0  0  0
 28 51  1  0  0  0  0
 28 52  1  0  0  0  0
 29 53  1  0  0  0  0
 29 54  1  0  0  0  0
 29 55  1  0  0  0  0
M  END
$$$$
