565
 OpenBabel04121316063D

 44 45  0  0  1  0  0  0  0  0999 V2000
    2.8854    1.1456   -0.8672 N   0  0  0  0  0  0  0  0  0  0  0  0
    2.5137   -0.0564   -0.1003 C   0  0  2  0  0  0  0  0  0  0  0  0
    1.4163   -0.0978   -0.1161 H   0  0  0  0  0  0  0  0  0  0  0  0
    2.9752   -0.0902    1.3874 C   0  0  0  0  0  0  0  0  0  0  0  0
    2.5419    1.1059    2.1888 C   0  0  0  0  0  0  0  0  0  0  0  0
    1.4985    1.0307    3.1161 C   0  0  0  0  0  0  0  0  0  0  0  0
    1.0311    2.2042    3.7014 C   0  0  0  0  0  0  0  0  0  0  0  0
   -0.0356    2.1509    4.5098 F   0  0  0  0  0  0  0  0  0  0  0  0
    1.6457    3.4262    3.4359 C   0  0  0  0  0  0  0  0  0  0  0  0
    2.7538    3.4951    2.6089 C   0  0  0  0  0  0  0  0  0  0  0  0
    3.1782    2.3391    1.9807 C   0  0  0  0  0  0  0  0  0  0  0  0
    4.1847    2.4321    1.1012 F   0  0  0  0  0  0  0  0  0  0  0  0
    1.1636    4.5548    3.9710 F   0  0  0  0  0  0  0  0  0  0  0  0
    3.0603   -1.2854   -0.8485 C   0  0  0  0  0  0  0  0  0  0  0  0
    4.5882   -1.2867   -0.9331 C   0  0  0  0  0  0  0  0  0  0  0  0
    5.2529   -0.3381   -0.4988 O   0  0  0  0  0  0  0  0  0  0  0  0
    5.2016   -2.3270   -1.6123 N   0  0  0  0  0  0  0  0  0  0  0  0
    4.6201   -3.6542   -1.7832 C   0  0  0  0  0  0  0  0  0  0  0  0
    5.4015   -4.7495   -1.0442 C   0  0  0  0  0  0  0  0  0  0  0  0
    6.7349   -5.1011   -1.7096 C   0  0  0  0  0  0  0  0  0  0  0  0
    7.8116   -4.1845   -1.3777 N   0  0  0  0  0  0  0  0  0  0  0  0
    7.5988   -2.8479   -1.1087 C   0  0  0  0  0  0  0  0  0  0  0  0
    8.1608   -2.3237   -0.1565 O   0  0  0  0  0  0  0  0  0  0  0  0
    6.5993   -2.1236   -2.0280 C   0  0  1  0  0  0  0  0  0  0  0  0
    6.8523   -1.0568   -1.9564 H   0  0  0  0  0  0  0  0  0  0  0  0
    6.8365   -2.4994   -3.4942 C   0  0  0  0  0  0  0  0  0  0  0  0
    3.9145    1.2205   -0.8082 H   0  0  0  0  0  0  0  0  0  0  0  0
    2.5700    1.9854   -0.3847 H   0  0  0  0  0  0  0  0  0  0  0  0
    4.0628   -0.1564    1.4825 H   0  0  0  0  0  0  0  0  0  0  0  0
    2.5930   -1.0104    1.8509 H   0  0  0  0  0  0  0  0  0  0  0  0
    1.0339    0.0836    3.3754 H   0  0  0  0  0  0  0  0  0  0  0  0
    3.2688    4.4294    2.4255 H   0  0  0  0  0  0  0  0  0  0  0  0
    2.6721   -1.2847   -1.8765 H   0  0  0  0  0  0  0  0  0  0  0  0
    2.6940   -2.1835   -0.3446 H   0  0  0  0  0  0  0  0  0  0  0  0
    4.5592   -3.8569   -2.8565 H   0  0  0  0  0  0  0  0  0  0  0  0
    3.5927   -3.6685   -1.4164 H   0  0  0  0  0  0  0  0  0  0  0  0
    4.7809   -5.6512   -1.0359 H   0  0  0  0  0  0  0  0  0  0  0  0
    5.5663   -4.4569    0.0009 H   0  0  0  0  0  0  0  0  0  0  0  0
    6.6351   -5.1908   -2.7930 H   0  0  0  0  0  0  0  0  0  0  0  0
    7.0692   -6.0893   -1.3804 H   0  0  0  0  0  0  0  0  0  0  0  0
    8.6115   -4.5604   -0.8829 H   0  0  0  0  0  0  0  0  0  0  0  0
    6.5800   -3.5314   -3.7207 H   0  0  0  0  0  0  0  0  0  0  0  0
    7.8927   -2.3875   -3.7563 H   0  0  0  0  0  0  0  0  0  0  0  0
    6.2128   -1.9055   -4.1638 H   0  0  0  0  0  0  0  0  0  0  0  0
  1 27  1  0  0  0  0
  1 28  1  0  0  0  0
  2  4  1  0  0  0  0
  2 14  1  0  0  0  0
  2  3  1  6  0  0  0
  2  1  1  0  0  0  0
  4  5  1  0  0  0  0
  4 29  1  0  0  0  0
  4 30  1  0  0  0  0
  5  6  2  0  0  0  0
  5 11  1  0  0  0  0
  6  7  1  0  0  0  0
  6 31  1  0  0  0  0
  7  8  1  0  0  0  0
  7  9  2  0  0  0  0
  9 10  1  0  0  0  0
  9 13  1  0  0  0  0
 10 11  2  0  0  0  0
 10 32  1  0  0  0  0
 11 12  1  0  0  0  0
 14 15  1  0  0  0  0
 14 33  1  0  0  0  0
 14 34  1  0  0  0  0
 15 16  2  0  0  0  0
 15 17  1  0  0  0  0
 17 18  1  0  0  0  0
 17 24  1  0  0  0  0
 18 19  1  0  0  0  0
 18 35  1  0  0  0  0
 18 36  1  0  0  0  0
 19 20  1  0  0  0  0
 19 37  1  0  0  0  0
 19 38  1  0  0  0  0
 20 21  1  0  0  0  0
 20 39  1  0  0  0  0
 20 40  1  0  0  0  0
 21 22  1  0  0  0  0
 21 41  1  0  0  0  0
 22 23  2  0  0  0  0
 22 24  1  0  0  0  0
 24 26  1  0  0  0  0
 24 25  1  1  0  0  0
 26 42  1  0  0  0  0
 26 43  1  0  0  0  0
 26 44  1  0  0  0  0
M  END
$$$$
