566
 OpenBabel04121316063D

 43 45  0  0  1  0  0  0  0  0999 V2000
    0.9740   -0.0920    0.0869 O   0  0  0  0  0  0  0  0  0  0  0  0
    2.2127   -0.0648    0.1444 C   0  0  0  0  0  0  0  0  0  0  0  0
    2.9507    1.0276   -0.7024 C   0  0  1  0  0  0  0  0  0  0  0  0
    2.7276    0.8100   -1.7613 H   0  0  0  0  0  0  0  0  0  0  0  0
    2.5870    2.4807   -0.4023 C   0  0  0  0  0  0  0  0  0  0  0  0
    3.8201    3.2707   -0.8652 C   0  0  0  0  0  0  0  0  0  0  0  0
    3.8290    4.4412   -1.2799 O   0  0  0  0  0  0  0  0  0  0  0  0
    4.9201    2.4692   -0.6693 N   0  0  0  0  0  0  0  0  0  0  0  0
    4.4329    1.1366   -0.5029 C   0  0  0  0  0  0  0  0  0  0  0  0
    6.4004    2.7978   -0.6950 C   0  0  0  0  0  0  0  0  0  0  0  0
    7.2757    1.8750    0.1799 C   0  0  0  0  0  0  0  0  0  0  0  0
    7.5047    0.5929   -0.5713 C   0  0  0  0  0  0  0  0  0  0  0  0
    7.7001    0.3924   -2.0522 C   0  0  0  0  0  0  0  0  0  0  0  0
    6.9010    1.4034   -2.8274 C   0  0  0  0  0  0  0  0  0  0  0  0
    7.0080    2.7562   -2.1225 C   0  0  0  0  0  0  0  0  0  0  0  0
    2.8029   -1.0064    0.9786 N   0  0  0  0  0  0  0  0  0  0  0  0
    4.1302   -1.4578    1.0839 C   0  0  0  0  0  0  0  0  0  0  0  0
    4.7400   -1.8899    2.2672 C   0  0  0  0  0  0  0  0  0  0  0  0
    6.1297   -1.7875    2.4174 C   0  0  0  0  0  0  0  0  0  0  0  0
    6.8785   -1.5530    1.3030 C   0  0  0  0  0  0  0  0  0  0  0  0
    6.2511   -1.7565    0.0759 C   0  0  0  0  0  0  0  0  0  0  0  0
    4.8821   -1.5828   -0.0472 C   0  0  0  0  0  0  0  0  0  0  0  0
    2.4926    2.6081    0.6821 H   0  0  0  0  0  0  0  0  0  0  0  0
    1.6689    2.8017   -0.8970 H   0  0  0  0  0  0  0  0  0  0  0  0
    4.7147    0.8637    0.5059 H   0  0  0  0  0  0  0  0  0  0  0  0
    4.8487    0.5643   -1.3217 H   0  0  0  0  0  0  0  0  0  0  0  0
    6.5049    3.8061   -0.2769 H   0  0  0  0  0  0  0  0  0  0  0  0
    6.7768    1.6532    1.1422 H   0  0  0  0  0  0  0  0  0  0  0  0
    8.2621    2.2650    0.4511 H   0  0  0  0  0  0  0  0  0  0  0  0
    6.5091    0.2401   -0.4742 H   0  0  0  0  0  0  0  0  0  0  0  0
    8.2352   -0.0224   -0.0655 H   0  0  0  0  0  0  0  0  0  0  0  0
    7.3698   -0.6097   -2.3701 H   0  0  0  0  0  0  0  0  0  0  0  0
    8.7717    0.4137   -2.2513 H   0  0  0  0  0  0  0  0  0  0  0  0
    5.8540    1.0953   -2.9214 H   0  0  0  0  0  0  0  0  0  0  0  0
    7.2819    1.4108   -3.8508 H   0  0  0  0  0  0  0  0  0  0  0  0
    6.5545    3.5238   -2.7409 H   0  0  0  0  0  0  0  0  0  0  0  0
    8.0854    2.9652   -2.0331 H   0  0  0  0  0  0  0  0  0  0  0  0
    2.1360   -1.5052    1.5568 H   0  0  0  0  0  0  0  0  0  0  0  0
    4.1806   -2.3601    3.0608 H   0  0  0  0  0  0  0  0  0  0  0  0
    6.6757   -1.9665    3.3387 H   0  0  0  0  0  0  0  0  0  0  0  0
    7.9228   -1.2575    1.4100 H   0  0  0  0  0  0  0  0  0  0  0  0
    6.8097   -1.7544   -0.8490 H   0  0  0  0  0  0  0  0  0  0  0  0
    4.4378   -1.4322   -1.0261 H   0  0  0  0  0  0  0  0  0  0  0  0
  1  2  2  0  0  0  0
  2  3  1  0  0  0  0
  2 16  1  0  0  0  0
  3  4  1  6  0  0  0
  3  5  1  0  0  0  0
  3  9  1  0  0  0  0
  5  6  1  0  0  0  0
  5 23  1  0  0  0  0
  5 24  1  0  0  0  0
  6  7  2  0  0  0  0
  6  8  1  0  0  0  0
  8  9  1  0  0  0  0
  8 10  1  0  0  0  0
  9 25  1  0  0  0  0
  9 26  1  0  0  0  0
 10 11  1  0  0  0  0
 10 15  1  0  0  0  0
 10 27  1  0  0  0  0
 11 12  1  0  0  0  0
 11 28  1  0  0  0  0
 11 29  1  0  0  0  0
 12 13  1  0  0  0  0
 12 30  1  0  0  0  0
 12 31  1  0  0  0  0
 13 14  1  0  0  0  0
 13 32  1  0  0  0  0
 13 33  1  0  0  0  0
 14 15  1  0  0  0  0
 14 34  1  0  0  0  0
 14 35  1  0  0  0  0
 15 36  1  0  0  0  0
 15 37  1  0  0  0  0
 16 17  1  0  0  0  0
 16 38  1  0  0  0  0
 17 18  2  0  0  0  0
 17 22  1  0  0  0  0
 18 19  1  0  0  0  0
 18 39  1  0  0  0  0
 19 20  2  0  0  0  0
 19 40  1  0  0  0  0
 20 21  1  0  0  0  0
 20 41  1  0  0  0  0
 21 22  2  0  0  0  0
 21 42  1  0  0  0  0
 22 43  1  0  0  0  0
M  END
$$$$
