568
 OpenBabel04121316063D

 85 89  0  0  1  0  0  0  0  0999 V2000
   -0.6933  -13.3007    9.7111 O   0  0  0  0  0  0  0  0  0  0  0  0
   -1.1941  -12.0101   10.1316 C   0  0  0  0  0  0  0  0  0  0  0  0
   -2.6710  -11.6222    9.5435 C   0  0  1  0  0  0  0  0  0  0  0  0
   -3.4028  -12.2143   10.0980 H   0  0  0  0  0  0  0  0  0  0  0  0
   -2.9742  -10.2191    9.5417 O   0  0  0  0  0  0  0  0  0  0  0  0
   -3.8280   -9.9063    8.3877 C   0  0  0  0  0  0  0  0  0  0  0  0
   -3.3519  -10.7056    7.2102 C   0  0  2  0  0  0  0  0  0  0  0  0
   -4.0780  -11.1004    6.4983 H   0  0  0  0  0  0  0  0  0  0  0  0
   -2.8810  -11.9725    8.0990 C   0  0  0  0  0  0  0  0  0  0  0  0
   -2.5071   -9.7414    6.2994 N   0  0  0  0  0  0  0  0  0  0  0  0
   -2.9276   -9.2775    5.0422 C   0  0  0  0  0  0  0  0  0  0  0  0
   -3.9898   -9.5915    4.5896 O   0  0  0  0  0  0  0  0  0  0  0  0
   -1.9566   -8.2406    4.3310 C   0  0  1  0  0  0  0  0  0  0  0  0
   -1.7089   -7.5724    5.1551 H   0  0  0  0  0  0  0  0  0  0  0  0
   -0.6073   -8.8180    3.7037 C   0  0  1  0  0  0  0  0  0  0  0  0
   -0.8642   -9.5804    2.9547 H   0  0  0  0  0  0  0  0  0  0  0  0
    0.6572   -7.9600    3.0624 C   0  0  2  0  0  0  0  0  0  0  0  0
    1.1267   -8.6678    2.3628 H   0  0  0  0  0  0  0  0  0  0  0  0
    1.7536   -7.4872    4.0684 C   0  0  2  0  0  0  0  0  0  0  0  0
    2.6687   -7.3651    3.4684 H   0  0  0  0  0  0  0  0  0  0  0  0
    2.1222   -8.4127    5.2607 C   0  0  0  0  0  0  0  0  0  0  0  0
    2.0525   -8.0169    6.4263 O   0  0  0  0  0  0  0  0  0  0  0  0
    2.5294   -9.7055    4.9590 N   0  0  0  0  0  0  0  0  0  0  0  0
    2.6790  -10.7235    6.0211 C   0  0  2  0  0  0  0  0  0  0  0  0
    3.0118  -10.2302    6.9405 H   0  0  0  0  0  0  0  0  0  0  0  0
    3.4864  -11.9650    5.5763 C   0  0  2  0  0  0  0  0  0  0  0  0
    4.4079  -11.9871    6.1506 H   0  0  0  0  0  0  0  0  0  0  0  0
    3.7531  -11.8947    4.1742 O   0  0  0  0  0  0  0  0  0  0  0  0
    2.7484  -13.2979    5.7754 C   0  0  0  0  0  0  0  0  0  0  0  0
    1.4483  -12.8481    6.2146 C   0  0  0  0  0  0  0  0  0  0  0  0
    1.4577  -11.4553    6.3784 C   0  0  0  0  0  0  0  0  0  0  0  0
    0.4060  -10.8989    6.9183 C   0  0  0  0  0  0  0  0  0  0  0  0
   -0.6502  -11.7113    6.7012 C   0  0  0  0  0  0  0  0  0  0  0  0
   -0.7713  -13.0945    6.4767 C   0  0  0  0  0  0  0  0  0  0  0  0
    0.3958  -13.7197    6.4020 C   0  0  0  0  0  0  0  0  0  0  0  0
    1.4903   -6.1426    4.5464 O   0  0  0  0  0  0  0  0  0  0  0  0
    0.2326   -6.0301    5.1951 C   0  0  0  0  0  0  0  0  0  0  0  0
   -0.1616   -4.6517    5.5916 C   0  0  0  0  0  0  0  0  0  0  0  0
    0.5762   -3.5656    5.1408 C   0  0  0  0  0  0  0  0  0  0  0  0
    0.3613   -2.3260    5.7108 C   0  0  0  0  0  0  0  0  0  0  0  0
   -0.7087   -2.1403    6.5859 C   0  0  0  0  0  0  0  0  0  0  0  0
   -1.5912   -3.1843    6.8603 C   0  0  0  0  0  0  0  0  0  0  0  0
   -1.2945   -4.4578    6.3981 C   0  0  0  0  0  0  0  0  0  0  0  0
    0.4625   -6.7771    2.2589 O   0  0  0  0  0  0  0  0  0  0  0  0
   -0.0269   -9.5302    4.7490 O   0  0  0  0  0  0  0  0  0  0  0  0
   -2.8250   -7.5535    3.4189 O   0  0  0  0  0  0  0  0  0  0  0  0
   -2.0395   -6.9053    2.4700 C   0  0  0  0  0  0  0  0  0  0  0  0
   -2.6290   -6.2849    1.2835 C   0  0  0  0  0  0  0  0  0  0  0  0
   -2.0642   -6.5339    0.0184 C   0  0  0  0  0  0  0  0  0  0  0  0
   -2.4998   -5.8014   -1.0593 C   0  0  0  0  0  0  0  0  0  0  0  0
   -3.5627   -4.9216   -0.8731 C   0  0  0  0  0  0  0  0  0  0  0  0
   -4.1356   -4.7180    0.3885 C   0  0  0  0  0  0  0  0  0  0  0  0
   -3.6031   -5.3339    1.4924 C   0  0  0  0  0  0  0  0  0  0  0  0
    0.2650  -13.3484    9.9095 H   0  0  0  0  0  0  0  0  0  0  0  0
   -0.4316  -11.2639    9.8703 H   0  0  0  0  0  0  0  0  0  0  0  0
   -1.2284  -12.0703   11.2232 H   0  0  0  0  0  0  0  0  0  0  0  0
   -3.7779   -8.8338    8.1939 H   0  0  0  0  0  0  0  0  0  0  0  0
   -4.8459  -10.2300    8.5965 H   0  0  0  0  0  0  0  0  0  0  0  0
   -1.9104  -12.3808    8.0745 H   0  0  0  0  0  0  0  0  0  0  0  0
   -3.4262  -12.8809    7.8369 H   0  0  0  0  0  0  0  0  0  0  0  0
   -1.6852   -9.2690    6.6718 H   0  0  0  0  0  0  0  0  0  0  0  0
    2.2074  -10.0707    4.0712 H   0  0  0  0  0  0  0  0  0  0  0  0
    4.3541  -11.1417    4.0744 H   0  0  0  0  0  0  0  0  0  0  0  0
    3.1130  -13.9202    6.5903 H   0  0  0  0  0  0  0  0  0  0  0  0
    2.5313  -13.8424    4.8520 H   0  0  0  0  0  0  0  0  0  0  0  0
    0.2942   -9.8752    7.2552 H   0  0  0  0  0  0  0  0  0  0  0  0
   -1.4176  -11.1139    7.0315 H   0  0  0  0  0  0  0  0  0  0  0  0
   -1.6759  -13.6785    6.6650 H   0  0  0  0  0  0  0  0  0  0  0  0
    0.4508  -14.7955    6.4571 H   0  0  0  0  0  0  0  0  0  0  0  0
    0.1734   -6.6877    6.0634 H   0  0  0  0  0  0  0  0  0  0  0  0
   -0.5241   -6.2863    4.4879 H   0  0  0  0  0  0  0  0  0  0  0  0
    1.3497   -3.7112    4.3907 H   0  0  0  0  0  0  0  0  0  0  0  0
    1.0477   -1.5193    5.4817 H   0  0  0  0  0  0  0  0  0  0  0  0
   -0.8542   -1.1723    7.0509 H   0  0  0  0  0  0  0  0  0  0  0  0
   -2.4795   -3.0137    7.4612 H   0  0  0  0  0  0  0  0  0  0  0  0
   -1.9294   -5.2958    6.6828 H   0  0  0  0  0  0  0  0  0  0  0  0
    0.1257   -6.9351    1.3663 H   0  0  0  0  0  0  0  0  0  0  0  0
   -0.5405  -10.3427    4.8806 H   0  0  0  0  0  0  0  0  0  0  0  0
   -1.4645   -7.7016    2.0210 H   0  0  0  0  0  0  0  0  0  0  0  0
   -1.5078   -6.0937    2.9621 H   0  0  0  0  0  0  0  0  0  0  0  0
   -1.2763   -7.2725   -0.1269 H   0  0  0  0  0  0  0  0  0  0  0  0
   -2.0335   -5.9355   -2.0297 H   0  0  0  0  0  0  0  0  0  0  0  0
   -3.9586   -4.3861   -1.7251 H   0  0  0  0  0  0  0  0  0  0  0  0
   -4.9994   -4.0826    0.5248 H   0  0  0  0  0  0  0  0  0  0  0  0
   -3.9186   -5.1060    2.5086 H   0  0  0  0  0  0  0  0  0  0  0  0
  1  2  1  0  0  0  0
  1 54  1  0  0  0  0
  2  3  1  0  0  0  0
  2 55  1  0  0  0  0
  2 56  1  0  0  0  0
  3  4  1  1  0  0  0
  3  5  1  0  0  0  0
  3  9  1  0  0  0  0
  5  6  1  0  0  0  0
  6  7  1  0  0  0  0
  6 57  1  0  0  0  0
  6 58  1  0  0  0  0
  7  9  1  0  0  0  0
  7 10  1  0  0  0  0
  7  8  1  6  0  0  0
  9 59  1  0  0  0  0
  9 60  1  0  0  0  0
 10 11  1  0  0  0  0
 10 61  1  0  0  0  0
 11 12  2  0  0  0  0
 11 13  1  0  0  0  0
 13 14  1  1  0  0  0
 13 15  1  0  0  0  0
 13 46  1  0  0  0  0
 15 16  1  6  0  0  0
 15 45  1  0  0  0  0
 17 44  1  0  0  0  0
 17 18  1  6  0  0  0
 17 15  1  0  0  0  0
 19 21  1  0  0  0  0
 19 36  1  0  0  0  0
 19 20  1  6  0  0  0
 19 17  1  0  0  0  0
 21 22  2  0  0  0  0
 21 23  1  0  0  0  0
 23 24  1  0  0  0  0
 23 62  1  0  0  0  0
 24 25  1  1  0  0  0
 24 26  1  0  0  0  0
 24 31  1  0  0  0  0
 26 27  1  1  0  0  0
 26 28  1  0  0  0  0
 26 29  1  0  0  0  0
 28 63  1  0  0  0  0
 29 30  1  0  0  0  0
 29 64  1  0  0  0  0
 29 65  1  0  0  0  0
 30 31  2  0  0  0  0
 30 35  1  0  0  0  0
 31 32  1  0  0  0  0
 32 33  2  0  0  0  0
 32 66  1  0  0  0  0
 33 34  1  0  0  0  0
 33 67  1  0  0  0  0
 34 35  2  0  0  0  0
 34 68  1  0  0  0  0
 35 69  1  0  0  0  0
 36 37  1  0  0  0  0
 37 38  1  0  0  0  0
 37 70  1  0  0  0  0
 37 71  1  0  0  0  0
 38 39  2  0  0  0  0
 38 43  1  0  0  0  0
 39 40  1  0  0  0  0
 39 72  1  0  0  0  0
 40 41  2  0  0  0  0
 40 73  1  0  0  0  0
 41 42  1  0  0  0  0
 41 74  1  0  0  0  0
 42 43  2  0  0  0  0
 42 75  1  0  0  0  0
 43 76  1  0  0  0  0
 44 77  1  0  0  0  0
 45 78  1  0  0  0  0
 46 47  1  0  0  0  0
 47 48  1  0  0  0  0
 47 79  1  0  0  0  0
 47 80  1  0  0  0  0
 48 49  2  0  0  0  0
 48 53  1  0  0  0  0
 49 50  1  0  0  0  0
 49 81  1  0  0  0  0
 50 51  2  0  0  0  0
 50 82  1  0  0  0  0
 51 52  1  0  0  0  0
 51 83  1  0  0  0  0
 52 53  2  0  0  0  0
 52 84  1  0  0  0  0
 53 85  1  0  0  0  0
M  END
$$$$
