569
 OpenBabel04121316063D

 47 50  0  0  1  0  0  0  0  0999 V2000
    1.0568    0.0050    0.1180 N   0  0  0  0  0  0  0  0  0  0  0  0
    2.4011   -0.0138   -0.0082 C   0  0  0  0  0  0  0  0  0  0  0  0
    3.0507   -1.1295   -0.1284 N   0  0  0  0  0  0  0  0  0  0  0  0
    4.5088   -0.7438   -0.1209 C   0  0  2  0  0  0  0  0  0  0  0  0
    4.4185    0.7779   -0.3663 C   0  0  0  0  0  0  0  0  0  0  0  0
    5.3038    1.5557   -0.6693 O   0  0  0  0  0  0  0  0  0  0  0  0
    3.1359    1.1120   -0.0309 N   0  0  0  0  0  0  0  0  0  0  0  0
    2.7654    2.4458    0.3769 C   0  0  0  0  0  0  0  0  0  0  0  0
    5.2667   -1.5393   -1.1902 C   0  0  0  0  0  0  0  0  0  0  0  0
    6.0902   -0.9668   -2.1639 C   0  0  0  0  0  0  0  0  0  0  0  0
    6.5656   -1.7425   -3.2270 C   0  0  0  0  0  0  0  0  0  0  0  0
    6.3831   -3.1253   -3.2364 C   0  0  0  0  0  0  0  0  0  0  0  0
    5.7682   -3.7281   -2.1521 C   0  0  0  0  0  0  0  0  0  0  0  0
    5.1367   -2.9386   -1.2096 C   0  0  0  0  0  0  0  0  0  0  0  0
    6.8053   -3.7840   -4.3543 O   0  0  0  0  0  0  0  0  0  0  0  0
    6.5487   -5.1809   -4.3689 C   0  0  0  0  0  0  0  0  0  0  0  0
    7.2573   -5.8002   -3.3990 F   0  0  0  0  0  0  0  0  0  0  0  0
    5.2328   -5.4527   -4.2070 F   0  0  0  0  0  0  0  0  0  0  0  0
    6.9318   -5.6874   -5.5590 F   0  0  0  0  0  0  0  0  0  0  0  0
    5.0926   -1.0133    1.2890 C   0  0  0  0  0  0  0  0  0  0  0  0
    5.7189   -0.0159    2.0399 C   0  0  0  0  0  0  0  0  0  0  0  0
    6.2827   -0.3177    3.2679 C   0  0  0  0  0  0  0  0  0  0  0  0
    6.3814   -1.6410    3.6751 C   0  0  0  0  0  0  0  0  0  0  0  0
    5.7813   -2.6889    2.9665 C   0  0  0  0  0  0  0  0  0  0  0  0
    5.0267   -2.3040    1.8493 C   0  0  0  0  0  0  0  0  0  0  0  0
    5.9244   -4.1143    3.3292 C   0  0  0  0  0  0  0  0  0  0  0  0
    6.4688   -4.5549    4.5247 C   0  0  0  0  0  0  0  0  0  0  0  0
    6.5950   -5.8467    4.8977 N   0  0  0  0  0  0  0  0  0  0  0  0
    6.1563   -6.7488    4.0159 C   0  0  0  0  0  0  0  0  0  0  0  0
    5.6439   -6.4804    2.8109 N   0  0  0  0  0  0  0  0  0  0  0  0
    5.5561   -5.1686    2.4976 C   0  0  0  0  0  0  0  0  0  0  0  0
    7.0974   -1.8651    4.7837 F   0  0  0  0  0  0  0  0  0  0  0  0
    0.5878   -0.8640   -0.1178 H   0  0  0  0  0  0  0  0  0  0  0  0
    0.5267    0.8492   -0.0417 H   0  0  0  0  0  0  0  0  0  0  0  0
    3.6290    3.1181    0.3531 H   0  0  0  0  0  0  0  0  0  0  0  0
    2.3989    2.3937    1.4083 H   0  0  0  0  0  0  0  0  0  0  0  0
    1.9683    2.8221   -0.2641 H   0  0  0  0  0  0  0  0  0  0  0  0
    6.3483    0.0884   -2.1510 H   0  0  0  0  0  0  0  0  0  0  0  0
    7.0667   -1.2511   -4.0570 H   0  0  0  0  0  0  0  0  0  0  0  0
    5.6862   -4.8025   -2.0232 H   0  0  0  0  0  0  0  0  0  0  0  0
    4.5084   -3.4610   -0.4999 H   0  0  0  0  0  0  0  0  0  0  0  0
    5.7847    1.0115    1.6956 H   0  0  0  0  0  0  0  0  0  0  0  0
    6.6943    0.4646    3.8947 H   0  0  0  0  0  0  0  0  0  0  0  0
    4.3782   -3.0332    1.3769 H   0  0  0  0  0  0  0  0  0  0  0  0
    6.8403   -3.8681    5.2764 H   0  0  0  0  0  0  0  0  0  0  0  0
    6.2207   -7.7886    4.3087 H   0  0  0  0  0  0  0  0  0  0  0  0
    5.1627   -5.0083    1.4971 H   0  0  0  0  0  0  0  0  0  0  0  0
  1  2  1  0  0  0  0
  1 33  1  0  0  0  0
  1 34  1  0  0  0  0
  2  3  2  0  0  0  0
  2  7  1  0  0  0  0
  3  4  1  0  0  0  0
  4  5  1  0  0  0  0
  4  9  1  6  0  0  0
  4 20  1  0  0  0  0
  5  6  2  0  0  0  0
  5  7  1  0  0  0  0
  7  8  1  0  0  0  0
  8 35  1  0  0  0  0
  8 36  1  0  0  0  0
  8 37  1  0  0  0  0
  9 10  2  0  0  0  0
  9 14  1  0  0  0  0
 10 11  1  0  0  0  0
 10 38  1  0  0  0  0
 11 12  2  0  0  0  0
 11 39  1  0  0  0  0
 12 13  1  0  0  0  0
 12 15  1  0  0  0  0
 13 14  2  0  0  0  0
 13 40  1  0  0  0  0
 14 41  1  0  0  0  0
 15 16  1  0  0  0  0
 16 17  1  0  0  0  0
 16 18  1  0  0  0  0
 16 19  1  0  0  0  0
 20 21  2  0  0  0  0
 20 25  1  0  0  0  0
 21 22  1  0  0  0  0
 21 42  1  0  0  0  0
 22 23  2  0  0  0  0
 22 43  1  0  0  0  0
 23 24  1  0  0  0  0
 23 32  1  0  0  0  0
 24 25  2  0  0  0  0
 24 26  1  0  0  0  0
 25 44  1  0  0  0  0
 26 27  2  0  0  0  0
 26 31  1  0  0  0  0
 27 28  1  0  0  0  0
 27 45  1  0  0  0  0
 28 29  2  0  0  0  0
 29 30  1  0  0  0  0
 29 46  1  0  0  0  0
 30 31  2  0  0  0  0
 31 47  1  0  0  0  0
M  END
$$$$
