576
 OpenBabel04121316063D

 39 41  0  0  1  0  0  0  0  0999 V2000
    5.9665    1.1598   -1.2928 O   0  0  0  0  0  0  0  0  0  0  0  0
    5.3328    0.0940   -1.8079 C   0  0  0  0  0  0  0  0  0  0  0  0
    4.9442    0.1198   -2.9711 O   0  0  0  0  0  0  0  0  0  0  0  0
    5.1249   -1.0614   -0.8473 C   0  0  0  0  0  0  0  0  0  0  0  0
    4.6334   -0.8102    0.5927 C   0  0  2  0  0  0  0  0  0  0  0  0
    3.5691   -1.0540    0.6939 H   0  0  0  0  0  0  0  0  0  0  0  0
    4.8650    0.5881    1.1206 C   0  0  0  0  0  0  0  0  0  0  0  0
    3.9462    1.6297    0.4669 C   0  0  0  0  0  0  0  0  0  0  0  0
    4.4490    3.0406    0.6460 C   0  0  0  0  0  0  0  0  0  0  0  0
    5.4939    3.3541    1.5487 C   0  0  0  0  0  0  0  0  0  0  0  0
    5.8385    4.6666    1.8434 C   0  0  0  0  0  0  0  0  0  0  0  0
    5.1374    5.6678    1.2114 C   0  0  0  0  0  0  0  0  0  0  0  0
    4.1548    5.3670    0.2445 C   0  0  0  0  0  0  0  0  0  0  0  0
    3.8184    4.0649   -0.0683 C   0  0  0  0  0  0  0  0  0  0  0  0
    3.5334    6.6408   -0.2835 C   0  0  0  0  0  0  0  0  0  0  0  0
    4.2691    7.6977    0.5137 C   0  0  0  0  0  0  0  0  0  0  0  0
    5.2043    7.0965    1.3817 C   0  0  0  0  0  0  0  0  0  0  0  0
    5.9858    7.8606    2.2298 C   0  0  0  0  0  0  0  0  0  0  0  0
    5.8323    9.2468    2.1937 C   0  0  0  0  0  0  0  0  0  0  0  0
    4.9049    9.8448    1.3228 C   0  0  0  0  0  0  0  0  0  0  0  0
    4.1107    9.0699    0.4740 C   0  0  0  0  0  0  0  0  0  0  0  0
    5.3368   -1.7260    1.4510 O   0  0  0  0  0  0  0  0  0  0  0  0
    5.6202    1.9589   -1.7504 H   0  0  0  0  0  0  0  0  0  0  0  0
    6.0607   -1.6276   -0.8355 H   0  0  0  0  0  0  0  0  0  0  0  0
    4.3710   -1.7115   -1.3102 H   0  0  0  0  0  0  0  0  0  0  0  0
    5.9355    0.7969    0.9892 H   0  0  0  0  0  0  0  0  0  0  0  0
    4.7174    0.6306    2.2076 H   0  0  0  0  0  0  0  0  0  0  0  0
    2.9380    1.5347    0.8849 H   0  0  0  0  0  0  0  0  0  0  0  0
    3.7840    1.4590   -0.6023 H   0  0  0  0  0  0  0  0  0  0  0  0
    6.0577    2.5797    2.0617 H   0  0  0  0  0  0  0  0  0  0  0  0
    6.6108    4.8737    2.5748 H   0  0  0  0  0  0  0  0  0  0  0  0
    3.0595    3.8500   -0.8149 H   0  0  0  0  0  0  0  0  0  0  0  0
    2.4634    6.6558   -0.0561 H   0  0  0  0  0  0  0  0  0  0  0  0
    3.7222    6.7492   -1.3549 H   0  0  0  0  0  0  0  0  0  0  0  0
    6.6978    7.4017    2.9074 H   0  0  0  0  0  0  0  0  0  0  0  0
    6.4379    9.8699    2.8468 H   0  0  0  0  0  0  0  0  0  0  0  0
    4.8057   10.9272    1.3120 H   0  0  0  0  0  0  0  0  0  0  0  0
    3.3932    9.5332   -0.1938 H   0  0  0  0  0  0  0  0  0  0  0  0
    5.0949   -1.5377    2.3754 H   0  0  0  0  0  0  0  0  0  0  0  0
  1  2  1  0  0  0  0
  1 23  1  0  0  0  0
  2  3  2  0  0  0  0
  2  4  1  0  0  0  0
  4 24  1  0  0  0  0
  4 25  1  0  0  0  0
  5  7  1  0  0  0  0
  5 22  1  0  0  0  0
  5  6  1  1  0  0  0
  5  4  1  0  0  0  0
  7  8  1  0  0  0  0
  7 26  1  0  0  0  0
  7 27  1  0  0  0  0
  8  9  1  0  0  0  0
  8 28  1  0  0  0  0
  8 29  1  0  0  0  0
  9 10  2  0  0  0  0
  9 14  1  0  0  0  0
 10 11  1  0  0  0  0
 10 30  1  0  0  0  0
 11 12  2  0  0  0  0
 11 31  1  0  0  0  0
 12 13  1  0  0  0  0
 12 17  1  0  0  0  0
 13 14  2  0  0  0  0
 13 15  1  0  0  0  0
 14 32  1  0  0  0  0
 15 16  1  0  0  0  0
 15 33  1  0  0  0  0
 15 34  1  0  0  0  0
 16 17  2  0  0  0  0
 16 21  1  0  0  0  0
 17 18  1  0  0  0  0
 18 19  2  0  0  0  0
 18 35  1  0  0  0  0
 19 20  1  0  0  0  0
 19 36  1  0  0  0  0
 20 21  2  0  0  0  0
 20 37  1  0  0  0  0
 21 38  1  0  0  0  0
 22 39  1  0  0  0  0
M  END
$$$$
