57D
 OpenBabel04121316063D

 29 31  0  0  0  0  0  0  0  0999 V2000
    0.9393    0.1424    0.0495 O   0  0  0  0  0  0  0  0  0  0  0  0
    2.3020    0.0635    0.0512 C   0  0  0  0  0  0  0  0  0  0  0  0
    2.9463   -1.1731    0.0524 C   0  0  0  0  0  0  0  0  0  0  0  0
    4.3364   -1.2081    0.0583 C   0  0  0  0  0  0  0  0  0  0  0  0
    4.9891   -2.4064    0.0660 O   0  0  0  0  0  0  0  0  0  0  0  0
    5.0706   -0.0178    0.0621 C   0  0  0  0  0  0  0  0  0  0  0  0
    4.4187    1.2220    0.0632 C   0  0  0  0  0  0  0  0  0  0  0  0
    3.0218    1.2604    0.0551 C   0  0  0  0  0  0  0  0  0  0  0  0
    5.0965    2.4269    0.0763 O   0  0  0  0  0  0  0  0  0  0  0  0
    6.4906    2.3956    0.0997 C   0  0  0  0  0  0  0  0  0  0  0  0
    7.1962    1.2577    0.1057 C   0  0  0  0  0  0  0  0  0  0  0  0
    6.5369   -0.0369    0.0724 C   0  0  0  0  0  0  0  0  0  0  0  0
    7.2405   -1.0433    0.0526 O   0  0  0  0  0  0  0  0  0  0  0  0
    7.1978    3.7023    0.0773 C   0  0  0  0  0  0  0  0  0  0  0  0
    6.5295    4.9135    0.2938 C   0  0  0  0  0  0  0  0  0  0  0  0
    7.1925    6.1341    0.1052 C   0  0  0  0  0  0  0  0  0  0  0  0
    8.5569    6.1633   -0.1798 C   0  0  0  0  0  0  0  0  0  0  0  0
    9.2653    4.9767   -0.2657 C   0  0  0  0  0  0  0  0  0  0  0  0
    8.5799    3.7681   -0.2000 C   0  0  0  0  0  0  0  0  0  0  0  0
    0.5644   -0.7546    0.0513 H   0  0  0  0  0  0  0  0  0  0  0  0
    2.3810   -2.0980    0.0501 H   0  0  0  0  0  0  0  0  0  0  0  0
    4.3788   -3.1561    0.0720 H   0  0  0  0  0  0  0  0  0  0  0  0
    2.4888    2.2079    0.0545 H   0  0  0  0  0  0  0  0  0  0  0  0
    8.2716    1.1831    0.1223 H   0  0  0  0  0  0  0  0  0  0  0  0
    5.4854    4.9282    0.5982 H   0  0  0  0  0  0  0  0  0  0  0  0
    6.6428    7.0684    0.1809 H   0  0  0  0  0  0  0  0  0  0  0  0
    9.0710    7.1071   -0.3330 H   0  0  0  0  0  0  0  0  0  0  0  0
   10.3422    4.9737   -0.4094 H   0  0  0  0  0  0  0  0  0  0  0  0
    9.1716    2.8782   -0.3911 H   0  0  0  0  0  0  0  0  0  0  0  0
  1  2  1  0  0  0  0
  1 20  1  0  0  0  0
  2  3  2  0  0  0  0
  2  8  1  0  0  0  0
  3  4  1  0  0  0  0
  3 21  1  0  0  0  0
  4  5  1  0  0  0  0
  4  6  2  0  0  0  0
  5 22  1  0  0  0  0
  6  7  1  0  0  0  0
  6 12  1  0  0  0  0
  7  8  2  0  0  0  0
  7  9  1  0  0  0  0
  8 23  1  0  0  0  0
  9 10  1  0  0  0  0
 10 11  2  0  0  0  0
 10 14  1  0  0  0  0
 11 12  1  0  0  0  0
 11 24  1  0  0  0  0
 12 13  2  0  0  0  0
 14 15  2  0  0  0  0
 14 19  1  0  0  0  0
 15 16  1  0  0  0  0
 15 25  1  0  0  0  0
 16 17  2  0  0  0  0
 16 26  1  0  0  0  0
 17 18  1  0  0  0  0
 17 27  1  0  0  0  0
 18 19  2  0  0  0  0
 18 28  1  0  0  0  0
 19 29  1  0  0  0  0
M  END
$$$$
