586
 OpenBabel04121316063D

111114  0  0  1  0  0  0  0  0999 V2000
   -0.2886    1.0737    0.3413 C   0  0  0  0  0  0  0  0  0  0  0  0
    0.0254   -0.0420    1.1439 O   0  0  0  0  0  0  0  0  0  0  0  0
    1.0054    0.3378    2.1137 C   0  0  1  0  0  0  0  0  0  0  0  0
    1.8677    0.7300    1.5549 H   0  0  0  0  0  0  0  0  0  0  0  0
    0.6404    1.3816    3.1766 C   0  0  0  0  0  0  0  0  0  0  0  0
    0.5143    1.1768    4.3851 O   0  0  0  0  0  0  0  0  0  0  0  0
    0.9103    2.6686    2.8359 N   0  0  0  0  0  0  0  0  0  0  0  0
    0.4268    3.5205    1.7589 C   0  0  2  0  0  0  0  0  0  0  0  0
    0.9000    2.9925    0.9216 H   0  0  0  0  0  0  0  0  0  0  0  0
    1.0158    4.8862    1.2292 C   0  0  0  0  0  0  0  0  0  0  0  0
    0.3213    5.7114    0.6374 O   0  0  0  0  0  0  0  0  0  0  0  0
    2.3939    5.0031    1.2126 N   0  0  0  0  0  0  0  0  0  0  0  0
    2.9974    6.2760    0.8451 C   0  0  0  0  0  0  0  0  0  0  0  0
    4.5002    6.2865    0.9150 C   0  0  0  0  0  0  0  0  0  0  0  0
    5.1771    7.5158    0.9485 C   0  0  0  0  0  0  0  0  0  0  0  0
    6.5566    7.5566    0.7517 C   0  0  0  0  0  0  0  0  0  0  0  0
    7.2837    6.3705    0.6721 C   0  0  0  0  0  0  0  0  0  0  0  0
    6.6388    5.1470    0.8029 C   0  0  0  0  0  0  0  0  0  0  0  0
    5.2519    5.1063    0.8466 C   0  0  0  0  0  0  0  0  0  0  0  0
   -1.1928    3.4940    1.8367 C   0  0  0  0  0  0  0  0  0  0  0  0
   -2.0002    2.2099    2.4131 C   0  0  0  0  0  0  0  0  0  0  0  0
   -1.6815    4.5585    2.7940 C   0  0  0  0  0  0  0  0  0  0  0  0
    1.4737   -0.8627    2.8858 C   0  0  0  0  0  0  0  0  0  0  0  0
    2.9273   -0.7354    3.3614 C   0  0  1  0  0  0  0  0  0  0  0  0
    3.6006   -0.5931    2.5097 H   0  0  0  0  0  0  0  0  0  0  0  0
    3.2833    0.3840    4.4485 C   0  0  1  0  0  0  0  0  0  0  0  0
    2.6249    0.2676    5.3182 H   0  0  0  0  0  0  0  0  0  0  0  0
    4.6112    0.1680    4.9367 N   0  0  0  0  0  0  0  0  0  0  0  0
    4.9738   -0.9303    5.6766 C   0  0  0  0  0  0  0  0  0  0  0  0
    4.3558   -1.8833    6.0344 O   0  0  0  0  0  0  0  0  0  0  0  0
    6.3602   -0.8065    6.0631 C   0  0  0  0  0  0  0  0  0  0  0  0
    6.7727    0.4259    6.5546 C   0  0  0  0  0  0  0  0  0  0  0  0
    8.0854    0.5533    6.8489 C   0  0  0  0  0  0  0  0  0  0  0  0
    8.8644   -0.5755    6.7515 C   0  0  0  0  0  0  0  0  0  0  0  0
    8.5084   -1.8164    6.2711 C   0  0  0  0  0  0  0  0  0  0  0  0
    7.1925   -1.9124    5.8725 C   0  0  0  0  0  0  0  0  0  0  0  0
    9.4758   -2.8762    6.1479 N   0  0  0  0  0  0  0  0  0  0  0  0
   11.1058   -2.8655    6.6489 S   0  0  0  0  0  0  0  0  0  0  0  0
   11.2188   -3.8215    7.7317 O   0  0  0  0  0  0  0  0  0  0  0  0
   11.9026   -3.0257    5.4485 O   0  0  0  0  0  0  0  0  0  0  0  0
   11.6120   -1.2901    7.3480 C   0  0  0  0  0  0  0  0  0  0  0  0
    9.0472   -4.1850    5.5827 C   0  0  0  0  0  0  0  0  0  0  0  0
    8.6670    1.8559    7.2072 C   0  0  0  0  0  0  0  0  0  0  0  0
    7.9917    2.8549    6.9847 O   0  0  0  0  0  0  0  0  0  0  0  0
    9.9085    1.8695    7.8171 N   0  0  0  0  0  0  0  0  0  0  0  0
   10.4302    3.0514    8.4833 C   0  0  1  0  0  0  0  0  0  0  0  0
   10.3198    3.8800    7.7772 H   0  0  0  0  0  0  0  0  0  0  0  0
    9.6654    3.3563    9.7712 C   0  0  0  0  0  0  0  0  0  0  0  0
   10.2944    3.9736   10.8573 C   0  0  0  0  0  0  0  0  0  0  0  0
    9.6426    4.0855   12.0848 C   0  0  0  0  0  0  0  0  0  0  0  0
    8.2959    3.7585   12.2028 C   0  0  0  0  0  0  0  0  0  0  0  0
    7.6012    3.3204   11.0953 C   0  0  0  0  0  0  0  0  0  0  0  0
    8.3003    3.0527    9.9299 C   0  0  0  0  0  0  0  0  0  0  0  0
   11.9286    2.8123    8.7643 C   0  0  0  0  0  0  0  0  0  0  0  0
    3.3645    1.8755    3.9337 C   0  0  0  0  0  0  0  0  0  0  0  0
    3.0098    2.8661    4.9626 O   0  0  0  0  0  0  0  0  0  0  0  0
    2.8253    4.2064    4.6628 C   0  0  0  0  0  0  0  0  0  0  0  0
    1.5737    4.7979    4.3895 C   0  0  0  0  0  0  0  0  0  0  0  0
    1.4224    6.1007    3.9444 C   0  0  0  0  0  0  0  0  0  0  0  0
    0.2919    6.4853    3.3468 F   0  0  0  0  0  0  0  0  0  0  0  0
    2.4499    6.9733    4.0560 C   0  0  0  0  0  0  0  0  0  0  0  0
    3.6121    6.4912    4.6328 C   0  0  0  0  0  0  0  0  0  0  0  0
    3.8261    5.1215    4.9090 C   0  0  0  0  0  0  0  0  0  0  0  0
    4.5493    7.3821    4.9611 F   0  0  0  0  0  0  0  0  0  0  0  0
    3.2017   -2.0560    3.8449 O   0  0  0  0  0  0  0  0  0  0  0  0
   -1.3113    1.2355   -0.0114 H   0  0  0  0  0  0  0  0  0  0  0  0
    0.4959    1.4670   -0.3046 H   0  0  0  0  0  0  0  0  0  0  0  0
   -0.3191    1.7681    1.1103 H   0  0  0  0  0  0  0  0  0  0  0  0
    1.1621    2.9970    3.7370 H   0  0  0  0  0  0  0  0  0  0  0  0
    2.9622    4.3065    1.6690 H   0  0  0  0  0  0  0  0  0  0  0  0
    2.5958    7.0406    1.5138 H   0  0  0  0  0  0  0  0  0  0  0  0
    2.6718    6.5541   -0.1640 H   0  0  0  0  0  0  0  0  0  0  0  0
    4.6339    8.4495    1.0898 H   0  0  0  0  0  0  0  0  0  0  0  0
    7.0646    8.5122    0.6510 H   0  0  0  0  0  0  0  0  0  0  0  0
    8.3555    6.3973    0.5038 H   0  0  0  0  0  0  0  0  0  0  0  0
    7.2033    4.2202    0.8287 H   0  0  0  0  0  0  0  0  0  0  0  0
    4.7760    4.1337    0.7974 H   0  0  0  0  0  0  0  0  0  0  0  0
   -1.5425    3.7266    0.8227 H   0  0  0  0  0  0  0  0  0  0  0  0
   -1.6955    1.9728    3.4373 H   0  0  0  0  0  0  0  0  0  0  0  0
   -1.9672    1.2435    1.9017 H   0  0  0  0  0  0  0  0  0  0  0  0
   -3.0759    2.4032    2.4200 H   0  0  0  0  0  0  0  0  0  0  0  0
   -1.3165    4.3374    3.7996 H   0  0  0  0  0  0  0  0  0  0  0  0
   -2.7710    4.5409    2.8375 H   0  0  0  0  0  0  0  0  0  0  0  0
   -1.3902    5.5532    2.4810 H   0  0  0  0  0  0  0  0  0  0  0  0
    1.3718   -1.7350    2.2340 H   0  0  0  0  0  0  0  0  0  0  0  0
    0.8226   -1.0815    3.7450 H   0  0  0  0  0  0  0  0  0  0  0  0
    5.2410    0.9530    4.8706 H   0  0  0  0  0  0  0  0  0  0  0  0
    6.0976    1.2671    6.6828 H   0  0  0  0  0  0  0  0  0  0  0  0
    9.8250   -0.3884    7.0796 H   0  0  0  0  0  0  0  0  0  0  0  0
    6.7426   -2.7888    5.4188 H   0  0  0  0  0  0  0  0  0  0  0  0
   11.0243   -1.1067    8.2581 H   0  0  0  0  0  0  0  0  0  0  0  0
   11.5370   -0.5209    6.5669 H   0  0  0  0  0  0  0  0  0  0  0  0
   12.6520   -1.2886    7.6588 H   0  0  0  0  0  0  0  0  0  0  0  0
    8.0068   -4.2203    5.2604 H   0  0  0  0  0  0  0  0  0  0  0  0
    9.1497   -4.9768    6.3292 H   0  0  0  0  0  0  0  0  0  0  0  0
    9.6335   -4.4160    4.6894 H   0  0  0  0  0  0  0  0  0  0  0  0
   10.4717    1.0491    7.9441 H   0  0  0  0  0  0  0  0  0  0  0  0
   11.3111    4.3485   10.7902 H   0  0  0  0  0  0  0  0  0  0  0  0
   10.1939    4.4337   12.9511 H   0  0  0  0  0  0  0  0  0  0  0  0
    7.7831    3.8468   13.1522 H   0  0  0  0  0  0  0  0  0  0  0  0
    6.5303    3.1429   11.1169 H   0  0  0  0  0  0  0  0  0  0  0  0
    7.7024    2.5775    9.1686 H   0  0  0  0  0  0  0  0  0  0  0  0
   12.4774    2.5186    7.8639 H   0  0  0  0  0  0  0  0  0  0  0  0
   12.0688    2.0138    9.5072 H   0  0  0  0  0  0  0  0  0  0  0  0
   12.4131    3.7142    9.1493 H   0  0  0  0  0  0  0  0  0  0  0  0
    2.7245    1.8952    3.0980 H   0  0  0  0  0  0  0  0  0  0  0  0
    4.2893    2.1250    3.3943 H   0  0  0  0  0  0  0  0  0  0  0  0
    0.6118    4.3069    4.4525 H   0  0  0  0  0  0  0  0  0  0  0  0
    2.2948    7.9900    3.7243 H   0  0  0  0  0  0  0  0  0  0  0  0
    4.7419    4.8088    5.3947 H   0  0  0  0  0  0  0  0  0  0  0  0
    3.0457   -2.7158    3.1522 H   0  0  0  0  0  0  0  0  0  0  0  0
  1  2  1  0  0  0  0
  1 66  1  0  0  0  0
  1 67  1  0  0  0  0
  1 68  1  0  0  0  0
  2  3  1  0  0  0  0
  3  4  1  6  0  0  0
  3  5  1  0  0  0  0
  3 23  1  0  0  0  0
  5  6  2  0  0  0  0
  5  7  1  0  0  0  0
  7 69  1  0  0  0  0
  8 10  1  0  0  0  0
  8 20  1  0  0  0  0
  8  9  1  6  0  0  0
  8  7  1  0  0  0  0
 10 11  2  0  0  0  0
 10 12  1  0  0  0  0
 12 13  1  0  0  0  0
 12 70  1  0  0  0  0
 13 14  1  0  0  0  0
 13 71  1  0  0  0  0
 13 72  1  0  0  0  0
 14 15  2  0  0  0  0
 14 19  1  0  0  0  0
 15 16  1  0  0  0  0
 15 73  1  0  0  0  0
 16 17  2  0  0  0  0
 16 74  1  0  0  0  0
 17 18  1  0  0  0  0
 17 75  1  0  0  0  0
 18 19  2  0  0  0  0
 18 76  1  0  0  0  0
 19 77  1  0  0  0  0
 20 21  1  0  0  0  0
 20 22  1  0  0  0  0
 20 78  1  0  0  0  0
 21 79  1  0  0  0  0
 21 80  1  0  0  0  0
 21 81  1  0  0  0  0
 22 82  1  0  0  0  0
 22 83  1  0  0  0  0
 22 84  1  0  0  0  0
 23 24  1  0  0  0  0
 23 85  1  0  0  0  0
 23 86  1  0  0  0  0
 24 25  1  6  0  0  0
 24 26  1  0  0  0  0
 24 65  1  0  0  0  0
 26 27  1  1  0  0  0
 26 28  1  0  0  0  0
 26 55  1  0  0  0  0
 28 29  1  0  0  0  0
 28 87  1  0  0  0  0
 29 30  2  0  0  0  0
 29 31  1  0  0  0  0
 31 32  2  0  0  0  0
 31 36  1  0  0  0  0
 32 33  1  0  0  0  0
 32 88  1  0  0  0  0
 33 34  2  0  0  0  0
 33 43  1  0  0  0  0
 34 35  1  0  0  0  0
 34 89  1  0  0  0  0
 35 36  2  0  0  0  0
 35 37  1  0  0  0  0
 36 90  1  0  0  0  0
 37 38  1  0  0  0  0
 37 42  1  0  0  0  0
 38 39  2  0  0  0  0
 38 40  2  0  0  0  0
 38 41  1  0  0  0  0
 41 91  1  0  0  0  0
 41 92  1  0  0  0  0
 41 93  1  0  0  0  0
 42 94  1  0  0  0  0
 42 95  1  0  0  0  0
 42 96  1  0  0  0  0
 43 44  2  0  0  0  0
 43 45  1  0  0  0  0
 45 46  1  0  0  0  0
 45 97  1  0  0  0  0
 46 47  1  6  0  0  0
 46 48  1  0  0  0  0
 46 54  1  0  0  0  0
 48 49  2  0  0  0  0
 48 53  1  0  0  0  0
 49 50  1  0  0  0  0
 49 98  1  0  0  0  0
 50 51  2  0  0  0  0
 50 99  1  0  0  0  0
 51 52  1  0  0  0  0
 51100  1  0  0  0  0
 52 53  2  0  0  0  0
 52101  1  0  0  0  0
 53102  1  0  0  0  0
 54103  1  0  0  0  0
 54104  1  0  0  0  0
 54105  1  0  0  0  0
 55 56  1  0  0  0  0
 55106  1  0  0  0  0
 55107  1  0  0  0  0
 56 57  1  0  0  0  0
 57 58  2  0  0  0  0
 57 63  1  0  0  0  0
 58 59  1  0  0  0  0
 58108  1  0  0  0  0
 59 60  1  0  0  0  0
 59 61  2  0  0  0  0
 61 62  1  0  0  0  0
 61109  1  0  0  0  0
 62 63  2  0  0  0  0
 62 64  1  0  0  0  0
 63110  1  0  0  0  0
 65111  1  0  0  0  0
M  END
$$$$
