599
 OpenBabel04121316063D

 68 72  0  0  0  0  0  0  0  0999 V2000
    1.0359   -0.0107    0.0889 O   0  0  0  0  0  0  0  0  0  0  0  0
    2.4557    0.0552    0.0355 C   0  0  0  0  0  0  0  0  0  0  0  0
    2.9627    1.1795   -0.9246 C   0  0  0  0  0  0  0  0  0  0  0  0
    2.2083    1.9446   -1.5186 O   0  0  0  0  0  0  0  0  0  0  0  0
    4.3328    1.3200   -1.0142 N   0  0  0  0  0  0  0  0  0  0  0  0
    5.1066    0.2145   -1.4991 C   0  0  0  0  0  0  0  0  0  0  0  0
    6.0495   -0.1442   -0.4119 C   0  0  0  0  0  0  0  0  0  0  0  0
    6.7803    1.0302    0.1186 C   0  0  0  0  0  0  0  0  0  0  0  0
    6.3498    2.3325   -0.0218 C   0  0  0  0  0  0  0  0  0  0  0  0
    5.0748    2.6082   -0.8340 C   0  0  0  0  0  0  0  0  0  0  0  0
    7.3596    3.1178    0.6795 C   0  0  0  0  0  0  0  0  0  0  0  0
    8.3114    2.2789    1.1989 N   0  0  0  0  0  0  0  0  0  0  0  0
    7.9219    1.0042    0.8621 N   0  0  0  0  0  0  0  0  0  0  0  0
    8.6668   -0.2220    1.2644 C   0  0  0  0  0  0  0  0  0  0  0  0
    8.0593   -1.5240    0.7102 C   0  0  0  0  0  0  0  0  0  0  0  0
    8.6136   -2.8914    0.9829 C   0  0  0  0  0  0  0  0  0  0  0  0
    7.6071   -3.8396    0.4216 N   0  0  0  0  0  0  0  0  0  0  0  0
    8.0866   -4.7138   -0.6804 C   0  0  0  0  0  0  0  0  0  0  0  0
    9.1171   -5.7536   -0.2218 C   0  0  0  0  0  0  0  0  0  0  0  0
    8.6097   -6.5449    0.8620 O   0  0  0  0  0  0  0  0  0  0  0  0
    8.2034   -5.7084    1.9519 C   0  0  0  0  0  0  0  0  0  0  0  0
    7.1202   -4.7134    1.5101 C   0  0  0  0  0  0  0  0  0  0  0  0
    7.4314    4.6226    0.8282 C   0  0  0  0  0  0  0  0  0  0  0  0
    6.2575    5.4002    0.8299 C   0  0  0  0  0  0  0  0  0  0  0  0
    6.2778    6.8097    0.8730 C   0  0  0  0  0  0  0  0  0  0  0  0
    7.4828    7.4935    0.7883 C   0  0  0  0  0  0  0  0  0  0  0  0
    8.6735    6.7634    0.8242 C   0  0  0  0  0  0  0  0  0  0  0  0
    8.6433    5.3444    0.9256 C   0  0  0  0  0  0  0  0  0  0  0  0
    9.9337    7.4540    0.7060 C   0  0  0  0  0  0  0  0  0  0  0  0
   10.9349    8.0806    0.5614 C   0  0  0  0  0  0  0  0  0  0  0  0
   12.1486    8.8132    0.3385 C   0  0  0  0  0  0  0  0  0  0  0  0
   12.1702   10.2078    0.4078 C   0  0  0  0  0  0  0  0  0  0  0  0
   13.3209   10.8998    0.0213 C   0  0  0  0  0  0  0  0  0  0  0  0
   14.4787   10.1900   -0.2928 C   0  0  0  0  0  0  0  0  0  0  0  0
   14.4985    8.7990   -0.2126 C   0  0  0  0  0  0  0  0  0  0  0  0
   13.3119    8.1088    0.0299 C   0  0  0  0  0  0  0  0  0  0  0  0
   15.8838   11.0326   -0.8158 Cl  0  0  0  0  0  0  0  0  0  0  0  0
    7.4409    9.2188    0.6114 Cl  0  0  0  0  0  0  0  0  0  0  0  0
    0.7745   -0.6554    0.7653 H   0  0  0  0  0  0  0  0  0  0  0  0
    2.8274   -0.9356   -0.2459 H   0  0  0  0  0  0  0  0  0  0  0  0
    2.8179    0.2856    1.0462 H   0  0  0  0  0  0  0  0  0  0  0  0
    5.6674    0.5088   -2.3963 H   0  0  0  0  0  0  0  0  0  0  0  0
    4.5204   -0.6772   -1.7483 H   0  0  0  0  0  0  0  0  0  0  0  0
    6.6759   -0.8347   -0.9465 H   0  0  0  0  0  0  0  0  0  0  0  0
    5.4888   -0.5994    0.4124 H   0  0  0  0  0  0  0  0  0  0  0  0
    5.3477    2.9619   -1.8342 H   0  0  0  0  0  0  0  0  0  0  0  0
    4.4059    3.3106   -0.3419 H   0  0  0  0  0  0  0  0  0  0  0  0
    8.6712   -0.2609    2.3574 H   0  0  0  0  0  0  0  0  0  0  0  0
    9.6842   -0.1285    0.8781 H   0  0  0  0  0  0  0  0  0  0  0  0
    8.1560   -1.4696   -0.3765 H   0  0  0  0  0  0  0  0  0  0  0  0
    7.0270   -1.5831    1.0769 H   0  0  0  0  0  0  0  0  0  0  0  0
    8.6980   -2.9764    2.0682 H   0  0  0  0  0  0  0  0  0  0  0  0
    9.5976   -2.9786    0.5221 H   0  0  0  0  0  0  0  0  0  0  0  0
    8.4803   -4.1307   -1.5215 H   0  0  0  0  0  0  0  0  0  0  0  0
    7.2192   -5.2612   -1.0850 H   0  0  0  0  0  0  0  0  0  0  0  0
   10.0450   -5.2623    0.0874 H   0  0  0  0  0  0  0  0  0  0  0  0
    9.3572   -6.4345   -1.0454 H   0  0  0  0  0  0  0  0  0  0  0  0
    9.0877   -5.1921    2.3450 H   0  0  0  0  0  0  0  0  0  0  0  0
    7.8145   -6.3433    2.7509 H   0  0  0  0  0  0  0  0  0  0  0  0
    6.7987   -4.0927    2.3548 H   0  0  0  0  0  0  0  0  0  0  0  0
    6.2272   -5.2508    1.1673 H   0  0  0  0  0  0  0  0  0  0  0  0
    5.2833    4.9269    0.8058 H   0  0  0  0  0  0  0  0  0  0  0  0
    5.3466    7.3679    0.9484 H   0  0  0  0  0  0  0  0  0  0  0  0
    9.5869    4.8175    1.0552 H   0  0  0  0  0  0  0  0  0  0  0  0
   11.2950   10.7614    0.7404 H   0  0  0  0  0  0  0  0  0  0  0  0
   13.3079   11.9850   -0.0352 H   0  0  0  0  0  0  0  0  0  0  0  0
   15.4222    8.2469   -0.3554 H   0  0  0  0  0  0  0  0  0  0  0  0
   13.2946    7.0227   -0.0233 H   0  0  0  0  0  0  0  0  0  0  0  0
  1  2  1  0  0  0  0
  1 39  1  0  0  0  0
  2  3  1  0  0  0  0
  2 40  1  0  0  0  0
  2 41  1  0  0  0  0
  3  4  2  0  0  0  0
  3  5  1  0  0  0  0
  5  6  1  0  0  0  0
  5 10  1  0  0  0  0
  6  7  1  0  0  0  0
  6 42  1  0  0  0  0
  6 43  1  0  0  0  0
  7  8  1  0  0  0  0
  7 44  1  0  0  0  0
  7 45  1  0  0  0  0
  8  9  2  0  0  0  0
  8 13  1  0  0  0  0
  9 10  1  0  0  0  0
  9 11  1  0  0  0  0
 10 46  1  0  0  0  0
 10 47  1  0  0  0  0
 11 12  2  0  0  0  0
 11 23  1  0  0  0  0
 12 13  1  0  0  0  0
 13 14  1  0  0  0  0
 14 15  1  0  0  0  0
 14 48  1  0  0  0  0
 14 49  1  0  0  0  0
 15 16  1  0  0  0  0
 15 50  1  0  0  0  0
 15 51  1  0  0  0  0
 16 17  1  0  0  0  0
 16 52  1  0  0  0  0
 16 53  1  0  0  0  0
 17 18  1  0  0  0  0
 17 22  1  0  0  0  0
 18 19  1  0  0  0  0
 18 54  1  0  0  0  0
 18 55  1  0  0  0  0
 19 20  1  0  0  0  0
 19 56  1  0  0  0  0
 19 57  1  0  0  0  0
 20 21  1  0  0  0  0
 21 22  1  0  0  0  0
 21 58  1  0  0  0  0
 21 59  1  0  0  0  0
 22 60  1  0  0  0  0
 22 61  1  0  0  0  0
 23 24  2  0  0  0  0
 23 28  1  0  0  0  0
 24 25  1  0  0  0  0
 24 62  1  0  0  0  0
 25 26  2  0  0  0  0
 25 63  1  0  0  0  0
 26 27  1  0  0  0  0
 26 38  1  0  0  0  0
 27 28  2  0  0  0  0
 27 29  1  0  0  0  0
 28 64  1  0  0  0  0
 29 30  3  0  0  0  0
 30 31  1  0  0  0  0
 31 32  2  0  0  0  0
 31 36  1  0  0  0  0
 32 33  1  0  0  0  0
 32 65  1  0  0  0  0
 33 34  2  0  0  0  0
 33 66  1  0  0  0  0
 34 35  1  0  0  0  0
 34 37  1  0  0  0  0
 35 36  2  0  0  0  0
 35 67  1  0  0  0  0
 36 68  1  0  0  0  0
M  END
$$$$
