5AC
 OpenBabel04121316063D

 15 15  0  0  0  0  0  0  0  0999 V2000
    0.9626    0.0601    0.0165 N   0  0  0  0  0  0  0  0  0  0  0  0
    2.3245   -0.0245    0.0157 C   0  0  0  0  0  0  0  0  0  0  0  0
    2.9061   -0.9272   -0.5826 O   0  0  0  0  0  0  0  0  0  0  0  0
    2.9896    0.9613    0.8540 C   0  0  0  0  0  0  0  0  0  0  0  0
    2.6898    2.3164    0.8709 N   0  0  0  0  0  0  0  0  0  0  0  0
    3.5110    2.8373    1.7565 C   0  0  0  0  0  0  0  0  0  0  0  0
    4.2722    1.8780    2.3672 N   0  0  0  0  0  0  0  0  0  0  0  0
    4.9372    2.0302    3.1101 H   0  0  0  0  0  0  0  0  0  0  0  0
    3.9482    0.6745    1.8078 C   0  0  0  0  0  0  0  0  0  0  0  0
    4.4856   -0.4839    2.2255 N   0  0  0  0  0  0  0  0  0  0  0  0
    0.4427   -0.6551   -0.4676 H   0  0  0  0  0  0  0  0  0  0  0  0
    0.4928    0.7314    0.6084 H   0  0  0  0  0  0  0  0  0  0  0  0
    3.5925    3.8870    2.0083 H   0  0  0  0  0  0  0  0  0  0  0  0
    5.2174   -0.5836    2.9194 H   0  0  0  0  0  0  0  0  0  0  0  0
    4.2695   -1.3444    1.7168 H   0  0  0  0  0  0  0  0  0  0  0  0
  1  2  1  0  0  0  0
  1 11  1  0  0  0  0
  1 12  1  0  0  0  0
  2  3  2  0  0  0  0
  2  4  1  0  0  0  0
  4  5  1  0  0  0  0
  4  9  2  0  0  0  0
  5  6  2  0  0  0  0
  6  7  1  0  0  0  0
  6 13  1  0  0  0  0
  7  8  1  0  0  0  0
  7  9  1  0  0  0  0
  9 10  1  0  0  0  0
 10 14  1  0  0  0  0
 10 15  1  0  0  0  0
M  END
$$$$
