5AH
 OpenBabel04121316063D

 98102  0  0  1  0  0  0  0  0999 V2000
   -9.2151    3.3946    2.7147 C   0  0  0  0  0  0  0  0  0  0  0  0
   -7.9034    3.7065    3.1857 O   0  0  0  0  0  0  0  0  0  0  0  0
   -7.4465    3.0205    4.2452 C   0  0  0  0  0  0  0  0  0  0  0  0
   -7.9900    2.0181    4.7237 O   0  0  0  0  0  0  0  0  0  0  0  0
   -6.3322    3.5643    4.8002 N   0  0  0  0  0  0  0  0  0  0  0  0
   -5.3601    4.4543    4.1372 C   0  0  2  0  0  0  0  0  0  0  0  0
   -5.2336    4.0922    3.1115 H   0  0  0  0  0  0  0  0  0  0  0  0
   -3.9771    4.2876    4.8172 C   0  0  0  0  0  0  0  0  0  0  0  0
   -3.1320    5.1776    4.7703 O   0  0  0  0  0  0  0  0  0  0  0  0
   -3.6509    3.0593    5.3608 N   0  0  0  0  0  0  0  0  0  0  0  0
   -2.3757    2.9820    6.0810 N   0  0  0  0  0  0  0  0  0  0  0  0
   -2.4728    3.5050    7.4561 C   0  0  0  0  0  0  0  0  0  0  0  0
   -2.7748    4.9614    7.5982 C   0  0  0  0  0  0  0  0  0  0  0  0
   -3.9637    5.3151    8.2146 C   0  0  0  0  0  0  0  0  0  0  0  0
   -4.4107    6.6259    8.1152 C   0  0  0  0  0  0  0  0  0  0  0  0
   -3.6990    7.6275    7.4012 C   0  0  0  0  0  0  0  0  0  0  0  0
   -2.4327    7.2671    6.9046 C   0  0  0  0  0  0  0  0  0  0  0  0
   -1.9685    5.9483    7.0106 C   0  0  0  0  0  0  0  0  0  0  0  0
   -4.3720    8.8997    6.9980 C   0  0  0  0  0  0  0  0  0  0  0  0
   -5.7007    9.1809    7.3443 C   0  0  0  0  0  0  0  0  0  0  0  0
   -6.3629   10.2738    6.7967 C   0  0  0  0  0  0  0  0  0  0  0  0
   -5.6564   11.1435    5.9903 C   0  0  0  0  0  0  0  0  0  0  0  0
   -4.3233   10.8584    5.7483 C   0  0  0  0  0  0  0  0  0  0  0  0
   -3.6854    9.7455    6.1891 N   0  0  0  0  0  0  0  0  0  0  0  0
   -1.9921    1.5809    6.2193 C   0  0  0  0  0  0  0  0  0  0  0  0
   -0.5881    1.3444    6.8829 C   0  0  0  0  0  0  0  0  0  0  0  0
   -0.0972   -0.1227    6.7604 C   0  0  2  0  0  0  0  0  0  0  0  0
    1.4491   -0.2275    6.5141 C   0  0  0  0  0  0  0  0  0  0  0  0
    2.0043    0.4855    5.6766 O   0  0  0  0  0  0  0  0  0  0  0  0
    2.1791   -1.2079    7.1896 N   0  0  0  0  0  0  0  0  0  0  0  0
    3.6454   -1.0835    7.1147 C   0  0  2  0  0  0  0  0  0  0  0  0
    3.8241   -0.0544    6.7971 H   0  0  0  0  0  0  0  0  0  0  0  0
    4.4994   -1.8949    6.0560 C   0  0  2  0  0  0  0  0  0  0  0  0
    4.6597   -1.2809    5.1595 H   0  0  0  0  0  0  0  0  0  0  0  0
    3.9644   -3.1431    5.6160 O   0  0  0  0  0  0  0  0  0  0  0  0
    5.8819   -2.1423    6.7001 C   0  0  0  0  0  0  0  0  0  0  0  0
    5.7171   -1.7094    8.1179 C   0  0  0  0  0  0  0  0  0  0  0  0
    4.4401   -1.2098    8.3979 C   0  0  0  0  0  0  0  0  0  0  0  0
    4.1791   -0.7625    9.6886 C   0  0  0  0  0  0  0  0  0  0  0  0
    5.1958   -0.8453   10.6651 C   0  0  0  0  0  0  0  0  0  0  0  0
    6.4685   -1.3406   10.3541 C   0  0  0  0  0  0  0  0  0  0  0  0
    6.7338   -1.7712    9.0649 C   0  0  0  0  0  0  0  0  0  0  0  0
   -0.7479   -0.8212    5.5438 C   0  0  0  0  0  0  0  0  0  0  0  0
   -0.4375   -0.2072    4.1692 C   0  0  0  0  0  0  0  0  0  0  0  0
   -0.2573    1.1785    3.9296 C   0  0  0  0  0  0  0  0  0  0  0  0
   -0.4248    1.7685    2.6940 C   0  0  0  0  0  0  0  0  0  0  0  0
   -0.4413    0.9450    1.6002 C   0  0  0  0  0  0  0  0  0  0  0  0
   -0.3400   -0.4384    1.7816 C   0  0  0  0  0  0  0  0  0  0  0  0
   -0.4395   -1.0188    3.0508 C   0  0  0  0  0  0  0  0  0  0  0  0
   -0.5107   -0.7355    7.9887 O   0  0  0  0  0  0  0  0  0  0  0  0
   -5.7781    5.9718    4.1148 C   0  0  0  0  0  0  0  0  0  0  0  0
   -4.6943    6.8930    3.4840 C   0  0  0  0  0  0  0  0  0  0  0  0
   -7.0598    6.2481    3.3484 C   0  0  0  0  0  0  0  0  0  0  0  0
   -6.0828    6.4134    5.5272 C   0  0  0  0  0  0  0  0  0  0  0  0
   -9.5797    4.2422    2.1215 H   0  0  0  0  0  0  0  0  0  0  0  0
   -9.9310    3.2306    3.5286 H   0  0  0  0  0  0  0  0  0  0  0  0
   -9.1345    2.5219    2.0694 H   0  0  0  0  0  0  0  0  0  0  0  0
   -6.1394    3.2661    5.7489 H   0  0  0  0  0  0  0  0  0  0  0  0
   -3.9256    2.2600    4.7869 H   0  0  0  0  0  0  0  0  0  0  0  0
   -1.5267    3.3829    7.9830 H   0  0  0  0  0  0  0  0  0  0  0  0
   -3.2280    2.8996    7.9721 H   0  0  0  0  0  0  0  0  0  0  0  0
   -4.6233    4.5508    8.6197 H   0  0  0  0  0  0  0  0  0  0  0  0
   -5.4546    6.7593    8.3827 H   0  0  0  0  0  0  0  0  0  0  0  0
   -1.8680    7.9564    6.2773 H   0  0  0  0  0  0  0  0  0  0  0  0
   -1.0981    5.6470    6.4236 H   0  0  0  0  0  0  0  0  0  0  0  0
   -6.2682    8.5348    8.0001 H   0  0  0  0  0  0  0  0  0  0  0  0
   -7.4132   10.4367    7.0181 H   0  0  0  0  0  0  0  0  0  0  0  0
   -6.1261   12.0342    5.5912 H   0  0  0  0  0  0  0  0  0  0  0  0
   -3.7026   11.5586    5.1971 H   0  0  0  0  0  0  0  0  0  0  0  0
   -2.0852    1.2080    5.2047 H   0  0  0  0  0  0  0  0  0  0  0  0
   -2.7545    1.0110    6.7558 H   0  0  0  0  0  0  0  0  0  0  0  0
   -0.6565    1.6003    7.9449 H   0  0  0  0  0  0  0  0  0  0  0  0
    0.1716    2.0506    6.5199 H   0  0  0  0  0  0  0  0  0  0  0  0
    1.7781   -1.5524    8.0541 H   0  0  0  0  0  0  0  0  0  0  0  0
    3.4085   -2.9474    4.8402 H   0  0  0  0  0  0  0  0  0  0  0  0
    6.6619   -1.5317    6.2324 H   0  0  0  0  0  0  0  0  0  0  0  0
    6.1760   -3.1966    6.6885 H   0  0  0  0  0  0  0  0  0  0  0  0
    3.2210   -0.3346    9.9664 H   0  0  0  0  0  0  0  0  0  0  0  0
    5.0086   -0.5125   11.6841 H   0  0  0  0  0  0  0  0  0  0  0  0
    7.2496   -1.3961   11.1098 H   0  0  0  0  0  0  0  0  0  0  0  0
    7.7146   -2.1522    8.7965 H   0  0  0  0  0  0  0  0  0  0  0  0
   -1.8444   -0.8426    5.6794 H   0  0  0  0  0  0  0  0  0  0  0  0
   -0.4936   -1.8873    5.5662 H   0  0  0  0  0  0  0  0  0  0  0  0
   -0.0693    1.9172    4.6916 H   0  0  0  0  0  0  0  0  0  0  0  0
   -0.5114    2.8520    2.6332 H   0  0  0  0  0  0  0  0  0  0  0  0
   -0.4924    1.3914    0.6158 H   0  0  0  0  0  0  0  0  0  0  0  0
   -0.2014   -1.0737    0.9170 H   0  0  0  0  0  0  0  0  0  0  0  0
   -0.5023   -2.0967    3.1603 H   0  0  0  0  0  0  0  0  0  0  0  0
   -0.3431   -1.6879    7.9366 H   0  0  0  0  0  0  0  0  0  0  0  0
   -4.4533    6.5535    2.4721 H   0  0  0  0  0  0  0  0  0  0  0  0
   -3.7523    6.9703    4.0296 H   0  0  0  0  0  0  0  0  0  0  0  0
   -5.0291    7.9333    3.4493 H   0  0  0  0  0  0  0  0  0  0  0  0
   -6.9849    5.8487    2.3358 H   0  0  0  0  0  0  0  0  0  0  0  0
   -7.2645    7.3215    3.2906 H   0  0  0  0  0  0  0  0  0  0  0  0
   -7.9148    5.8292    3.8841 H   0  0  0  0  0  0  0  0  0  0  0  0
   -5.1631    6.2733    6.0496 H   0  0  0  0  0  0  0  0  0  0  0  0
   -6.8430    5.8234    6.0496 H   0  0  0  0  0  0  0  0  0  0  0  0
   -6.3836    7.4594    5.5641 H   0  0  0  0  0  0  0  0  0  0  0  0
  1  2  1  0  0  0  0
  1 55  1  0  0  0  0
  1 56  1  0  0  0  0
  1 57  1  0  0  0  0
  2  3  1  0  0  0  0
  3  4  2  0  0  0  0
  3  5  1  0  0  0  0
  5 58  1  0  0  0  0
  6  8  1  0  0  0  0
  6 51  1  0  0  0  0
  6  7  1  6  0  0  0
  6  5  1  0  0  0  0
  8  9  2  0  0  0  0
  8 10  1  0  0  0  0
 10 11  1  0  0  0  0
 10 59  1  0  0  0  0
 11 12  1  0  0  0  0
 11 25  1  0  0  0  0
 12 13  1  0  0  0  0
 12 60  1  0  0  0  0
 12 61  1  0  0  0  0
 13 14  2  0  0  0  0
 13 18  1  0  0  0  0
 14 15  1  0  0  0  0
 14 62  1  0  0  0  0
 15 16  2  0  0  0  0
 15 63  1  0  0  0  0
 16 17  1  0  0  0  0
 16 19  1  0  0  0  0
 17 18  2  0  0  0  0
 17 64  1  0  0  0  0
 18 65  1  0  0  0  0
 19 20  2  0  0  0  0
 19 24  1  0  0  0  0
 20 21  1  0  0  0  0
 20 66  1  0  0  0  0
 21 22  2  0  0  0  0
 21 67  1  0  0  0  0
 22 23  1  0  0  0  0
 22 68  1  0  0  0  0
 23 24  2  0  0  0  0
 23 69  1  0  0  0  0
 25 26  1  0  0  0  0
 25 70  1  0  0  0  0
 25 71  1  0  0  0  0
 26 72  1  0  0  0  0
 26 73  1  0  0  0  0
 27 43  1  6  0  0  0
 27 50  1  0  0  0  0
 27 28  1  0  0  0  0
 27 26  1  0  0  0  0
 28 29  2  0  0  0  0
 28 30  1  0  0  0  0
 30 31  1  0  0  0  0
 30 74  1  0  0  0  0
 31 32  1  6  0  0  0
 31 33  1  0  0  0  0
 31 38  1  0  0  0  0
 33 34  1  6  0  0  0
 33 35  1  0  0  0  0
 33 36  1  0  0  0  0
 35 75  1  0  0  0  0
 36 37  1  0  0  0  0
 36 76  1  0  0  0  0
 36 77  1  0  0  0  0
 37 38  2  0  0  0  0
 37 42  1  0  0  0  0
 38 39  1  0  0  0  0
 39 40  2  0  0  0  0
 39 78  1  0  0  0  0
 40 41  1  0  0  0  0
 40 79  1  0  0  0  0
 41 42  2  0  0  0  0
 41 80  1  0  0  0  0
 42 81  1  0  0  0  0
 43 44  1  0  0  0  0
 43 82  1  0  0  0  0
 43 83  1  0  0  0  0
 44 45  2  0  0  0  0
 44 49  1  0  0  0  0
 45 46  1  0  0  0  0
 45 84  1  0  0  0  0
 46 47  2  0  0  0  0
 46 85  1  0  0  0  0
 47 48  1  0  0  0  0
 47 86  1  0  0  0  0
 48 49  2  0  0  0  0
 48 87  1  0  0  0  0
 49 88  1  0  0  0  0
 50 89  1  0  0  0  0
 51 52  1  0  0  0  0
 51 53  1  0  0  0  0
 51 54  1  0  0  0  0
 52 90  1  0  0  0  0
 52 91  1  0  0  0  0
 52 92  1  0  0  0  0
 53 93  1  0  0  0  0
 53 94  1  0  0  0  0
 53 95  1  0  0  0  0
 54 96  1  0  0  0  0
 54 97  1  0  0  0  0
 54 98  1  0  0  0  0
M  END
$$$$
