5BE
 OpenBabel04121316063D

 56 59  0  0  0  0  0  0  0  0999 V2000
    0.9855    0.0863    0.0042 C   0  0  0  0  0  0  0  0  0  0  0  0
    2.4476    0.0713   -0.0693 N   0  0  0  0  0  0  0  0  0  0  0  0
    2.9402   -1.2726   -0.4194 C   0  0  0  0  0  0  0  0  0  0  0  0
    2.5507   -1.6936   -1.8387 C   0  0  0  0  0  0  0  0  0  0  0  0
    3.0272   -0.6506   -2.8474 C   0  0  0  0  0  0  0  0  0  0  0  0
    2.5039    0.7388   -2.4759 C   0  0  0  0  0  0  0  0  0  0  0  0
    2.9202    1.0748   -1.0410 C   0  0  0  0  0  0  0  0  0  0  0  0
    4.4658   -0.6097   -2.8800 N   0  0  0  0  0  0  0  0  0  0  0  0
    5.1215    0.1326   -3.8243 C   0  0  0  0  0  0  0  0  0  0  0  0
    4.5686    0.8499   -4.6403 O   0  0  0  0  0  0  0  0  0  0  0  0
    6.5529    0.0823   -3.7040 C   0  0  0  0  0  0  0  0  0  0  0  0
    7.4149    1.1947   -3.6667 C   0  0  0  0  0  0  0  0  0  0  0  0
    6.9849    2.6160   -3.6659 C   0  0  0  0  0  0  0  0  0  0  0  0
    8.7000    0.8188   -3.6078 N   0  0  0  0  0  0  0  0  0  0  0  0
    8.6380   -0.5294   -3.6209 N   0  0  0  0  0  0  0  0  0  0  0  0
    9.5150   -1.0364   -3.6236 H   0  0  0  0  0  0  0  0  0  0  0  0
    7.3652   -1.0277   -3.6402 C   0  0  0  0  0  0  0  0  0  0  0  0
    6.9744   -2.3951   -3.6517 C   0  0  0  0  0  0  0  0  0  0  0  0
    5.7134   -2.7772   -3.6354 N   0  0  0  0  0  0  0  0  0  0  0  0
    5.7194   -4.1397   -3.6431 C   0  0  0  0  0  0  0  0  0  0  0  0
    7.0258   -4.6004   -3.6490 C   0  0  0  0  0  0  0  0  0  0  0  0
    7.8040   -3.4749   -3.6550 N   0  0  0  0  0  0  0  0  0  0  0  0
    8.8102   -3.4649   -3.6556 H   0  0  0  0  0  0  0  0  0  0  0  0
    7.3595   -5.9401   -3.6461 C   0  0  0  0  0  0  0  0  0  0  0  0
    6.2923   -6.8343   -3.6440 C   0  0  0  0  0  0  0  0  0  0  0  0
    4.9436   -6.4272   -3.6513 C   0  0  0  0  0  0  0  0  0  0  0  0
    4.6516   -5.0498   -3.6375 C   0  0  0  0  0  0  0  0  0  0  0  0
    3.8104   -7.4459   -3.6815 C   0  0  0  0  0  0  0  0  0  0  0  0
    2.9354   -7.2511   -4.9240 C   0  0  0  0  0  0  0  0  0  0  0  0
    4.3180   -8.8940   -3.6589 C   0  0  0  0  0  0  0  0  0  0  0  0
    0.6327   -0.6450    0.7355 H   0  0  0  0  0  0  0  0  0  0  0  0
    0.4990   -0.1494   -0.9474 H   0  0  0  0  0  0  0  0  0  0  0  0
    0.6314    1.0737    0.3124 H   0  0  0  0  0  0  0  0  0  0  0  0
    2.5739   -2.0143    0.3000 H   0  0  0  0  0  0  0  0  0  0  0  0
    4.0344   -1.2940   -0.3132 H   0  0  0  0  0  0  0  0  0  0  0  0
    1.4628   -1.8023   -1.9181 H   0  0  0  0  0  0  0  0  0  0  0  0
    2.9712   -2.6801   -2.0631 H   0  0  0  0  0  0  0  0  0  0  0  0
    2.6883   -0.9317   -3.8505 H   0  0  0  0  0  0  0  0  0  0  0  0
    1.4175    0.7690   -2.5971 H   0  0  0  0  0  0  0  0  0  0  0  0
    2.8857    1.5155   -3.1455 H   0  0  0  0  0  0  0  0  0  0  0  0
    2.5523    2.0721   -0.7743 H   0  0  0  0  0  0  0  0  0  0  0  0
    4.0160    1.1530   -0.9750 H   0  0  0  0  0  0  0  0  0  0  0  0
    4.9995   -1.3087   -2.3724 H   0  0  0  0  0  0  0  0  0  0  0  0
    5.8915    2.6973   -3.6573 H   0  0  0  0  0  0  0  0  0  0  0  0
    7.3387    3.1298   -4.5620 H   0  0  0  0  0  0  0  0  0  0  0  0
    7.3367    3.1325   -2.7696 H   0  0  0  0  0  0  0  0  0  0  0  0
    8.3839   -6.2872   -3.6511 H   0  0  0  0  0  0  0  0  0  0  0  0
    6.5620   -7.8857   -3.6468 H   0  0  0  0  0  0  0  0  0  0  0  0
    3.6295   -4.6808   -3.6372 H   0  0  0  0  0  0  0  0  0  0  0  0
    3.1946   -7.2937   -2.7841 H   0  0  0  0  0  0  0  0  0  0  0  0
    3.5273   -7.3680   -5.8389 H   0  0  0  0  0  0  0  0  0  0  0  0
    2.4780   -6.2567   -4.9508 H   0  0  0  0  0  0  0  0  0  0  0  0
    2.1230   -7.9849   -4.9466 H   0  0  0  0  0  0  0  0  0  0  0  0
    4.9415   -9.0991   -4.5389 H   0  0  0  0  0  0  0  0  0  0  0  0
    3.4975   -9.6145   -3.6624 H   0  0  0  0  0  0  0  0  0  0  0  0
    4.9206   -9.0819   -2.7620 H   0  0  0  0  0  0  0  0  0  0  0  0
  1  2  1  0  0  0  0
  1 31  1  0  0  0  0
  1 32  1  0  0  0  0
  1 33  1  0  0  0  0
  2  3  1  0  0  0  0
  2  7  1  0  0  0  0
  3  4  1  0  0  0  0
  3 34  1  0  0  0  0
  3 35  1  0  0  0  0
  4  5  1  0  0  0  0
  4 36  1  0  0  0  0
  4 37  1  0  0  0  0
  5  6  1  0  0  0  0
  5  8  1  0  0  0  0
  5 38  1  0  0  0  0
  6  7  1  0  0  0  0
  6 39  1  0  0  0  0
  6 40  1  0  0  0  0
  7 41  1  0  0  0  0
  7 42  1  0  0  0  0
  8  9  1  0  0  0  0
  8 43  1  0  0  0  0
  9 10  2  0  0  0  0
  9 11  1  0  0  0  0
 11 12  1  0  0  0  0
 11 17  2  0  0  0  0
 12 13  1  0  0  0  0
 12 14  2  0  0  0  0
 13 44  1  0  0  0  0
 13 45  1  0  0  0  0
 13 46  1  0  0  0  0
 14 15  1  0  0  0  0
 15 16  1  0  0  0  0
 15 17  1  0  0  0  0
 17 18  1  0  0  0  0
 18 19  2  0  0  0  0
 18 22  1  0  0  0  0
 19 20  1  0  0  0  0
 20 21  2  0  0  0  0
 20 27  1  0  0  0  0
 21 22  1  0  0  0  0
 21 24  1  0  0  0  0
 22 23  1  0  0  0  0
 24 25  2  0  0  0  0
 24 47  1  0  0  0  0
 25 26  1  0  0  0  0
 25 48  1  0  0  0  0
 26 27  2  0  0  0  0
 26 28  1  0  0  0  0
 27 49  1  0  0  0  0
 28 29  1  0  0  0  0
 28 30  1  0  0  0  0
 28 50  1  0  0  0  0
 29 51  1  0  0  0  0
 29 52  1  0  0  0  0
 29 53  1  0  0  0  0
 30 54  1  0  0  0  0
 30 55  1  0  0  0  0
 30 56  1  0  0  0  0
M  END
$$$$
