5CA
 OpenBabel04121316063D

 48 50  0  0  1  0  0  0  0  0999 V2000
    0.9006    0.0851   -0.0783 S   0  0  0  0  0  0  0  0  0  0  0  0
    2.7252    0.0262    0.0861 C   0  0  0  0  0  0  0  0  0  0  0  0
    3.2646    1.1113    1.0325 C   0  0  1  0  0  0  0  0  0  0  0  0
    2.9058    2.1016    0.7301 H   0  0  0  0  0  0  0  0  0  0  0  0
    2.8345    0.8677    2.5098 C   0  0  0  0  0  0  0  0  0  0  0  0
    3.6692    0.6545    3.3901 O   0  0  0  0  0  0  0  0  0  0  0  0
    1.4512    0.8990    2.8012 N   0  0  0  0  0  0  0  0  0  0  0  0
    0.9230    0.5508    4.3383 S   0  0  0  0  0  0  0  0  0  0  0  0
    1.3272   -0.8089    4.6326 O   0  0  0  0  0  0  0  0  0  0  0  0
    1.3039    1.6625    5.1778 O   0  0  0  0  0  0  0  0  0  0  0  0
   -0.7156    0.5397    4.2980 O   0  0  0  0  0  0  0  0  0  0  0  0
   -1.3201    0.2655    5.5780 C   0  0  0  0  0  0  0  0  0  0  0  0
   -2.8628    0.3057    5.5831 C   0  0  1  0  0  0  0  0  0  0  0  0
   -3.2437    0.1759    4.5624 H   0  0  0  0  0  0  0  0  0  0  0  0
   -3.4151   -0.7560    6.4172 O   0  0  0  0  0  0  0  0  0  0  0  0
   -4.7404   -0.3209    6.8006 C   0  0  2  0  0  0  0  0  0  0  0  0
   -5.4267   -0.5701    5.9776 H   0  0  0  0  0  0  0  0  0  0  0  0
   -4.6634    1.2005    6.9612 C   0  0  1  0  0  0  0  0  0  0  0  0
   -4.5123    1.5282    7.9851 H   0  0  0  0  0  0  0  0  0  0  0  0
   -3.3958    1.5990    6.2064 C   0  0  2  0  0  0  0  0  0  0  0  0
   -2.6822    1.9885    6.9427 H   0  0  0  0  0  0  0  0  0  0  0  0
   -3.6071    2.6182    5.2444 O   0  0  0  0  0  0  0  0  0  0  0  0
   -5.8355    1.8740    6.5050 O   0  0  0  0  0  0  0  0  0  0  0  0
   -5.2186   -1.0637    7.9624 N   0  0  0  0  0  0  0  0  0  0  0  0
   -5.9821   -2.2086    7.9013 C   0  0  0  0  0  0  0  0  0  0  0  0
   -6.3851   -2.6090    9.0901 N   0  0  0  0  0  0  0  0  0  0  0  0
   -5.8686   -1.6824    9.9697 C   0  0  0  0  0  0  0  0  0  0  0  0
   -5.1524   -0.7098    9.2895 C   0  0  0  0  0  0  0  0  0  0  0  0
   -4.5504    0.3582    9.8379 N   0  0  0  0  0  0  0  0  0  0  0  0
   -4.7121    0.3957   11.1732 C   0  0  0  0  0  0  0  0  0  0  0  0
   -5.3613   -0.4856   11.9568 N   0  0  0  0  0  0  0  0  0  0  0  0
   -5.9513   -1.5509   11.3690 C   0  0  0  0  0  0  0  0  0  0  0  0
   -6.6217   -2.4467   12.1702 N   0  0  0  0  0  0  0  0  0  0  0  0
    4.7511    1.1625    0.9596 N   0  0  0  0  0  0  0  0  0  0  0  0
    0.7364   -1.0336   -0.7993 H   0  0  0  0  0  0  0  0  0  0  0  0
    3.1314    0.1720   -0.9221 H   0  0  0  0  0  0  0  0  0  0  0  0
    3.0320   -0.9708    0.4234 H   0  0  0  0  0  0  0  0  0  0  0  0
    0.7558    0.9330    2.0598 H   0  0  0  0  0  0  0  0  0  0  0  0
   -0.9304    1.0071    6.2848 H   0  0  0  0  0  0  0  0  0  0  0  0
   -0.9769   -0.7167    5.9201 H   0  0  0  0  0  0  0  0  0  0  0  0
   -4.1647    3.2882    5.6855 H   0  0  0  0  0  0  0  0  0  0  0  0
   -6.5676    1.6015    7.0908 H   0  0  0  0  0  0  0  0  0  0  0  0
   -6.2261   -2.7052    6.9697 H   0  0  0  0  0  0  0  0  0  0  0  0
   -4.2665    1.2471   11.6806 H   0  0  0  0  0  0  0  0  0  0  0  0
   -6.5706   -2.3256   13.1692 H   0  0  0  0  0  0  0  0  0  0  0  0
   -7.0148   -3.2749   11.7471 H   0  0  0  0  0  0  0  0  0  0  0  0
    5.0929    1.2490    0.0070 H   0  0  0  0  0  0  0  0  0  0  0  0
    5.1429    0.3060    1.3606 H   0  0  0  0  0  0  0  0  0  0  0  0
  1  2  1  0  0  0  0
  1 35  1  0  0  0  0
  2  3  1  0  0  0  0
  2 36  1  0  0  0  0
  2 37  1  0  0  0  0
  3  4  1  6  0  0  0
  3  5  1  0  0  0  0
  3 34  1  0  0  0  0
  5  6  2  0  0  0  0
  5  7  1  0  0  0  0
  7  8  1  0  0  0  0
  7 38  1  0  0  0  0
  8  9  2  0  0  0  0
  8 10  2  0  0  0  0
  8 11  1  0  0  0  0
 11 12  1  0  0  0  0
 12 13  1  0  0  0  0
 12 39  1  0  0  0  0
 12 40  1  0  0  0  0
 13 14  1  6  0  0  0
 13 15  1  0  0  0  0
 13 20  1  0  0  0  0
 15 16  1  0  0  0  0
 16 18  1  0  0  0  0
 16 24  1  0  0  0  0
 16 17  1  6  0  0  0
 18 19  1  1  0  0  0
 18 20  1  0  0  0  0
 18 23  1  0  0  0  0
 20 21  1  1  0  0  0
 20 22  1  0  0  0  0
 22 41  1  0  0  0  0
 23 42  1  0  0  0  0
 24 25  1  0  0  0  0
 24 28  1  0  0  0  0
 25 26  2  0  0  0  0
 25 43  1  0  0  0  0
 26 27  1  0  0  0  0
 27 28  2  0  0  0  0
 27 32  1  0  0  0  0
 28 29  1  0  0  0  0
 29 30  2  0  0  0  0
 30 31  1  0  0  0  0
 30 44  1  0  0  0  0
 31 32  2  0  0  0  0
 32 33  1  0  0  0  0
 33 45  1  0  0  0  0
 33 46  1  0  0  0  0
 34 47  1  0  0  0  0
 34 48  1  0  0  0  0
M  END
$$$$
