5CD
 OpenBabel04121316063D

 31 33  0  0  1  0  0  0  0  0999 V2000
    0.9471    0.0413   -0.2194 Cl  0  0  0  0  0  0  0  0  0  0  0  0
    2.7154    0.0199    0.0550 C   0  0  0  0  0  0  0  0  0  0  0  0
    3.1291    0.6306    1.3996 C   0  0  1  0  0  0  0  0  0  0  0  0
    4.2132    0.4750    1.5000 H   0  0  0  0  0  0  0  0  0  0  0  0
    2.9064    2.0583    1.4587 O   0  0  0  0  0  0  0  0  0  0  0  0
    2.8783    2.4027    2.8644 C   0  0  2  0  0  0  0  0  0  0  0  0
    3.9046    2.5532    3.2217 H   0  0  0  0  0  0  0  0  0  0  0  0
    2.2053    1.2005    3.5606 C   0  0  1  0  0  0  0  0  0  0  0  0
    1.1243    1.3506    3.6533 H   0  0  0  0  0  0  0  0  0  0  0  0
    2.4056    0.0266    2.6000 C   0  0  2  0  0  0  0  0  0  0  0  0
    1.4223   -0.3670    2.3317 H   0  0  0  0  0  0  0  0  0  0  0  0
    3.1297   -1.0656    3.1499 O   0  0  0  0  0  0  0  0  0  0  0  0
    2.6891    0.9165    4.8683 O   0  0  0  0  0  0  0  0  0  0  0  0
    2.1393    3.6487    3.0400 N   0  0  0  0  0  0  0  0  0  0  0  0
    0.7941    3.7897    2.7958 C   0  0  0  0  0  0  0  0  0  0  0  0
    0.3370    4.9693    3.1582 N   0  0  0  0  0  0  0  0  0  0  0  0
    1.4435    5.6475    3.6090 C   0  0  0  0  0  0  0  0  0  0  0  0
    2.5832    4.8476    3.5555 C   0  0  0  0  0  0  0  0  0  0  0  0
    3.8195    5.2053    3.9426 N   0  0  0  0  0  0  0  0  0  0  0  0
    3.8389    6.4929    4.3775 C   0  0  0  0  0  0  0  0  0  0  0  0
    2.8139    7.3707    4.4796 N   0  0  0  0  0  0  0  0  0  0  0  0
    1.5870    6.9573    4.1036 C   0  0  0  0  0  0  0  0  0  0  0  0
    0.5194    7.8212    4.2266 N   0  0  0  0  0  0  0  0  0  0  0  0
    3.1537    0.5727   -0.7796 H   0  0  0  0  0  0  0  0  0  0  0  0
    3.0372   -1.0256   -0.0056 H   0  0  0  0  0  0  0  0  0  0  0  0
    2.7004   -1.2664    4.0047 H   0  0  0  0  0  0  0  0  0  0  0  0
    2.5354    1.7047    5.4215 H   0  0  0  0  0  0  0  0  0  0  0  0
    0.1906    2.9969    2.3796 H   0  0  0  0  0  0  0  0  0  0  0  0
    4.8046    6.8811    4.6917 H   0  0  0  0  0  0  0  0  0  0  0  0
    0.6921    8.7714    4.5135 H   0  0  0  0  0  0  0  0  0  0  0  0
   -0.3821    7.5226    3.8816 H   0  0  0  0  0  0  0  0  0  0  0  0
  1  2  1  0  0  0  0
  2  3  1  0  0  0  0
  2 24  1  0  0  0  0
  2 25  1  0  0  0  0
  3  4  1  1  0  0  0
  3  5  1  0  0  0  0
  3 10  1  0  0  0  0
  5  6  1  0  0  0  0
  6  8  1  0  0  0  0
  6 14  1  0  0  0  0
  6  7  1  1  0  0  0
  8  9  1  1  0  0  0
  8 10  1  0  0  0  0
  8 13  1  0  0  0  0
 10 11  1  6  0  0  0
 10 12  1  0  0  0  0
 12 26  1  0  0  0  0
 13 27  1  0  0  0  0
 14 15  1  0  0  0  0
 14 18  1  0  0  0  0
 15 16  2  0  0  0  0
 15 28  1  0  0  0  0
 16 17  1  0  0  0  0
 17 18  2  0  0  0  0
 17 22  1  0  0  0  0
 18 19  1  0  0  0  0
 19 20  2  0  0  0  0
 20 21  1  0  0  0  0
 20 29  1  0  0  0  0
 21 22  2  0  0  0  0
 22 23  1  0  0  0  0
 23 30  1  0  0  0  0
 23 31  1  0  0  0  0
M  END
$$$$
