5CN
 OpenBabel04121316063D

 46 48  0  0  0  0  0  0  0  0999 V2000
    1.0145   -0.1195    0.0294 O   0  0  0  0  0  0  0  0  0  0  0  0
    2.4323   -0.0955    0.0407 C   0  0  0  0  0  0  0  0  0  0  0  0
    2.8685    1.1247    0.7890 C   0  0  0  0  0  0  0  0  0  0  0  0
    2.3259    2.3779    0.5426 C   0  0  0  0  0  0  0  0  0  0  0  0
    2.7435    3.4988    1.2767 C   0  0  0  0  0  0  0  0  0  0  0  0
    3.8550    3.4425    2.1383 C   0  0  0  0  0  0  0  0  0  0  0  0
    4.3948    2.1473    2.3786 C   0  0  0  0  0  0  0  0  0  0  0  0
    3.8434    1.0217    1.7641 C   0  0  0  0  0  0  0  0  0  0  0  0
    5.4860    1.9805    3.2618 N   0  0  0  0  0  0  0  0  0  0  0  0
    6.2108    0.8269    3.4856 C   0  0  0  0  0  0  0  0  0  0  0  0
    5.9374   -0.2819    3.0422 O   0  0  0  0  0  0  0  0  0  0  0  0
    7.3794    1.0137    4.3124 C   0  0  0  0  0  0  0  0  0  0  0  0
    8.0614    2.1247    4.7765 C   0  0  0  0  0  0  0  0  0  0  0  0
    9.1428    1.6385    5.5464 C   0  0  0  0  0  0  0  0  0  0  0  0
    9.0627    0.2702    5.4975 C   0  0  0  0  0  0  0  0  0  0  0  0
    8.0088   -0.1242    4.7494 O   0  0  0  0  0  0  0  0  0  0  0  0
    9.8856   -0.7229    6.0928 C   0  0  0  0  0  0  0  0  0  0  0  0
   10.6036   -1.4595    6.6156 N   0  0  0  0  0  0  0  0  0  0  0  0
    4.4143    4.6003    2.6773 N   0  0  0  0  0  0  0  0  0  0  0  0
    5.8700    4.7530    2.6999 C   0  0  0  0  0  0  0  0  0  0  0  0
    6.3197    5.9826    1.9519 C   0  0  0  0  0  0  0  0  0  0  0  0
    5.6354    7.2202    2.5098 C   0  0  0  0  0  0  0  0  0  0  0  0
    4.1158    7.0363    2.3674 C   0  0  0  0  0  0  0  0  0  0  0  0
    3.6229    5.7717    3.0881 C   0  0  0  0  0  0  0  0  0  0  0  0
    6.0420    7.4476    3.9711 C   0  0  0  0  0  0  0  0  0  0  0  0
    0.7519   -0.9054   -0.4724 H   0  0  0  0  0  0  0  0  0  0  0  0
    2.8126   -0.0558   -0.9859 H   0  0  0  0  0  0  0  0  0  0  0  0
    2.7980   -1.0161    0.5122 H   0  0  0  0  0  0  0  0  0  0  0  0
    1.5474    2.4650   -0.2110 H   0  0  0  0  0  0  0  0  0  0  0  0
    2.1976    4.4220    1.1115 H   0  0  0  0  0  0  0  0  0  0  0  0
    4.1467    0.0235    2.0466 H   0  0  0  0  0  0  0  0  0  0  0  0
    5.7688    2.8126    3.7465 H   0  0  0  0  0  0  0  0  0  0  0  0
    7.8248    3.1606    4.5841 H   0  0  0  0  0  0  0  0  0  0  0  0
    9.8936    2.2068    6.0735 H   0  0  0  0  0  0  0  0  0  0  0  0
    6.4075    3.9295    2.2247 H   0  0  0  0  0  0  0  0  0  0  0  0
    6.1908    4.7972    3.7475 H   0  0  0  0  0  0  0  0  0  0  0  0
    6.0779    5.8566    0.8893 H   0  0  0  0  0  0  0  0  0  0  0  0
    7.4085    6.0673    2.0369 H   0  0  0  0  0  0  0  0  0  0  0  0
    5.9632    8.0809    1.9158 H   0  0  0  0  0  0  0  0  0  0  0  0
    3.8619    6.9586    1.3017 H   0  0  0  0  0  0  0  0  0  0  0  0
    3.6036    7.9241    2.7552 H   0  0  0  0  0  0  0  0  0  0  0  0
    2.5434    5.6523    2.9457 H   0  0  0  0  0  0  0  0  0  0  0  0
    3.7514    5.9014    4.1700 H   0  0  0  0  0  0  0  0  0  0  0  0
    5.7142    6.6419    4.6359 H   0  0  0  0  0  0  0  0  0  0  0  0
    5.5981    8.3685    4.3532 H   0  0  0  0  0  0  0  0  0  0  0  0
    7.1309    7.5031    4.0651 H   0  0  0  0  0  0  0  0  0  0  0  0
  1  2  1  0  0  0  0
  1 26  1  0  0  0  0
  2  3  1  0  0  0  0
  2 27  1  0  0  0  0
  2 28  1  0  0  0  0
  3  4  2  0  0  0  0
  3  8  1  0  0  0  0
  4  5  1  0  0  0  0
  4 29  1  0  0  0  0
  5  6  2  0  0  0  0
  5 30  1  0  0  0  0
  6  7  1  0  0  0  0
  6 19  1  0  0  0  0
  7  8  2  0  0  0  0
  7  9  1  0  0  0  0
  8 31  1  0  0  0  0
  9 10  1  0  0  0  0
  9 32  1  0  0  0  0
 10 11  2  0  0  0  0
 10 12  1  0  0  0  0
 12 13  2  0  0  0  0
 12 16  1  0  0  0  0
 13 14  1  0  0  0  0
 13 33  1  0  0  0  0
 14 15  2  0  0  0  0
 14 34  1  0  0  0  0
 15 16  1  0  0  0  0
 15 17  1  0  0  0  0
 17 18  3  0  0  0  0
 19 20  1  0  0  0  0
 19 24  1  0  0  0  0
 20 21  1  0  0  0  0
 20 35  1  0  0  0  0
 20 36  1  0  0  0  0
 21 22  1  0  0  0  0
 21 37  1  0  0  0  0
 21 38  1  0  0  0  0
 22 23  1  0  0  0  0
 22 25  1  0  0  0  0
 22 39  1  0  0  0  0
 23 24  1  0  0  0  0
 23 40  1  0  0  0  0
 23 41  1  0  0  0  0
 24 42  1  0  0  0  0
 24 43  1  0  0  0  0
 25 44  1  0  0  0  0
 25 45  1  0  0  0  0
 25 46  1  0  0  0  0
M  END
$$$$
