5EE
 OpenBabel04121316063D

 35 37  0  0  1  0  0  0  0  0999 V2000
    0.9807    0.5511   -0.1568 S   0  0  0  0  0  0  0  0  0  0  0  0
    2.6145    0.2731   -0.0117 C   0  0  0  0  0  0  0  0  0  0  0  0
    3.6570    1.6800    0.2128 S   0  0  0  0  0  0  0  0  0  0  0  0
    4.8773    0.9145   -0.8855 C   0  0  1  0  0  0  0  0  0  0  0  0
    5.8604    1.3311   -0.6668 H   0  0  0  0  0  0  0  0  0  0  0  0
    4.7716   -0.5528   -0.4901 C   0  0  0  0  0  0  0  0  0  0  0  0
    5.6935   -1.3603   -0.5499 O   0  0  0  0  0  0  0  0  0  0  0  0
    3.4510   -0.8366   -0.1452 N   0  0  0  0  0  0  0  0  0  0  0  0
    3.1292   -2.2472    0.2071 N   0  0  0  0  0  0  0  0  0  0  0  0
    1.5853   -2.5473    0.7947 S   0  0  0  0  0  0  0  0  0  0  0  0
    1.4945   -1.7938    2.0314 O   0  0  0  0  0  0  0  0  0  0  0  0
    0.6797   -2.4243   -0.3193 O   0  0  0  0  0  0  0  0  0  0  0  0
    1.3969   -4.2221    1.2271 C   0  0  0  0  0  0  0  0  0  0  0  0
    1.8575   -5.3824    0.6497 C   0  0  0  0  0  0  0  0  0  0  0  0
    1.3529   -6.5270    1.3238 C   0  0  0  0  0  0  0  0  0  0  0  0
    0.4979   -6.1916    2.3506 C   0  0  0  0  0  0  0  0  0  0  0  0
    0.2820   -4.5116    2.4877 S   0  0  0  0  0  0  0  0  0  0  0  0
    4.4109    1.1604   -2.3254 C   0  0  0  0  0  0  0  0  0  0  0  0
    5.4748    0.7557   -3.3038 C   0  0  0  0  0  0  0  0  0  0  0  0
    6.2584    1.7266   -3.9278 C   0  0  0  0  0  0  0  0  0  0  0  0
    7.2393    1.3409   -4.8384 C   0  0  0  0  0  0  0  0  0  0  0  0
    7.3733   -0.0031   -5.2047 C   0  0  0  0  0  0  0  0  0  0  0  0
    6.6049   -0.9787   -4.5693 C   0  0  0  0  0  0  0  0  0  0  0  0
    5.6942   -0.5994   -3.5877 C   0  0  0  0  0  0  0  0  0  0  0  0
    6.6887   -2.6566   -4.9662 Cl  0  0  0  0  0  0  0  0  0  0  0  0
    8.4652   -0.3856   -6.4836 Cl  0  0  0  0  0  0  0  0  0  0  0  0
    3.8924   -2.7291    0.7021 H   0  0  0  0  0  0  0  0  0  0  0  0
    2.5027   -5.3910   -0.2217 H   0  0  0  0  0  0  0  0  0  0  0  0
    1.5931   -7.5469    1.0592 H   0  0  0  0  0  0  0  0  0  0  0  0
   -0.0353   -6.8404    3.0277 H   0  0  0  0  0  0  0  0  0  0  0  0
    4.1640    2.2213   -2.4780 H   0  0  0  0  0  0  0  0  0  0  0  0
    3.4939    0.6112   -2.5900 H   0  0  0  0  0  0  0  0  0  0  0  0
    6.1040    2.7843   -3.7179 H   0  0  0  0  0  0  0  0  0  0  0  0
    7.8819    2.0986   -5.2784 H   0  0  0  0  0  0  0  0  0  0  0  0
    5.1478   -1.3759   -3.0567 H   0  0  0  0  0  0  0  0  0  0  0  0
  1  2  2  0  0  0  0
  2  3  1  0  0  0  0
  2  8  1  0  0  0  0
  3  4  1  0  0  0  0
  4  5  1  1  0  0  0
  4  6  1  0  0  0  0
  4 18  1  0  0  0  0
  6  7  2  0  0  0  0
  6  8  1  0  0  0  0
  8  9  1  0  0  0  0
  9 10  1  0  0  0  0
  9 27  1  0  0  0  0
 10 11  2  0  0  0  0
 10 12  2  0  0  0  0
 10 13  1  0  0  0  0
 13 14  2  0  0  0  0
 13 17  1  0  0  0  0
 14 15  1  0  0  0  0
 14 28  1  0  0  0  0
 15 16  2  0  0  0  0
 15 29  1  0  0  0  0
 16 17  1  0  0  0  0
 16 30  1  0  0  0  0
 18 19  1  0  0  0  0
 18 31  1  0  0  0  0
 18 32  1  0  0  0  0
 19 20  2  0  0  0  0
 19 24  1  0  0  0  0
 20 21  1  0  0  0  0
 20 33  1  0  0  0  0
 21 22  2  0  0  0  0
 21 34  1  0  0  0  0
 22 23  1  0  0  0  0
 22 26  1  0  0  0  0
 23 24  2  0  0  0  0
 23 25  1  0  0  0  0
 24 35  1  0  0  0  0
M  END
$$$$
