5EL
 OpenBabel04121316063D

 61 65  0  0  1  0  0  0  0  0999 V2000
    0.9511   -0.0225   -0.0203 O   0  0  0  0  0  0  0  0  0  0  0  0
    2.1739   -0.0002   -0.0407 C   0  0  0  0  0  0  0  0  0  0  0  0
    2.8714    0.5659   -1.1974 C   0  0  0  0  0  0  0  0  0  0  0  0
    2.9166    1.9457   -1.4025 C   0  0  0  0  0  0  0  0  0  0  0  0
    3.3679    2.4398   -2.6310 C   0  0  0  0  0  0  0  0  0  0  0  0
    3.9979    1.5773   -3.5217 C   0  0  0  0  0  0  0  0  0  0  0  0
    4.2485    0.2729   -3.0845 C   0  0  0  0  0  0  0  0  0  0  0  0
    3.5127   -0.2943   -2.0644 C   0  0  0  0  0  0  0  0  0  0  0  0
    4.3731    2.0858   -4.7532 O   0  0  0  0  0  0  0  0  0  0  0  0
    4.6610    1.2368   -5.8073 C   0  0  0  0  0  0  0  0  0  0  0  0
    5.2313    1.7783   -6.9597 C   0  0  0  0  0  0  0  0  0  0  0  0
    5.4079    0.9518   -8.0788 C   0  0  0  0  0  0  0  0  0  0  0  0
    5.2325   -0.4278   -7.9524 C   0  0  0  0  0  0  0  0  0  0  0  0
    4.8701   -0.9869   -6.7565 C   0  0  0  0  0  0  0  0  0  0  0  0
    4.3801   -0.1311   -5.8066 C   0  0  0  0  0  0  0  0  0  0  0  0
    5.2259   -1.3127   -9.0579 C   0  0  0  0  0  0  0  0  0  0  0  0
    5.1650   -2.0767   -9.9651 C   0  0  0  0  0  0  0  0  0  0  0  0
    5.3403   -2.8309  -11.1997 C   0  0  2  0  0  0  0  0  0  0  0  0
    4.7600   -2.0279  -12.2283 O   0  0  0  0  0  0  0  0  0  0  0  0
    4.7169   -4.2545  -11.2356 C   0  0  0  0  0  0  0  0  0  0  0  0
    5.7264   -5.2930  -11.6101 N   0  0  3  0  0  0  0  0  0  0  0  0
    6.7383   -5.3389  -10.5327 C   0  0  0  0  0  0  0  0  0  0  0  0
    7.4356   -3.9808  -10.3629 C   0  0  0  0  0  0  0  0  0  0  0  0
    6.8740   -2.9703  -11.3947 C   0  0  1  0  0  0  0  0  0  0  0  0
    7.3838   -2.0037  -11.2981 H   0  0  0  0  0  0  0  0  0  0  0  0
    7.1146   -3.5510  -12.7838 C   0  0  0  0  0  0  0  0  0  0  0  0
    6.4023   -4.9081  -12.8772 C   0  0  0  0  0  0  0  0  0  0  0  0
    2.9336   -0.5103    0.9720 N   0  0  0  0  0  0  0  0  0  0  0  0
    4.3759   -0.5142    1.0259 C   0  0  0  0  0  0  0  0  0  0  0  0
    4.8512   -1.1107    2.3083 C   0  0  0  0  0  0  0  0  0  0  0  0
    5.4780   -0.3331    3.2803 C   0  0  0  0  0  0  0  0  0  0  0  0
    5.9738   -0.9719    4.4016 C   0  0  0  0  0  0  0  0  0  0  0  0
    5.7498   -2.2740    4.6797 N   0  0  0  0  0  0  0  0  0  0  0  0
    5.0380   -2.9776    3.7744 C   0  0  0  0  0  0  0  0  0  0  0  0
    4.6369   -2.4673    2.5567 C   0  0  0  0  0  0  0  0  0  0  0  0
    2.5844    2.6214   -0.6222 H   0  0  0  0  0  0  0  0  0  0  0  0
    3.2496    3.4923   -2.8713 H   0  0  0  0  0  0  0  0  0  0  0  0
    4.9665   -0.3697   -3.5785 H   0  0  0  0  0  0  0  0  0  0  0  0
    3.4981   -1.3729   -1.9324 H   0  0  0  0  0  0  0  0  0  0  0  0
    5.4740    2.8355   -7.0274 H   0  0  0  0  0  0  0  0  0  0  0  0
    5.6537    1.3792   -9.0470 H   0  0  0  0  0  0  0  0  0  0  0  0
    4.8032   -2.0589   -6.6040 H   0  0  0  0  0  0  0  0  0  0  0  0
    3.7491   -0.6115   -5.0758 H   0  0  0  0  0  0  0  0  0  0  0  0
    4.5003   -2.6161  -12.9545 H   0  0  0  0  0  0  0  0  0  0  0  0
    3.9195   -4.3013  -11.9887 H   0  0  0  0  0  0  0  0  0  0  0  0
    4.2305   -4.5254  -10.2891 H   0  0  0  0  0  0  0  0  0  0  0  0
    7.4792   -6.1191  -10.7463 H   0  0  0  0  0  0  0  0  0  0  0  0
    6.2614   -5.6382   -9.5901 H   0  0  0  0  0  0  0  0  0  0  0  0
    8.5160   -4.0990  -10.5060 H   0  0  0  0  0  0  0  0  0  0  0  0
    7.2932   -3.6209   -9.3368 H   0  0  0  0  0  0  0  0  0  0  0  0
    8.1902   -3.6644  -12.9562 H   0  0  0  0  0  0  0  0  0  0  0  0
    6.7373   -2.8634  -13.5494 H   0  0  0  0  0  0  0  0  0  0  0  0
    7.1330   -5.6776  -13.1550 H   0  0  0  0  0  0  0  0  0  0  0  0
    5.6733   -4.8827  -13.6958 H   0  0  0  0  0  0  0  0  0  0  0  0
    2.4049   -0.8774    1.7545 H   0  0  0  0  0  0  0  0  0  0  0  0
    4.7414    0.5099    0.8947 H   0  0  0  0  0  0  0  0  0  0  0  0
    4.7626   -1.1119    0.1924 H   0  0  0  0  0  0  0  0  0  0  0  0
    5.5822    0.7412    3.1708 H   0  0  0  0  0  0  0  0  0  0  0  0
    6.5753   -0.4352    5.1291 H   0  0  0  0  0  0  0  0  0  0  0  0
    4.7682   -3.9869    4.0674 H   0  0  0  0  0  0  0  0  0  0  0  0
    4.1314   -3.0960    1.8302 H   0  0  0  0  0  0  0  0  0  0  0  0
  1  2  2  0  0  0  0
  2  3  1  0  0  0  0
  2 28  1  0  0  0  0
  3  4  2  0  0  0  0
  3  8  1  0  0  0  0
  4  5  1  0  0  0  0
  4 36  1  0  0  0  0
  5  6  2  0  0  0  0
  5 37  1  0  0  0  0
  6  7  1  0  0  0  0
  6  9  1  0  0  0  0
  7  8  2  0  0  0  0
  7 38  1  0  0  0  0
  8 39  1  0  0  0  0
  9 10  1  0  0  0  0
 10 11  2  0  0  0  0
 10 15  1  0  0  0  0
 11 12  1  0  0  0  0
 11 40  1  0  0  0  0
 12 13  2  0  0  0  0
 12 41  1  0  0  0  0
 13 14  1  0  0  0  0
 13 16  1  0  0  0  0
 14 15  2  0  0  0  0
 14 42  1  0  0  0  0
 15 43  1  0  0  0  0
 16 17  3  0  0  0  0
 18 20  1  0  0  0  0
 18 24  1  0  0  0  0
 18 17  1  1  0  0  0
 18 19  1  0  0  0  0
 19 44  1  0  0  0  0
 20 21  1  0  0  0  0
 20 45  1  0  0  0  0
 20 46  1  0  0  0  0
 21 22  1  0  0  0  0
 21 27  1  0  0  0  0
 22 23  1  0  0  0  0
 22 47  1  0  0  0  0
 22 48  1  0  0  0  0
 23 24  1  0  0  0  0
 23 49  1  0  0  0  0
 23 50  1  0  0  0  0
 24 26  1  0  0  0  0
 24 25  1  1  0  0  0
 26 27  1  0  0  0  0
 26 51  1  0  0  0  0
 26 52  1  0  0  0  0
 27 53  1  0  0  0  0
 27 54  1  0  0  0  0
 28 29  1  0  0  0  0
 28 55  1  0  0  0  0
 29 30  1  0  0  0  0
 29 56  1  0  0  0  0
 29 57  1  0  0  0  0
 30 31  2  0  0  0  0
 30 35  1  0  0  0  0
 31 32  1  0  0  0  0
 31 58  1  0  0  0  0
 32 33  2  0  0  0  0
 32 59  1  0  0  0  0
 33 34  1  0  0  0  0
 34 35  2  0  0  0  0
 34 60  1  0  0  0  0
 35 61  1  0  0  0  0
M  END
$$$$
