5FA
 OpenBabel04121316063D

 57 59  0  0  1  0  0  0  0  0999 V2000
   -1.6723   -0.5858    4.5333 O   0  0  0  0  0  0  0  0  0  0  0  0
   -1.5271    0.8035    4.9797 C   0  0  2  0  0  0  0  0  0  0  0  0
   -2.4045    1.4269    4.6354 H   0  0  0  0  0  0  0  0  0  0  0  0
   -0.2268    1.3585    4.5452 C   0  0  1  0  0  0  0  0  0  0  0  0
    0.0848    0.9874    3.5661 H   0  0  0  0  0  0  0  0  0  0  0  0
   -0.3139    2.8668    4.5993 C   0  0  0  0  0  0  0  0  0  0  0  0
   -1.2997    3.5078    3.6535 O   0  0  0  0  0  0  0  0  0  0  0  0
   -1.3992    5.2194    3.8848 P   0  0  1  0  0  0  0  0  0  0  0  0
   -0.0758    5.3510    4.6064 O   0  0  0  0  0  0  0  0  0  0  0  0
   -1.8361    5.7508    2.1965 O   0  0  0  0  0  0  0  0  0  0  0  0
   -1.1328    4.3190    0.8842 P   0  0  2  0  0  0  0  0  0  0  0  0
    0.1304    3.7712    1.5836 O   0  0  0  0  0  0  0  0  0  0  0  0
   -0.0469    4.4357   -0.5399 O   0  0  0  0  0  0  0  0  0  0  0  0
    1.5868    4.5476    0.1553 P   0  0  1  0  0  0  0  0  0  0  0  0
    1.9932    5.9188   -0.2870 O   0  0  0  0  0  0  0  0  0  0  0  0
    1.5246    4.3590    2.1046 O   0  0  0  0  0  0  0  0  0  0  0  0
   -0.6872    4.3353    2.5484 P   0  0  2  0  0  0  0  0  0  0  0  0
   -0.2544    2.4417    2.5518 O   0  0  0  0  0  0  0  0  0  0  0  0
   -1.8052    2.8966    0.8459 O   0  0  0  0  0  0  0  0  0  0  0  0
   -2.1172    1.5141    1.8381 P   0  0  0  0  0  0  0  0  0  0  0  0
   -3.1978    2.3189    2.5732 O   0  0  0  0  0  0  0  0  0  0  0  0
   -2.7548    0.7469    0.5448 O   0  0  0  0  0  0  0  0  0  0  0  0
   -2.4292    0.1317    2.8302 O   0  0  0  0  0  0  0  0  0  0  0  0
   -0.3516    5.9506    1.1047 O   0  0  0  0  0  0  0  0  0  0  0  0
    2.9159    3.6666   -0.2429 O   0  0  0  0  0  0  0  0  0  0  0  0
   -2.5478    4.9327    0.1007 O   0  0  0  0  0  0  0  0  0  0  0  0
   -1.4988    6.9310    4.1161 O   0  0  0  0  0  0  0  0  0  0  0  0
    0.6710    0.8417    5.5013 O   0  0  0  0  0  0  0  0  0  0  0  0
   -0.0857    0.6622    6.7216 C   0  0  2  0  0  0  0  0  0  0  0  0
    0.1964   -0.2768    7.1840 H   0  0  0  0  0  0  0  0  0  0  0  0
   -1.5672    0.6414    6.4170 C   0  0  2  0  0  0  0  0  0  0  0  0
   -2.1662    1.4564    6.8000 H   0  0  0  0  0  0  0  0  0  0  0  0
   -2.2216   -0.5770    6.7423 O   0  0  0  0  0  0  0  0  0  0  0  0
    0.2163    1.7485    7.6340 N   0  0  0  0  0  0  0  0  0  0  0  0
   -0.2290    3.0287    7.5553 C   0  0  0  0  0  0  0  0  0  0  0  0
    0.1355    3.8184    8.5103 N   0  0  0  0  0  0  0  0  0  0  0  0
    0.7928    2.9778    9.3359 C   0  0  0  0  0  0  0  0  0  0  0  0
    0.8484    1.6797    8.8416 C   0  0  0  0  0  0  0  0  0  0  0  0
    1.4096    0.6267    9.4525 N   0  0  0  0  0  0  0  0  0  0  0  0
    1.9595    0.9935   10.6362 C   0  0  0  0  0  0  0  0  0  0  0  0
    1.9679    2.2148   11.2214 N   0  0  0  0  0  0  0  0  0  0  0  0
    1.3779    3.2377   10.5719 C   0  0  0  0  0  0  0  0  0  0  0  0
    1.3574    4.4962   11.1311 N   0  0  0  0  0  0  0  0  0  0  0  0
   -0.8790   -1.1250    4.4035 H   0  0  0  0  0  0  0  0  0  0  0  0
    0.6640    3.3411    4.4833 H   0  0  0  0  0  0  0  0  0  0  0  0
   -0.8135    3.1664    5.4303 H   0  0  0  0  0  0  0  0  0  0  0  0
   -2.6787    1.2327   -0.2931 H   0  0  0  0  0  0  0  0  0  0  0  0
   -2.4304    0.1278    3.7415 H   0  0  0  0  0  0  0  0  0  0  0  0
   -1.2805    6.0352    0.3283 H   0  0  0  0  0  0  0  0  0  0  0  0
    3.6325    4.1816   -0.7012 H   0  0  0  0  0  0  0  0  0  0  0  0
   -2.7428    4.3871   -0.6927 H   0  0  0  0  0  0  0  0  0  0  0  0
   -1.4796    7.1387    5.0706 H   0  0  0  0  0  0  0  0  0  0  0  0
   -2.1777   -0.6719    7.6965 H   0  0  0  0  0  0  0  0  0  0  0  0
   -0.9156    3.4404    6.8783 H   0  0  0  0  0  0  0  0  0  0  0  0
    2.4601    0.2045   11.1967 H   0  0  0  0  0  0  0  0  0  0  0  0
    1.8030    4.6498   12.0180 H   0  0  0  0  0  0  0  0  0  0  0  0
    0.9196    5.2570   10.6295 H   0  0  0  0  0  0  0  0  0  0  0  0
  1 44  1  0  0  0  0
  2  4  1  0  0  0  0
  2 31  1  0  0  0  0
  2  3  1  6  0  0  0
  2  1  1  0  0  0  0
  4  5  1  6  0  0  0
  4  6  1  0  0  0  0
  4 28  1  0  0  0  0
  6  7  1  0  0  0  0
  6 45  1  0  0  0  0
  6 46  1  0  0  0  0
  8  7  1  1  0  0  0
  8  9  2  0  0  0  0
  8 10  1  0  0  0  0
  8 27  1  0  0  0  0
 11 13  1  6  0  0  0
 11 26  1  0  0  0  0
 11 12  2  0  0  0  0
 11 10  1  0  0  0  0
 14 13  1  6  0  0  0
 14 15  2  0  0  0  0
 14 16  1  0  0  0  0
 14 25  1  0  0  0  0
 17 19  1  6  0  0  0
 17 24  1  0  0  0  0
 17 18  2  0  0  0  0
 17 16  1  0  0  0  0
 19 20  1  0  0  0  0
 20 21  2  0  0  0  0
 20 22  1  0  0  0  0
 20 23  1  0  0  0  0
 22 47  1  0  0  0  0
 23 48  1  0  0  0  0
 24 49  1  0  0  0  0
 25 50  1  0  0  0  0
 26 51  1  0  0  0  0
 27 52  1  0  0  0  0
 28 29  1  0  0  0  0
 29 31  1  0  0  0  0
 29 34  1  0  0  0  0
 29 30  1  1  0  0  0
 31 32  1  1  0  0  0
 31 33  1  0  0  0  0
 33 53  1  0  0  0  0
 34 35  1  0  0  0  0
 34 38  1  0  0  0  0
 35 36  2  0  0  0  0
 35 54  1  0  0  0  0
 36 37  1  0  0  0  0
 37 38  2  0  0  0  0
 37 42  1  0  0  0  0
 38 39  1  0  0  0  0
 39 40  2  0  0  0  0
 40 41  1  0  0  0  0
 40 55  1  0  0  0  0
 41 42  2  0  0  0  0
 42 43  1  0  0  0  0
 43 56  1  0  0  0  0
 43 57  1  0  0  0  0
M  END
$$$$
