5FD
 OpenBabel04121316063D

 33 35  0  0  1  0  0  0  0  0999 V2000
    0.9534    0.1765   -0.1768 F   0  0  0  0  0  0  0  0  0  0  0  0
    2.3013    0.1551   -0.0575 C   0  0  0  0  0  0  0  0  0  0  0  0
    2.9244    1.5460   -0.2647 C   0  0  1  0  0  0  0  0  0  0  0  0
    3.2323    1.6103   -1.3188 H   0  0  0  0  0  0  0  0  0  0  0  0
    2.1063    2.7024    0.0169 O   0  0  0  0  0  0  0  0  0  0  0  0
    3.0406    3.8048    0.1908 C   0  0  2  0  0  0  0  0  0  0  0  0
    3.4062    4.0948   -0.8051 H   0  0  0  0  0  0  0  0  0  0  0  0
    4.1945    3.1905    0.9940 C   0  0  1  0  0  0  0  0  0  0  0  0
    4.0263    3.3063    2.0675 H   0  0  0  0  0  0  0  0  0  0  0  0
    4.1069    1.6928    0.6814 C   0  0  2  0  0  0  0  0  0  0  0  0
    3.8895    1.1840    1.6274 H   0  0  0  0  0  0  0  0  0  0  0  0
    5.2755    1.0943    0.1478 O   0  0  0  0  0  0  0  0  0  0  0  0
    5.4845    3.7151    0.6999 O   0  0  0  0  0  0  0  0  0  0  0  0
    2.3796    4.9633    0.7581 N   0  0  0  0  0  0  0  0  0  0  0  0
    1.2499    5.4844    0.2153 C   0  0  0  0  0  0  0  0  0  0  0  0
    0.4462    6.1642    0.9698 N   0  0  0  0  0  0  0  0  0  0  0  0
    1.1061    6.0661    2.3252 C   0  0  1  0  0  0  0  0  0  0  0  0
    0.5831    5.3237    2.9394 H   0  0  0  0  0  0  0  0  0  0  0  0
    2.5872    5.6271    2.0382 C   0  0  2  0  0  0  0  0  0  0  0  0
    2.9234    4.9515    2.8315 H   0  0  0  0  0  0  0  0  0  0  0  0
    3.5768    6.7285    1.9140 N   0  0  0  0  0  0  0  0  0  0  0  0
    3.1651    7.9219    2.1486 C   0  0  0  0  0  0  0  0  0  0  0  0
    1.9379    8.3128    2.5992 N   0  0  0  0  0  0  0  0  0  0  0  0
    0.9353    7.4539    2.9027 C   0  0  0  0  0  0  0  0  0  0  0  0
   -0.1583    7.7695    3.5299 N   0  0  0  0  0  0  0  0  0  0  0  0
    2.6992   -0.5500   -0.7990 H   0  0  0  0  0  0  0  0  0  0  0  0
    2.5460   -0.2771    0.9197 H   0  0  0  0  0  0  0  0  0  0  0  0
    6.0152    1.4133    0.6982 H   0  0  0  0  0  0  0  0  0  0  0  0
    5.4323    4.6808    0.8345 H   0  0  0  0  0  0  0  0  0  0  0  0
    1.0920    5.3344   -0.8624 H   0  0  0  0  0  0  0  0  0  0  0  0
    3.8480    8.7807    2.0193 H   0  0  0  0  0  0  0  0  0  0  0  0
    1.6477    9.2619    2.3969 H   0  0  0  0  0  0  0  0  0  0  0  0
   -0.1748    8.7531    3.7928 H   0  0  0  0  0  0  0  0  0  0  0  0
  1  2  1  0  0  0  0
  2  3  1  0  0  0  0
  2 26  1  0  0  0  0
  2 27  1  0  0  0  0
  3  4  1  6  0  0  0
  3  5  1  0  0  0  0
  3 10  1  0  0  0  0
  5  6  1  0  0  0  0
  6  8  1  0  0  0  0
  6 14  1  0  0  0  0
  6  7  1  6  0  0  0
  8  9  1  1  0  0  0
  8 10  1  0  0  0  0
  8 13  1  0  0  0  0
 10 11  1  1  0  0  0
 10 12  1  0  0  0  0
 12 28  1  0  0  0  0
 13 29  1  0  0  0  0
 14 15  1  0  0  0  0
 14 19  1  0  0  0  0
 15 16  2  0  0  0  0
 15 30  1  0  0  0  0
 16 17  1  0  0  0  0
 17 19  1  0  0  0  0
 17 24  1  0  0  0  0
 17 18  1  1  0  0  0
 19 21  1  0  0  0  0
 19 20  1  1  0  0  0
 21 22  2  0  0  0  0
 22 23  1  0  0  0  0
 22 31  1  0  0  0  0
 23 24  1  0  0  0  0
 23 32  1  0  0  0  0
 24 25  2  0  0  0  0
 25 33  1  0  0  0  0
M  END
$$$$
