5FN
 OpenBabel04121316063D

 27 28  0  0  1  0  0  0  0  0999 V2000
    0.8822   -0.1340   -0.1024 O   0  0  0  0  0  0  0  0  0  0  0  0
    2.2632    0.0663    0.1831 C   0  0  0  0  0  0  0  0  0  0  0  0
    2.7744   -0.7569    1.4100 C   0  0  1  0  0  0  0  0  0  0  0  0
    3.1875    0.1909    2.3173 F   0  0  0  0  0  0  0  0  0  0  0  0
    1.8102   -1.5656    2.1121 O   0  0  0  0  0  0  0  0  0  0  0  0
    1.3473   -2.7356    1.4405 C   0  0  2  0  0  0  0  0  0  0  0  0
    0.4346   -2.4399    0.9106 H   0  0  0  0  0  0  0  0  0  0  0  0
    0.9778   -3.8174    2.3385 O   0  0  0  0  0  0  0  0  0  0  0  0
    1.7677   -4.8675    2.0138 C   0  0  0  0  0  0  0  0  0  0  0  0
    2.6123   -4.7508    1.0541 N   0  0  0  0  0  0  0  0  0  0  0  0
    2.2879   -3.4395    0.4686 C   0  0  2  0  0  0  0  0  0  0  0  0
    1.7070   -3.6754   -0.4320 H   0  0  0  0  0  0  0  0  0  0  0  0
    3.5660   -2.7129    0.0735 C   0  0  2  0  0  0  0  0  0  0  0  0
    4.3837   -3.4372   -0.0134 H   0  0  0  0  0  0  0  0  0  0  0  0
    3.9925   -1.6309    1.0737 C   0  0  2  0  0  0  0  0  0  0  0  0
    4.8038   -1.0134    0.6716 H   0  0  0  0  0  0  0  0  0  0  0  0
    4.4839   -2.2378    2.2858 O   0  0  0  0  0  0  0  0  0  0  0  0
    3.4046   -2.1810   -1.2502 O   0  0  0  0  0  0  0  0  0  0  0  0
    1.6379   -6.1698    2.7475 C   0  0  0  0  0  0  0  0  0  0  0  0
    0.6495    0.4534   -0.8442 H   0  0  0  0  0  0  0  0  0  0  0  0
    2.4594    1.1371    0.3285 H   0  0  0  0  0  0  0  0  0  0  0  0
    2.8118   -0.1436   -0.7358 H   0  0  0  0  0  0  0  0  0  0  0  0
    5.1868   -2.8695    2.0635 H   0  0  0  0  0  0  0  0  0  0  0  0
    2.4551   -2.0129   -1.4082 H   0  0  0  0  0  0  0  0  0  0  0  0
    0.8470   -6.1876    3.4969 H   0  0  0  0  0  0  0  0  0  0  0  0
    2.5959   -6.4097    3.2203 H   0  0  0  0  0  0  0  0  0  0  0  0
    1.4371   -6.9655    2.0162 H   0  0  0  0  0  0  0  0  0  0  0  0
  1  2  1  0  0  0  0
  1 20  1  0  0  0  0
  2 21  1  0  0  0  0
  2 22  1  0  0  0  0
  3  2  1  6  0  0  0
  3  4  1  0  0  0  0
  3  5  1  0  0  0  0
  3 15  1  0  0  0  0
  5  6  1  0  0  0  0
  6  7  1  6  0  0  0
  6  8  1  0  0  0  0
  6 11  1  0  0  0  0
  8  9  1  0  0  0  0
  9 10  2  0  0  0  0
  9 19  1  0  0  0  0
 10 11  1  0  0  0  0
 11 12  1  6  0  0  0
 11 13  1  0  0  0  0
 13 15  1  0  0  0  0
 13 18  1  0  0  0  0
 13 14  1  6  0  0  0
 15 16  1  6  0  0  0
 15 17  1  0  0  0  0
 17 23  1  0  0  0  0
 18 24  1  0  0  0  0
 19 25  1  0  0  0  0
 19 26  1  0  0  0  0
 19 27  1  0  0  0  0
M  END
$$$$
