5FP
 OpenBabel04121316063D

 93 92  0  0  1  0  0  0  0  0999 V2000
   -3.8724   14.5769    9.0481 O   0  0  0  0  0  0  0  0  0  0  0  0
   -2.7013   14.6891    8.6986 C   0  0  0  0  0  0  0  0  0  0  0  0
   -1.5552   14.1806    9.5744 C   0  0  0  0  0  0  0  0  0  0  0  0
   -1.9868   12.8842   10.2429 C   0  0  1  0  0  0  0  0  0  0  0  0
   -2.9310   12.9965   10.7856 H   0  0  0  0  0  0  0  0  0  0  0  0
   -2.0463   11.7583    9.1840 C   0  0  2  0  0  0  0  0  0  0  0  0
   -1.0295   11.3659    9.0361 H   0  0  0  0  0  0  0  0  0  0  0  0
   -2.6117   12.0442    7.7988 C   0  0  0  0  0  0  0  0  0  0  0  0
   -2.6361   11.0378    6.9048 F   0  0  0  0  0  0  0  0  0  0  0  0
   -3.8831   12.4735    7.8448 F   0  0  0  0  0  0  0  0  0  0  0  0
   -1.7864   12.9174    7.2000 F   0  0  0  0  0  0  0  0  0  0  0  0
   -2.7881   10.6790    9.6917 N   0  0  0  0  0  0  0  0  0  0  0  0
   -4.0915   10.6989   10.0699 C   0  0  0  0  0  0  0  0  0  0  0  0
   -4.7842   11.6866   10.3326 O   0  0  0  0  0  0  0  0  0  0  0  0
   -4.5462    9.2770   10.1881 C   0  0  2  0  0  0  0  0  0  0  0  0
   -5.5593    9.3138   10.6191 H   0  0  0  0  0  0  0  0  0  0  0  0
   -3.6023    8.4649   11.1130 C   0  0  0  0  0  0  0  0  0  0  0  0
   -2.1781    8.1690   10.5977 C   0  0  0  0  0  0  0  0  0  0  0  0
   -3.4569    9.2181   12.4331 C   0  0  0  0  0  0  0  0  0  0  0  0
   -4.6984    8.7113    8.8527 N   0  0  0  0  0  0  0  0  0  0  0  0
   -3.7469    8.5209    7.8741 C   0  0  0  0  0  0  0  0  0  0  0  0
   -2.6180    9.0152    7.9053 O   0  0  0  0  0  0  0  0  0  0  0  0
   -4.0724    7.6356    6.6815 C   0  0  2  0  0  0  0  0  0  0  0  0
   -4.0474    8.3218    5.8215 H   0  0  0  0  0  0  0  0  0  0  0  0
   -5.4341    6.9308    6.7184 C   0  0  0  0  0  0  0  0  0  0  0  0
   -5.5359    5.8668    7.8143 C   0  0  0  0  0  0  0  0  0  0  0  0
   -6.6121    7.9174    6.7694 C   0  0  0  0  0  0  0  0  0  0  0  0
   -2.9336    6.7096    6.4748 N   0  0  0  0  0  0  0  0  0  0  0  0
   -2.5129    5.8885    7.4969 C   0  0  0  0  0  0  0  0  0  0  0  0
   -2.9723    5.9610    8.6328 O   0  0  0  0  0  0  0  0  0  0  0  0
   -1.4827    4.8468    7.1632 C   0  0  0  0  0  0  0  0  0  0  0  0
   -1.4715    3.7842    8.2870 C   0  0  0  0  0  0  0  0  0  0  0  0
   -2.7877    2.9948    8.3576 C   0  0  0  0  0  0  0  0  0  0  0  0
   -0.3176    2.8184    8.0816 C   0  0  0  0  0  0  0  0  0  0  0  0
   -1.0265   12.5332   11.2729 O   0  0  0  0  0  0  0  0  0  0  0  0
   -2.3520   15.0673    7.4152 N   0  0  0  0  0  0  0  0  0  0  0  0
   -3.3129   14.8884    6.3021 C   0  0  2  0  0  0  0  0  0  0  0  0
   -4.0084   14.0667    6.5066 H   0  0  0  0  0  0  0  0  0  0  0  0
   -2.6997   14.5544    4.9186 C   0  0  0  0  0  0  0  0  0  0  0  0
   -2.8402   15.3124    3.9595 O   0  0  0  0  0  0  0  0  0  0  0  0
   -2.0499   13.3510    4.7460 N   0  0  0  0  0  0  0  0  0  0  0  0
   -1.2716   13.1110    3.5114 C   0  0  1  0  0  0  0  0  0  0  0  0
   -1.9961   13.2215    2.6975 H   0  0  0  0  0  0  0  0  0  0  0  0
   -0.1343   14.1404    3.2830 C   0  0  0  0  0  0  0  0  0  0  0  0
    0.7548   14.0822    4.3081 F   0  0  0  0  0  0  0  0  0  0  0  0
    0.5609   13.8926    2.1524 F   0  0  0  0  0  0  0  0  0  0  0  0
   -0.5523   15.4179    3.2034 F   0  0  0  0  0  0  0  0  0  0  0  0
   -0.6491   11.6771    3.4952 C   0  0  2  0  0  0  0  0  0  0  0  0
    0.3910   11.7128    3.1453 H   0  0  0  0  0  0  0  0  0  0  0  0
   -1.4334   10.7081    2.5918 C   0  0  0  0  0  0  0  0  0  0  0  0
   -1.4274   11.2039    1.1641 C   0  0  0  0  0  0  0  0  0  0  0  0
   -0.8515   12.2155    0.7987 O   0  0  0  0  0  0  0  0  0  0  0  0
   -2.1204   10.4442    0.2976 O   0  0  0  0  0  0  0  0  0  0  0  0
   -0.6188   11.1427    4.8330 O   0  0  0  0  0  0  0  0  0  0  0  0
   -4.1059   16.1678    6.2049 C   0  0  0  0  0  0  0  0  0  0  0  0
   -1.2875   14.9336   10.3131 H   0  0  0  0  0  0  0  0  0  0  0  0
   -0.6503   13.9355    9.0048 H   0  0  0  0  0  0  0  0  0  0  0  0
   -2.5792    9.8681    9.1130 H   0  0  0  0  0  0  0  0  0  0  0  0
   -4.0860    7.4961   11.2800 H   0  0  0  0  0  0  0  0  0  0  0  0
   -1.5443    9.0519   10.4856 H   0  0  0  0  0  0  0  0  0  0  0  0
   -2.2008    7.6761    9.6390 H   0  0  0  0  0  0  0  0  0  0  0  0
   -1.6120    7.5233   11.2615 H   0  0  0  0  0  0  0  0  0  0  0  0
   -3.0419   10.2229   12.2827 H   0  0  0  0  0  0  0  0  0  0  0  0
   -2.7673    8.6887   13.0900 H   0  0  0  0  0  0  0  0  0  0  0  0
   -4.4267    9.3331   12.9223 H   0  0  0  0  0  0  0  0  0  0  0  0
   -5.4832    8.0909    8.8657 H   0  0  0  0  0  0  0  0  0  0  0  0
   -5.5177    6.3967    5.7645 H   0  0  0  0  0  0  0  0  0  0  0  0
   -5.2768    6.2351    8.8118 H   0  0  0  0  0  0  0  0  0  0  0  0
   -4.8579    5.0475    7.5752 H   0  0  0  0  0  0  0  0  0  0  0  0
   -6.5249    5.4229    7.8849 H   0  0  0  0  0  0  0  0  0  0  0  0
   -6.6749    8.5670    7.6439 H   0  0  0  0  0  0  0  0  0  0  0  0
   -7.5500    7.3614    6.7733 H   0  0  0  0  0  0  0  0  0  0  0  0
   -6.5744    8.6008    5.9182 H   0  0  0  0  0  0  0  0  0  0  0  0
   -2.3018    6.8795    5.7032 H   0  0  0  0  0  0  0  0  0  0  0  0
   -0.5123    5.3520    7.1037 H   0  0  0  0  0  0  0  0  0  0  0  0
   -1.7052    4.3859    6.1950 H   0  0  0  0  0  0  0  0  0  0  0  0
   -1.3233    4.2831    9.2558 H   0  0  0  0  0  0  0  0  0  0  0  0
   -2.9874    2.4789    7.4136 H   0  0  0  0  0  0  0  0  0  0  0  0
   -3.6470    3.6320    8.5742 H   0  0  0  0  0  0  0  0  0  0  0  0
   -2.7557    2.2539    9.1625 H   0  0  0  0  0  0  0  0  0  0  0  0
   -0.4329    2.2790    7.1369 H   0  0  0  0  0  0  0  0  0  0  0  0
   -0.2830    2.0875    8.8959 H   0  0  0  0  0  0  0  0  0  0  0  0
    0.6346    3.3561    8.0643 H   0  0  0  0  0  0  0  0  0  0  0  0
   -1.2235   13.0850   12.0550 H   0  0  0  0  0  0  0  0  0  0  0  0
   -1.3805   15.2154    7.1754 H   0  0  0  0  0  0  0  0  0  0  0  0
   -1.9259   12.6767    5.4984 H   0  0  0  0  0  0  0  0  0  0  0  0
   -2.4598   10.6060    2.9592 H   0  0  0  0  0  0  0  0  0  0  0  0
   -0.9641    9.7168    2.6261 H   0  0  0  0  0  0  0  0  0  0  0  0
   -2.5539    9.6534    0.6624 H   0  0  0  0  0  0  0  0  0  0  0  0
   -0.1133   10.3095    4.8277 H   0  0  0  0  0  0  0  0  0  0  0  0
   -4.8171   16.1422    5.3757 H   0  0  0  0  0  0  0  0  0  0  0  0
   -3.4071   16.9949    6.0484 H   0  0  0  0  0  0  0  0  0  0  0  0
   -4.6486   16.3415    7.1365 H   0  0  0  0  0  0  0  0  0  0  0  0
  1  2  2  0  0  0  0
  2  3  1  0  0  0  0
  2 36  1  0  0  0  0
  3  4  1  0  0  0  0
  3 56  1  0  0  0  0
  3 57  1  0  0  0  0
  4  5  1  1  0  0  0
  4 35  1  0  0  0  0
  6  8  1  0  0  0  0
  6 12  1  0  0  0  0
  6  7  1  6  0  0  0
  6  4  1  0  0  0  0
  8  9  1  0  0  0  0
  8 10  1  0  0  0  0
  8 11  1  0  0  0  0
 12 13  1  0  0  0  0
 12 58  1  0  0  0  0
 13 14  2  0  0  0  0
 15 17  1  0  0  0  0
 15 20  1  0  0  0  0
 15 16  1  1  0  0  0
 15 13  1  0  0  0  0
 17 18  1  0  0  0  0
 17 19  1  0  0  0  0
 17 59  1  0  0  0  0
 18 60  1  0  0  0  0
 18 61  1  0  0  0  0
 18 62  1  0  0  0  0
 19 63  1  0  0  0  0
 19 64  1  0  0  0  0
 19 65  1  0  0  0  0
 20 21  1  0  0  0  0
 20 66  1  0  0  0  0
 21 22  2  0  0  0  0
 23 25  1  0  0  0  0
 23 28  1  0  0  0  0
 23 24  1  6  0  0  0
 23 21  1  0  0  0  0
 25 26  1  0  0  0  0
 25 27  1  0  0  0  0
 25 67  1  0  0  0  0
 26 68  1  0  0  0  0
 26 69  1  0  0  0  0
 26 70  1  0  0  0  0
 27 71  1  0  0  0  0
 27 72  1  0  0  0  0
 27 73  1  0  0  0  0
 28 29  1  0  0  0  0
 28 74  1  0  0  0  0
 29 30  2  0  0  0  0
 29 31  1  0  0  0  0
 31 32  1  0  0  0  0
 31 75  1  0  0  0  0
 31 76  1  0  0  0  0
 32 33  1  0  0  0  0
 32 34  1  0  0  0  0
 32 77  1  0  0  0  0
 33 78  1  0  0  0  0
 33 79  1  0  0  0  0
 33 80  1  0  0  0  0
 34 81  1  0  0  0  0
 34 82  1  0  0  0  0
 34 83  1  0  0  0  0
 35 84  1  0  0  0  0
 36 85  1  0  0  0  0
 37 39  1  0  0  0  0
 37 55  1  0  0  0  0
 37 38  1  1  0  0  0
 37 36  1  0  0  0  0
 39 40  2  0  0  0  0
 39 41  1  0  0  0  0
 41 42  1  0  0  0  0
 41 86  1  0  0  0  0
 42 43  1  6  0  0  0
 42 44  1  0  0  0  0
 44 45  1  0  0  0  0
 44 46  1  0  0  0  0
 44 47  1  0  0  0  0
 48 50  1  0  0  0  0
 48 54  1  0  0  0  0
 48 49  1  6  0  0  0
 48 42  1  0  0  0  0
 50 51  1  0  0  0  0
 50 87  1  0  0  0  0
 50 88  1  0  0  0  0
 51 52  2  0  0  0  0
 51 53  1  0  0  0  0
 53 89  1  0  0  0  0
 54 90  1  0  0  0  0
 55 91  1  0  0  0  0
 55 92  1  0  0  0  0
 55 93  1  0  0  0  0
M  END
$$$$
