5HI
 OpenBabel04121316063D

 72 74  0  0  1  0  0  0  0  0999 V2000
    8.3365   10.7996    5.6167 O   0  0  0  0  0  0  0  0  0  0  0  0
    9.5357   11.0779    6.3355 C   0  0  0  0  0  0  0  0  0  0  0  0
   10.8187   10.7230    5.5617 C   0  0  2  0  0  0  0  0  0  0  0  0
   11.7013   11.0361    6.1443 H   0  0  0  0  0  0  0  0  0  0  0  0
   10.8548   11.5500    4.2536 C   0  0  0  0  0  0  0  0  0  0  0  0
   10.9551   12.9284    4.0898 C   0  0  0  0  0  0  0  0  0  0  0  0
   10.6577   13.5201    2.8261 C   0  0  0  0  0  0  0  0  0  0  0  0
   10.4625   12.7546    1.6721 C   0  0  0  0  0  0  0  0  0  0  0  0
   10.4888   11.4000    1.7975 C   0  0  0  0  0  0  0  0  0  0  0  0
   10.4954   10.9084    3.0959 C   0  0  0  0  0  0  0  0  0  0  0  0
   10.9738    9.1866    5.4736 N   0  0  0  0  0  0  0  0  0  0  0  0
   10.0197    8.2466    5.0074 C   0  0  0  0  0  0  0  0  0  0  0  0
    8.9246    8.5828    4.6137 O   0  0  0  0  0  0  0  0  0  0  0  0
   10.4658    6.8386    4.7989 C   0  0  0  0  0  0  0  0  0  0  0  0
    9.9932    5.6904    5.4639 N   0  0  0  0  0  0  0  0  0  0  0  0
   10.4264    4.6201    4.7870 C   0  0  0  0  0  0  0  0  0  0  0  0
   11.2283    5.0581    3.7422 N   0  0  0  0  0  0  0  0  0  0  0  0
   11.1548    6.4340    3.6741 C   0  0  0  0  0  0  0  0  0  0  0  0
   11.6973    7.1601    2.5015 C   0  0  0  0  0  0  0  0  0  0  0  0
   10.8651    6.8429    1.2409 C   0  0  0  0  0  0  0  0  0  0  0  0
   11.7573    8.6131    2.5020 C   0  0  0  0  0  0  0  0  0  0  0  0
   11.9801    4.1881    2.8366 C   0  0  0  0  0  0  0  0  0  0  0  0
   12.9991    4.8465    1.9019 C   0  0  0  0  0  0  0  0  0  0  0  0
   13.5536    4.0531    0.7695 C   0  0  2  0  0  0  0  0  0  0  0  0
   14.1802    4.7365    0.1782 H   0  0  0  0  0  0  0  0  0  0  0  0
   12.4924    3.4115   -0.1385 C   0  0  0  0  0  0  0  0  0  0  0  0
   11.5719    4.3498   -0.9585 C   0  0  2  0  0  0  0  0  0  0  0  0
   11.0577    5.0644   -0.3437 H   0  0  0  0  0  0  0  0  0  0  0  0
   10.4561    3.6068   -1.6994 C   0  0  0  0  0  0  0  0  0  0  0  0
    9.5322    2.9089   -0.7246 C   0  0  0  0  0  0  0  0  0  0  0  0
    9.5865    3.0203    0.4959 O   0  0  0  0  0  0  0  0  0  0  0  0
    8.5929    2.1451   -1.3115 O   0  0  0  0  0  0  0  0  0  0  0  0
   12.3558    5.1202   -1.8690 O   0  0  0  0  0  0  0  0  0  0  0  0
   14.3588    3.0866    1.4097 O   0  0  0  0  0  0  0  0  0  0  0  0
   10.1833    3.1713    5.0811 C   0  0  0  0  0  0  0  0  0  0  0  0
    9.8381    2.2339    4.0774 C   0  0  0  0  0  0  0  0  0  0  0  0
    9.5842    0.8845    4.3686 C   0  0  0  0  0  0  0  0  0  0  0  0
    9.7390    0.4325    5.6655 C   0  0  0  0  0  0  0  0  0  0  0  0
   10.1790    1.2986    6.6588 C   0  0  0  0  0  0  0  0  0  0  0  0
   10.3554    2.6675    6.3785 C   0  0  0  0  0  0  0  0  0  0  0  0
    9.4531   -0.8427    5.9634 F   0  0  0  0  0  0  0  0  0  0  0  0
    8.3674    9.8577    5.3338 H   0  0  0  0  0  0  0  0  0  0  0  0
    9.5036   10.5167    7.2718 H   0  0  0  0  0  0  0  0  0  0  0  0
    9.5044   12.1455    6.5639 H   0  0  0  0  0  0  0  0  0  0  0  0
   11.1383   13.5834    4.9351 H   0  0  0  0  0  0  0  0  0  0  0  0
   10.5241   14.5939    2.7429 H   0  0  0  0  0  0  0  0  0  0  0  0
   10.2050   13.1827    0.7090 H   0  0  0  0  0  0  0  0  0  0  0  0
   10.3623   10.7220    0.9575 H   0  0  0  0  0  0  0  0  0  0  0  0
   10.0623    9.9527    3.2723 H   0  0  0  0  0  0  0  0  0  0  0  0
   11.8653    8.8041    5.7593 H   0  0  0  0  0  0  0  0  0  0  0  0
   12.7703    6.9797    2.4979 H   0  0  0  0  0  0  0  0  0  0  0  0
    9.8952    7.3443    1.1822 H   0  0  0  0  0  0  0  0  0  0  0  0
   10.5918    5.7920    1.2260 H   0  0  0  0  0  0  0  0  0  0  0  0
   11.4406    7.1347    0.3500 H   0  0  0  0  0  0  0  0  0  0  0  0
   10.7256    8.8250    2.2713 H   0  0  0  0  0  0  0  0  0  0  0  0
   12.3462    9.0316    1.6848 H   0  0  0  0  0  0  0  0  0  0  0  0
   12.1558    8.9886    3.4381 H   0  0  0  0  0  0  0  0  0  0  0  0
   11.2271    3.6676    2.2527 H   0  0  0  0  0  0  0  0  0  0  0  0
   12.5096    3.4819    3.4808 H   0  0  0  0  0  0  0  0  0  0  0  0
   13.7936    5.2822    2.5199 H   0  0  0  0  0  0  0  0  0  0  0  0
   12.5997    5.6277    1.2928 H   0  0  0  0  0  0  0  0  0  0  0  0
   11.9023    2.7330    0.4804 H   0  0  0  0  0  0  0  0  0  0  0  0
   13.0276    2.7692   -0.8394 H   0  0  0  0  0  0  0  0  0  0  0  0
   10.8960    2.8973   -2.4042 H   0  0  0  0  0  0  0  0  0  0  0  0
    9.8573    4.3289   -2.2709 H   0  0  0  0  0  0  0  0  0  0  0  0
    8.5909    2.1686   -2.2859 H   0  0  0  0  0  0  0  0  0  0  0  0
   11.7999    5.8454   -2.2131 H   0  0  0  0  0  0  0  0  0  0  0  0
   14.9168    2.6922    0.7261 H   0  0  0  0  0  0  0  0  0  0  0  0
    9.7453    2.5202    3.0342 H   0  0  0  0  0  0  0  0  0  0  0  0
    9.2650    0.1969    3.5896 H   0  0  0  0  0  0  0  0  0  0  0  0
   10.3762    0.9025    7.6499 H   0  0  0  0  0  0  0  0  0  0  0  0
   10.6464    3.3373    7.1834 H   0  0  0  0  0  0  0  0  0  0  0  0
  1  2  1  0  0  0  0
  1 42  1  0  0  0  0
  2 43  1  0  0  0  0
  2 44  1  0  0  0  0
  3  5  1  0  0  0  0
  3 11  1  0  0  0  0
  3  4  1  1  0  0  0
  3  2  1  0  0  0  0
  5  6  2  0  0  0  0
  5 10  1  0  0  0  0
  6  7  1  0  0  0  0
  6 45  1  0  0  0  0
  7  8  2  0  0  0  0
  7 46  1  0  0  0  0
  8  9  1  0  0  0  0
  8 47  1  0  0  0  0
  9 10  2  0  0  0  0
  9 48  1  0  0  0  0
 10 49  1  0  0  0  0
 11 12  1  0  0  0  0
 11 50  1  0  0  0  0
 12 13  2  0  0  0  0
 12 14  1  0  0  0  0
 14 15  1  0  0  0  0
 14 18  2  0  0  0  0
 15 16  2  0  0  0  0
 16 17  1  0  0  0  0
 16 35  1  0  0  0  0
 17 18  1  0  0  0  0
 17 22  1  0  0  0  0
 18 19  1  0  0  0  0
 19 20  1  0  0  0  0
 19 21  1  0  0  0  0
 19 51  1  0  0  0  0
 20 52  1  0  0  0  0
 20 53  1  0  0  0  0
 20 54  1  0  0  0  0
 21 55  1  0  0  0  0
 21 56  1  0  0  0  0
 21 57  1  0  0  0  0
 22 23  1  0  0  0  0
 22 58  1  0  0  0  0
 22 59  1  0  0  0  0
 23 60  1  0  0  0  0
 23 61  1  0  0  0  0
 24 26  1  0  0  0  0
 24 34  1  0  0  0  0
 24 25  1  6  0  0  0
 24 23  1  0  0  0  0
 26 62  1  0  0  0  0
 26 63  1  0  0  0  0
 27 29  1  0  0  0  0
 27 33  1  0  0  0  0
 27 28  1  1  0  0  0
 27 26  1  0  0  0  0
 29 30  1  0  0  0  0
 29 64  1  0  0  0  0
 29 65  1  0  0  0  0
 30 31  2  0  0  0  0
 30 32  1  0  0  0  0
 32 66  1  0  0  0  0
 33 67  1  0  0  0  0
 34 68  1  0  0  0  0
 35 36  2  0  0  0  0
 35 40  1  0  0  0  0
 36 37  1  0  0  0  0
 36 69  1  0  0  0  0
 37 38  2  0  0  0  0
 37 70  1  0  0  0  0
 38 39  1  0  0  0  0
 38 41  1  0  0  0  0
 39 40  2  0  0  0  0
 39 71  1  0  0  0  0
 40 72  1  0  0  0  0
M  END
$$$$
