5HT
 OpenBabel04121316063D

 34 35  0  0  1  0  0  0  0  0999 V2000
    1.0409    0.0134    0.0479 O   0  0  0  0  0  0  0  0  0  0  0  0
    2.4613    0.0577   -0.0181 C   0  0  0  0  0  0  0  0  0  0  0  0
    3.0418    1.4605    0.2452 C   0  0  1  0  0  0  0  0  0  0  0  0
    4.1189    1.3747    0.0433 H   0  0  0  0  0  0  0  0  0  0  0  0
    2.5453    2.5397   -0.5833 O   0  0  0  0  0  0  0  0  0  0  0  0
    2.9500    3.7420    0.1148 C   0  0  2  0  0  0  0  0  0  0  0  0
    4.0139    3.8656   -0.1269 H   0  0  0  0  0  0  0  0  0  0  0  0
    2.8005    3.4517    1.5947 C   0  0  0  0  0  0  0  0  0  0  0  0
    2.8239    1.9333    1.6798 C   0  0  2  0  0  0  0  0  0  0  0  0
    1.8832    1.5580    2.0962 H   0  0  0  0  0  0  0  0  0  0  0  0
    3.8936    1.4835    2.5082 O   0  0  0  0  0  0  0  0  0  0  0  0
    2.2642    4.9125   -0.4151 N   0  0  0  0  0  0  0  0  0  0  0  0
    2.9937    6.1618   -0.6456 C   0  0  0  0  0  0  0  0  0  0  0  0
    2.6847    6.6496   -2.0593 C   0  0  1  0  0  0  0  0  0  0  0  0
    3.3774    7.9599   -2.3834 C   0  0  0  0  0  0  0  0  0  0  0  0
    3.1263    5.6368   -2.9795 O   0  0  0  0  0  0  0  0  0  0  0  0
    1.1636    6.7210   -2.1868 C   0  0  0  0  0  0  0  0  0  0  0  0
    0.5294    7.7037   -2.5704 O   0  0  0  0  0  0  0  0  0  0  0  0
    0.5554    5.5457   -1.8176 N   0  0  0  0  0  0  0  0  0  0  0  0
    0.8936    4.9635   -0.6095 C   0  0  0  0  0  0  0  0  0  0  0  0
    0.0574    4.5705    0.1811 O   0  0  0  0  0  0  0  0  0  0  0  0
    0.7790   -0.9055   -0.1439 H   0  0  0  0  0  0  0  0  0  0  0  0
    2.7676   -0.3121   -1.0021 H   0  0  0  0  0  0  0  0  0  0  0  0
    2.8432   -0.6443    0.7352 H   0  0  0  0  0  0  0  0  0  0  0  0
    1.8489    3.8273    1.9805 H   0  0  0  0  0  0  0  0  0  0  0  0
    3.5999    3.9301    2.1706 H   0  0  0  0  0  0  0  0  0  0  0  0
    3.7207    1.8116    3.4080 H   0  0  0  0  0  0  0  0  0  0  0  0
    4.0680    5.9968   -0.5156 H   0  0  0  0  0  0  0  0  0  0  0  0
    2.6602    6.8982    0.0999 H   0  0  0  0  0  0  0  0  0  0  0  0
    3.0621    8.7622   -1.7076 H   0  0  0  0  0  0  0  0  0  0  0  0
    3.1586    8.2746   -3.4099 H   0  0  0  0  0  0  0  0  0  0  0  0
    4.4646    7.8486   -2.3102 H   0  0  0  0  0  0  0  0  0  0  0  0
    2.6664    4.8166   -2.6988 H   0  0  0  0  0  0  0  0  0  0  0  0
   -0.4293    5.4990   -2.0302 H   0  0  0  0  0  0  0  0  0  0  0  0
  1  2  1  0  0  0  0
  1 22  1  0  0  0  0
  2  3  1  0  0  0  0
  2 23  1  0  0  0  0
  2 24  1  0  0  0  0
  3  4  1  6  0  0  0
  3  5  1  0  0  0  0
  3  9  1  0  0  0  0
  5  6  1  0  0  0  0
  6  8  1  0  0  0  0
  6 12  1  0  0  0  0
  6  7  1  6  0  0  0
  8  9  1  0  0  0  0
  8 25  1  0  0  0  0
  8 26  1  0  0  0  0
  9 10  1  1  0  0  0
  9 11  1  0  0  0  0
 11 27  1  0  0  0  0
 12 13  1  0  0  0  0
 12 20  1  0  0  0  0
 13 14  1  0  0  0  0
 13 28  1  0  0  0  0
 13 29  1  0  0  0  0
 14 17  1  0  0  0  0
 14 16  1  6  0  0  0
 14 15  1  0  0  0  0
 15 30  1  0  0  0  0
 15 31  1  0  0  0  0
 15 32  1  0  0  0  0
 16 33  1  0  0  0  0
 17 18  2  0  0  0  0
 17 19  1  0  0  0  0
 19 20  1  0  0  0  0
 19 34  1  0  0  0  0
 20 21  2  0  0  0  0
M  END
$$$$
