5IP
 OpenBabel04121316063D

 49 49  0  0  1  0  0  0  0  0999 V2000
    3.5189    0.5856    1.1370 O   0  0  0  0  0  0  0  0  0  0  0  0
    3.3006   -0.0010   -0.1422 C   0  0  2  0  0  0  0  0  0  0  0  0
    2.2533   -0.1155    0.0189 H   0  0  0  0  0  0  0  0  0  0  0  0
    3.3075   -1.5239   -0.5367 C   0  0  1  0  0  0  0  0  0  0  0  0
    4.3268   -1.9248   -0.5592 H   0  0  0  0  0  0  0  0  0  0  0  0
    2.4611   -2.3408    0.3941 O   0  0  0  0  0  0  0  0  0  0  0  0
    2.9820   -1.9870    2.0055 P   0  0  0  0  0  0  0  0  0  0  0  0
    4.3859   -1.5233    1.6242 O   0  0  0  0  0  0  0  0  0  0  0  0
    1.7909   -0.8903    2.0725 O   0  0  0  0  0  0  0  0  0  0  0  0
    3.5029   -1.6332    3.6168 O   0  0  0  0  0  0  0  0  0  0  0  0
    2.6527   -1.7162   -1.8850 C   0  0  1  0  0  0  0  0  0  0  0  0
    2.7374   -2.7766   -2.1682 H   0  0  0  0  0  0  0  0  0  0  0  0
    1.1314   -1.5460   -1.8330 O   0  0  0  0  0  0  0  0  0  0  0  0
    0.6555    0.1172   -1.8469 P   0  0  0  0  0  0  0  0  0  0  0  0
    1.0156    0.5868   -3.2731 O   0  0  0  0  0  0  0  0  0  0  0  0
   -1.2855   -0.1497   -2.4465 O   0  0  0  0  0  0  0  0  0  0  0  0
    0.1797    1.7804   -1.8608 O   0  0  0  0  0  0  0  0  0  0  0  0
    3.4060   -0.8628   -2.9722 C   0  0  2  0  0  0  0  0  0  0  0  0
    4.3865   -1.3140   -3.1658 H   0  0  0  0  0  0  0  0  0  0  0  0
    3.7144    0.7829   -2.6508 C   0  0  1  0  0  0  0  0  0  0  0  0
    2.7684    0.7594   -2.8297 H   0  0  0  0  0  0  0  0  0  0  0  0
    3.6996    1.1844   -1.0741 C   0  0  1  0  0  0  0  0  0  0  0  0
    4.5993    1.6844   -0.7131 H   0  0  0  0  0  0  0  0  0  0  0  0
    2.4571    2.3413   -0.7559 O   0  0  0  0  0  0  0  0  0  0  0  0
    1.1363    1.2397   -0.9426 P   0  0  0  0  0  0  0  0  0  0  0  0
    1.8747    2.0820   -2.0462 O   0  0  0  0  0  0  0  0  0  0  0  0
    0.8950    1.5818    0.6192 O   0  0  0  0  0  0  0  0  0  0  0  0
   -0.1844    0.1381   -1.1293 O   0  0  0  0  0  0  0  0  0  0  0  0
    3.8319    2.0042   -3.6937 O   0  0  0  0  0  0  0  0  0  0  0  0
    2.8688    3.3949   -3.5310 P   0  0  0  0  0  0  0  0  0  0  0  0
    1.3591    3.3655   -3.7038 O   0  0  0  0  0  0  0  0  0  0  0  0
    3.4475    4.0023   -2.1538 O   0  0  0  0  0  0  0  0  0  0  0  0
    3.1851    4.7272   -4.3479 O   0  0  0  0  0  0  0  0  0  0  0  0
    2.5725   -1.1350   -4.0944 O   0  0  0  0  0  0  0  0  0  0  0  0
    0.8450   -1.2266   -4.0804 P   0  0  0  0  0  0  0  0  0  0  0  0
    0.8486   -2.6755   -4.5577 O   0  0  0  0  0  0  0  0  0  0  0  0
    0.6559   -0.2392   -5.3652 O   0  0  0  0  0  0  0  0  0  0  0  0
   -0.8826   -1.3182   -4.0664 O   0  0  0  0  0  0  0  0  0  0  0  0
    4.2979    0.1477    1.5322 H   0  0  0  0  0  0  0  0  0  0  0  0
    0.9253   -1.3388    1.9591 H   0  0  0  0  0  0  0  0  0  0  0  0
    4.4756   -1.7293    3.6190 H   0  0  0  0  0  0  0  0  0  0  0  0
   -1.2746   -1.0061   -2.9179 H   0  0  0  0  0  0  0  0  0  0  0  0
    0.5359    2.3109   -2.6716 H   0  0  0  0  0  0  0  0  0  0  0  0
    1.6405    1.3010    1.2145 H   0  0  0  0  0  0  0  0  0  0  0  0
   -1.1184    0.6262   -1.2481 H   0  0  0  0  0  0  0  0  0  0  0  0
    3.0184    3.4850   -1.4296 H   0  0  0  0  0  0  0  0  0  0  0  0
    2.4111    5.2660   -4.0165 H   0  0  0  0  0  0  0  0  0  0  0  0
    0.4575    0.6066   -4.8827 H   0  0  0  0  0  0  0  0  0  0  0  0
   -1.0441   -1.9075   -4.8408 H   0  0  0  0  0  0  0  0  0  0  0  0
  1 39  1  0  0  0  0
  2  4  1  0  0  0  0
  2 22  1  0  0  0  0
  2  3  1  6  0  0  0
  2  1  1  0  0  0  0
  4  5  1  6  0  0  0
  4  6  1  0  0  0  0
  4 11  1  0  0  0  0
  6  7  1  0  0  0  0
  7  8  2  0  0  0  0
  7  9  1  0  0  0  0
  7 10  1  0  0  0  0
  9 40  1  0  0  0  0
 10 41  1  0  0  0  0
 11 18  1  0  0  0  0
 11 13  1  0  0  0  0
 11 12  1  6  0  0  0
 13 14  1  0  0  0  0
 14 15  2  0  0  0  0
 14 16  1  0  0  0  0
 14 17  1  0  0  0  0
 16 42  1  0  0  0  0
 17 43  1  0  0  0  0
 18 20  1  0  0  0  0
 18 34  1  0  0  0  0
 18 19  1  6  0  0  0
 20 21  1  6  0  0  0
 20 22  1  0  0  0  0
 20 29  1  0  0  0  0
 22 24  1  0  0  0  0
 22 23  1  1  0  0  0
 24 25  1  0  0  0  0
 25 26  2  0  0  0  0
 25 27  1  0  0  0  0
 25 28  1  0  0  0  0
 27 44  1  0  0  0  0
 28 45  1  0  0  0  0
 29 30  1  0  0  0  0
 30 31  2  0  0  0  0
 30 32  1  0  0  0  0
 30 33  1  0  0  0  0
 32 46  1  0  0  0  0
 33 47  1  0  0  0  0
 34 35  1  0  0  0  0
 35 36  2  0  0  0  0
 35 37  1  0  0  0  0
 35 38  1  0  0  0  0
 37 48  1  0  0  0  0
 38 49  1  0  0  0  0
M  END
$$$$
