5PI
 OpenBabel04121316063D

 82 84  0  0  1  0  0  0  0  0999 V2000
    6.5557    9.9174    6.3170 C   0  0  0  0  0  0  0  0  0  0  0  0
    5.9215   10.9239    5.3533 C   0  0  0  0  0  0  0  0  0  0  0  0
    5.1984   10.2461    4.1909 C   0  0  0  0  0  0  0  0  0  0  0  0
    4.6762   11.2609    3.2158 O   0  0  0  0  0  0  0  0  0  0  0  0
    4.1214   10.9100    1.9647 C   0  0  0  0  0  0  0  0  0  0  0  0
    3.1307   11.6670    1.3524 C   0  0  0  0  0  0  0  0  0  0  0  0
    2.1843   11.0705    0.4233 C   0  0  0  0  0  0  0  0  0  0  0  0
    2.2237    9.6755    0.1112 C   0  0  0  0  0  0  0  0  0  0  0  0
    3.2221    8.8681    0.6603 C   0  0  0  0  0  0  0  0  0  0  0  0
    4.1793    9.6012    1.5155 C   0  0  0  0  0  0  0  0  0  0  0  0
    2.7538    7.4436    0.4645 C   0  0  0  0  0  0  0  0  0  0  0  0
    1.6756    7.5186   -0.4064 C   0  0  0  0  0  0  0  0  0  0  0  0
    1.3403    8.8427   -0.5638 N   0  0  0  0  0  0  0  0  0  0  0  0
    0.4943    9.1368   -1.0329 H   0  0  0  0  0  0  0  0  0  0  0  0
    3.0400    6.0831    1.1857 C   0  0  0  0  0  0  0  0  0  0  0  0
    3.8177    6.1172    2.5233 C   0  0  2  0  0  0  0  0  0  0  0  0
    4.8715    5.8881    2.2560 H   0  0  0  0  0  0  0  0  0  0  0  0
    3.5129    5.3356    3.7815 C   0  0  0  0  0  0  0  0  0  0  0  0
    3.6837    5.7572    4.9263 O   0  0  0  0  0  0  0  0  0  0  0  0
    3.1426    4.0584    3.6410 N   0  0  0  0  0  0  0  0  0  0  0  0
    3.6962    3.2394    2.5817 C   0  0  2  0  0  0  0  0  0  0  0  0
    3.6577    3.7772    1.6370 H   0  0  0  0  0  0  0  0  0  0  0  0
    2.7769    2.0588    2.4138 C   0  0  0  0  0  0  0  0  0  0  0  0
    3.1485    0.8987    2.3105 O   0  0  0  0  0  0  0  0  0  0  0  0
    1.4748    2.4452    2.2799 N   0  0  0  0  0  0  0  0  0  0  0  0
    0.4766    1.4319    2.1911 C   0  0  0  0  0  0  0  0  0  0  0  0
   -0.9086    1.9591    2.0180 C   0  0  0  0  0  0  0  0  0  0  0  0
   -1.9445    1.0348    1.8534 C   0  0  0  0  0  0  0  0  0  0  0  0
   -3.2122    1.4700    1.4790 C   0  0  0  0  0  0  0  0  0  0  0  0
   -3.4892    2.8387    1.3981 C   0  0  0  0  0  0  0  0  0  0  0  0
   -2.4958    3.7552    1.7421 C   0  0  0  0  0  0  0  0  0  0  0  0
   -1.2048    3.3235    1.9793 C   0  0  0  0  0  0  0  0  0  0  0  0
   -4.7987    3.3529    0.9079 C   0  0  0  0  0  0  0  0  0  0  0  0
   -5.7602    2.5881    0.4967 N   0  0  0  0  0  0  0  0  0  0  0  0
   -5.0355    4.6871    0.8433 N   0  0  0  0  0  0  0  0  0  0  0  0
    5.1413    2.8641    2.8005 C   0  0  0  0  0  0  0  0  0  0  0  0
    5.2995    2.0585    4.0774 C   0  0  0  0  0  0  0  0  0  0  0  0
    6.7058    1.5630    4.1967 C   0  0  0  0  0  0  0  0  0  0  0  0
    7.6019    1.8203    3.4047 O   0  0  0  0  0  0  0  0  0  0  0  0
    6.9140    0.7839    5.2898 N   0  0  0  0  0  0  0  0  0  0  0  0
    3.6713    7.4658    3.1074 N   0  0  0  0  0  0  0  0  0  0  0  0
    2.0105    8.0155    3.5702 S   0  0  0  0  0  0  0  0  0  0  0  0
    1.0598    7.6611    2.5685 O   0  0  0  0  0  0  0  0  0  0  0  0
    1.7726    7.5720    4.9478 O   0  0  0  0  0  0  0  0  0  0  0  0
    2.0548    9.7857    3.6719 C   0  0  0  0  0  0  0  0  0  0  0  0
    0.8291   10.6175    3.8774 C   0  0  0  0  0  0  0  0  0  0  0  0
    7.1568   10.4420    7.0677 H   0  0  0  0  0  0  0  0  0  0  0  0
    7.2138    9.2211    5.7865 H   0  0  0  0  0  0  0  0  0  0  0  0
    5.8027    9.3240    6.8500 H   0  0  0  0  0  0  0  0  0  0  0  0
    6.6936   11.5664    4.9289 H   0  0  0  0  0  0  0  0  0  0  0  0
    5.2258   11.5621    5.9107 H   0  0  0  0  0  0  0  0  0  0  0  0
    4.4276    9.6320    4.6750 H   0  0  0  0  0  0  0  0  0  0  0  0
    5.8911    9.5382    3.7265 H   0  0  0  0  0  0  0  0  0  0  0  0
    2.9009   12.6469    1.7668 H   0  0  0  0  0  0  0  0  0  0  0  0
    1.3119   11.6501    0.1280 H   0  0  0  0  0  0  0  0  0  0  0  0
    4.7922    9.1323    2.2545 H   0  0  0  0  0  0  0  0  0  0  0  0
    1.0273    6.7293   -0.7864 H   0  0  0  0  0  0  0  0  0  0  0  0
    3.5489    5.4575    0.4353 H   0  0  0  0  0  0  0  0  0  0  0  0
    2.0940    5.5544    1.3873 H   0  0  0  0  0  0  0  0  0  0  0  0
    2.9910    3.6681    4.5671 H   0  0  0  0  0  0  0  0  0  0  0  0
    1.2552    3.4283    2.3784 H   0  0  0  0  0  0  0  0  0  0  0  0
    0.5432    0.8189    3.0960 H   0  0  0  0  0  0  0  0  0  0  0  0
    0.7427    0.8125    1.3260 H   0  0  0  0  0  0  0  0  0  0  0  0
   -1.7612   -0.0319    1.9759 H   0  0  0  0  0  0  0  0  0  0  0  0
   -3.9525    0.7144    1.2468 H   0  0  0  0  0  0  0  0  0  0  0  0
   -2.6682    4.8219    1.8058 H   0  0  0  0  0  0  0  0  0  0  0  0
   -0.4625    4.1018    2.1115 H   0  0  0  0  0  0  0  0  0  0  0  0
   -5.5216    1.5990    0.5509 H   0  0  0  0  0  0  0  0  0  0  0  0
   -4.3607    5.4011    1.0620 H   0  0  0  0  0  0  0  0  0  0  0  0
   -5.9235    4.9771    0.4606 H   0  0  0  0  0  0  0  0  0  0  0  0
    5.7826    3.7558    2.8427 H   0  0  0  0  0  0  0  0  0  0  0  0
    5.4771    2.2898    1.9280 H   0  0  0  0  0  0  0  0  0  0  0  0
    4.6388    1.1873    4.0825 H   0  0  0  0  0  0  0  0  0  0  0  0
    5.0471    2.6682    4.9517 H   0  0  0  0  0  0  0  0  0  0  0  0
    6.1788    0.5304    5.9353 H   0  0  0  0  0  0  0  0  0  0  0  0
    7.8396    0.4007    5.4117 H   0  0  0  0  0  0  0  0  0  0  0  0
    4.1293    7.8067    2.2849 H   0  0  0  0  0  0  0  0  0  0  0  0
    2.2376   10.0456    2.6699 H   0  0  0  0  0  0  0  0  0  0  0  0
    2.7768   10.1563    4.3741 H   0  0  0  0  0  0  0  0  0  0  0  0
    0.1516   10.5070    3.0276 H   0  0  0  0  0  0  0  0  0  0  0  0
    1.1334   11.6801    3.8903 H   0  0  0  0  0  0  0  0  0  0  0  0
    0.3562   10.3684    4.8183 H   0  0  0  0  0  0  0  0  0  0  0  0
  1  2  1  0  0  0  0
  1 47  1  0  0  0  0
  1 48  1  0  0  0  0
  1 49  1  0  0  0  0
  2  3  1  0  0  0  0
  2 50  1  0  0  0  0
  2 51  1  0  0  0  0
  3  4  1  0  0  0  0
  3 52  1  0  0  0  0
  3 53  1  0  0  0  0
  4  5  1  0  0  0  0
  5  6  2  0  0  0  0
  5 10  1  0  0  0  0
  6  7  1  0  0  0  0
  6 54  1  0  0  0  0
  7  8  2  0  0  0  0
  7 55  1  0  0  0  0
  8  9  1  0  0  0  0
  8 13  1  0  0  0  0
  9 10  2  0  0  0  0
  9 11  1  0  0  0  0
 10 56  1  0  0  0  0
 11 12  2  0  0  0  0
 11 15  1  0  0  0  0
 12 13  1  0  0  0  0
 12 57  1  0  0  0  0
 13 14  1  0  0  0  0
 15 58  1  0  0  0  0
 15 59  1  0  0  0  0
 16 18  1  0  0  0  0
 16 41  1  0  0  0  0
 16 17  1  6  0  0  0
 16 15  1  0  0  0  0
 18 19  2  0  0  0  0
 18 20  1  0  0  0  0
 20 60  1  0  0  0  0
 21 23  1  0  0  0  0
 21 36  1  0  0  0  0
 21 22  1  6  0  0  0
 21 20  1  0  0  0  0
 23 24  2  0  0  0  0
 23 25  1  0  0  0  0
 25 26  1  0  0  0  0
 25 61  1  0  0  0  0
 26 27  1  0  0  0  0
 26 62  1  0  0  0  0
 26 63  1  0  0  0  0
 27 28  2  0  0  0  0
 27 32  1  0  0  0  0
 28 29  1  0  0  0  0
 28 64  1  0  0  0  0
 29 30  2  0  0  0  0
 29 65  1  0  0  0  0
 30 31  1  0  0  0  0
 30 33  1  0  0  0  0
 31 32  2  0  0  0  0
 31 66  1  0  0  0  0
 32 67  1  0  0  0  0
 33 34  2  0  0  0  0
 33 35  1  0  0  0  0
 34 68  1  0  0  0  0
 35 69  1  0  0  0  0
 35 70  1  0  0  0  0
 36 37  1  0  0  0  0
 36 71  1  0  0  0  0
 36 72  1  0  0  0  0
 37 38  1  0  0  0  0
 37 73  1  0  0  0  0
 37 74  1  0  0  0  0
 38 39  2  0  0  0  0
 38 40  1  0  0  0  0
 40 75  1  0  0  0  0
 40 76  1  0  0  0  0
 41 42  1  0  0  0  0
 41 77  1  0  0  0  0
 42 43  2  0  0  0  0
 42 44  2  0  0  0  0
 42 45  1  0  0  0  0
 45 46  1  0  0  0  0
 45 78  1  0  0  0  0
 45 79  1  0  0  0  0
 46 80  1  0  0  0  0
 46 81  1  0  0  0  0
 46 82  1  0  0  0  0
M  END
$$$$
