5PM
 OpenBabel04121316063D

 47 50  0  0  0  0  0  0  0  0999 V2000
   -0.6347   -1.2637   -0.0224 C   0  0  0  0  0  0  0  0  0  0  0  0
   -1.4274   -0.1212   -0.0169 C   0  0  0  0  0  0  0  0  0  0  0  0
   -0.8183    1.1188    0.0588 C   0  0  0  0  0  0  0  0  0  0  0  0
    0.5664    1.1601    0.0410 C   0  0  0  0  0  0  0  0  0  0  0  0
    1.3747    0.0739    0.0513 N   0  0  0  0  0  0  0  0  0  0  0  0
    0.7444   -1.1194    0.0565 C   0  0  0  0  0  0  0  0  0  0  0  0
    1.2325    2.4626   -0.0774 C   0  0  0  0  0  0  0  0  0  0  0  0
    0.5494    3.5602   -0.0974 N   0  0  0  0  0  0  0  0  0  0  0  0
    1.1882    4.7895   -0.2784 C   0  0  0  0  0  0  0  0  0  0  0  0
    0.5260    5.9620    0.0938 C   0  0  0  0  0  0  0  0  0  0  0  0
    1.0627    7.2225   -0.2167 C   0  0  0  0  0  0  0  0  0  0  0  0
    2.3503    7.3284   -0.7406 C   0  0  0  0  0  0  0  0  0  0  0  0
    3.0700    6.1435   -0.8388 C   0  0  0  0  0  0  0  0  0  0  0  0
    2.4557    4.9039   -0.8125 C   0  0  0  0  0  0  0  0  0  0  0  0
    2.9654    8.9379   -1.2194 S   0  0  0  0  0  0  0  0  0  0  0  0
    4.4732    8.7415   -2.1568 C   0  0  0  0  0  0  0  0  0  0  0  0
    5.2601    9.8586   -2.4441 C   0  0  0  0  0  0  0  0  0  0  0  0
    6.4312    9.7200   -3.2121 C   0  0  0  0  0  0  0  0  0  0  0  0
    6.9289    8.4562   -3.5418 C   0  0  0  0  0  0  0  0  0  0  0  0
    6.2024    7.3540   -3.1459 C   0  0  0  0  0  0  0  0  0  0  0  0
    4.9265    7.5268   -2.6503 C   0  0  0  0  0  0  0  0  0  0  0  0
    8.0798    8.3523   -4.3340 N   0  0  0  0  0  0  0  0  0  0  0  0
    8.4946    7.2004   -4.7366 C   0  0  0  0  0  0  0  0  0  0  0  0
    9.6315    7.0650   -5.6498 C   0  0  0  0  0  0  0  0  0  0  0  0
   10.2214    8.2130   -6.1468 C   0  0  0  0  0  0  0  0  0  0  0  0
   11.1457    8.0646   -7.1643 C   0  0  0  0  0  0  0  0  0  0  0  0
   11.4976    6.7837   -7.5783 C   0  0  0  0  0  0  0  0  0  0  0  0
   10.9182    5.6921   -6.9452 C   0  0  0  0  0  0  0  0  0  0  0  0
    9.9578    5.8002   -6.0064 N   0  0  0  0  0  0  0  0  0  0  0  0
   -1.0868   -2.2473   -0.0718 H   0  0  0  0  0  0  0  0  0  0  0  0
   -2.5090   -0.1860   -0.0714 H   0  0  0  0  0  0  0  0  0  0  0  0
   -1.3996    2.0333    0.1027 H   0  0  0  0  0  0  0  0  0  0  0  0
    1.3916   -1.9887    0.1343 H   0  0  0  0  0  0  0  0  0  0  0  0
    2.3326    2.4064   -0.1738 H   0  0  0  0  0  0  0  0  0  0  0  0
   -0.4248    5.8954    0.6145 H   0  0  0  0  0  0  0  0  0  0  0  0
    0.4751    8.1137   -0.0114 H   0  0  0  0  0  0  0  0  0  0  0  0
    4.1435    6.1194   -0.9432 H   0  0  0  0  0  0  0  0  0  0  0  0
    3.0195    4.0501   -1.1705 H   0  0  0  0  0  0  0  0  0  0  0  0
    4.9535   10.8506   -2.1214 H   0  0  0  0  0  0  0  0  0  0  0  0
    6.9556   10.6075   -3.5572 H   0  0  0  0  0  0  0  0  0  0  0  0
    6.5378    6.3345   -3.2785 H   0  0  0  0  0  0  0  0  0  0  0  0
    4.3162    6.6416   -2.7079 H   0  0  0  0  0  0  0  0  0  0  0  0
    8.0365    6.2281   -4.4766 H   0  0  0  0  0  0  0  0  0  0  0  0
    9.9386    9.1889   -5.7693 H   0  0  0  0  0  0  0  0  0  0  0  0
   11.5782    8.9451   -7.6264 H   0  0  0  0  0  0  0  0  0  0  0  0
   12.2213    6.6415   -8.3718 H   0  0  0  0  0  0  0  0  0  0  0  0
   11.2257    4.6780   -7.1842 H   0  0  0  0  0  0  0  0  0  0  0  0
  1  2  2  0  0  0  0
  1  6  1  0  0  0  0
  1 30  1  0  0  0  0
  2  3  1  0  0  0  0
  2 31  1  0  0  0  0
  3  4  2  0  0  0  0
  3 32  1  0  0  0  0
  4  5  1  0  0  0  0
  4  7  1  0  0  0  0
  5  6  2  0  0  0  0
  6 33  1  0  0  0  0
  7  8  2  0  0  0  0
  7 34  1  0  0  0  0
  8  9  1  0  0  0  0
  9 10  2  0  0  0  0
  9 14  1  0  0  0  0
 10 11  1  0  0  0  0
 10 35  1  0  0  0  0
 11 12  2  0  0  0  0
 11 36  1  0  0  0  0
 12 13  1  0  0  0  0
 12 15  1  0  0  0  0
 13 14  2  0  0  0  0
 13 37  1  0  0  0  0
 14 38  1  0  0  0  0
 15 16  1  0  0  0  0
 16 17  2  0  0  0  0
 16 21  1  0  0  0  0
 17 18  1  0  0  0  0
 17 39  1  0  0  0  0
 18 19  2  0  0  0  0
 18 40  1  0  0  0  0
 19 20  1  0  0  0  0
 19 22  1  0  0  0  0
 20 21  2  0  0  0  0
 20 41  1  0  0  0  0
 21 42  1  0  0  0  0
 22 23  2  0  0  0  0
 23 24  1  0  0  0  0
 23 43  1  0  0  0  0
 24 25  2  0  0  0  0
 24 29  1  0  0  0  0
 25 26  1  0  0  0  0
 25 44  1  0  0  0  0
 26 27  2  0  0  0  0
 26 45  1  0  0  0  0
 27 28  1  0  0  0  0
 27 46  1  0  0  0  0
 28 29  2  0  0  0  0
 28 47  1  0  0  0  0
M  END
$$$$
