5QC
 OpenBabel04121316063D

 70 76  0  0  1  0  0  0  0  0999 V2000
    3.0513    0.7453   -1.7238 O   0  0  0  0  0  0  0  0  0  0  0  0
    2.7076    0.3687   -0.4110 C   0  0  2  0  0  0  0  0  0  0  0  0
    1.6453    0.2055   -0.3760 H   0  0  0  0  0  0  0  0  0  0  0  0
    3.2087    1.3890    0.6093 C   0  0  0  0  0  0  0  0  0  0  0  0
    4.5672    0.8294    1.0009 C   0  0  0  0  0  0  0  0  0  0  0  0
    4.3664   -0.6061    0.8993 N   0  0  0  0  0  0  0  0  0  0  0  0
    3.3734   -0.9387   -0.1058 C   0  0  0  0  0  0  0  0  0  0  0  0
    5.4929   -1.4938    0.9135 C   0  0  0  0  0  0  0  0  0  0  0  0
    5.1780   -2.9387    1.3479 C   0  0  0  0  0  0  0  0  0  0  0  0
    6.3226   -3.7855    1.1669 C   0  0  0  0  0  0  0  0  0  0  0  0
    6.2202   -5.1704    1.1241 C   0  0  0  0  0  0  0  0  0  0  0  0
    4.9860   -5.7460    1.3361 C   0  0  0  0  0  0  0  0  0  0  0  0
    3.8947   -4.9432    1.6978 C   0  0  0  0  0  0  0  0  0  0  0  0
    3.9163   -3.5225    1.7466 C   0  0  0  0  0  0  0  0  0  0  0  0
    2.5594   -2.8340    2.0572 C   0  0  0  0  0  0  0  0  0  0  0  0
    1.3612   -3.4031    1.5702 C   0  0  0  0  0  0  0  0  0  0  0  0
    0.2208   -2.6276    1.2416 C   0  0  0  0  0  0  0  0  0  0  0  0
    0.1932   -1.2449    1.4163 C   0  0  0  0  0  0  0  0  0  0  0  0
    1.2383   -0.7232    2.1740 C   0  0  0  0  0  0  0  0  0  0  0  0
    2.3845   -1.5175    2.5402 C   0  0  0  0  0  0  0  0  0  0  0  0
   -0.8454   -0.4440    0.8249 N   0  0  0  0  0  0  0  0  0  0  0  0
   -0.6939    0.9047    0.2574 C   0  0  0  0  0  0  0  0  0  0  0  0
   -1.2147    1.9822    1.1666 C   0  0  0  0  0  0  0  0  0  0  0  0
   -2.4924    1.5325    1.7497 C   0  0  0  0  0  0  0  0  0  0  0  0
   -2.9500    0.2281    1.7136 C   0  0  0  0  0  0  0  0  0  0  0  0
   -2.1838   -0.8398    1.0595 C   0  0  0  0  0  0  0  0  0  0  0  0
   -2.5886   -1.9351    0.7372 O   0  0  0  0  0  0  0  0  0  0  0  0
   -4.1621    0.2337    2.4084 N   0  0  0  0  0  0  0  0  0  0  0  0
   -4.4860    1.5395    2.7853 N   0  0  0  0  0  0  0  0  0  0  0  0
   -3.4451    2.3162    2.4020 C   0  0  0  0  0  0  0  0  0  0  0  0
   -3.2681    3.8249    2.5853 C   0  0  0  0  0  0  0  0  0  0  0  0
   -4.2327    4.5538    1.9710 F   0  0  0  0  0  0  0  0  0  0  0  0
   -3.2051    4.2089    3.8841 F   0  0  0  0  0  0  0  0  0  0  0  0
   -2.0903    4.2689    2.0374 F   0  0  0  0  0  0  0  0  0  0  0  0
   -5.0325   -0.8689    2.7781 C   0  0  0  0  0  0  0  0  0  0  0  0
   -4.5967   -2.2009    2.6870 C   0  0  0  0  0  0  0  0  0  0  0  0
   -5.4060   -3.3140    2.9613 C   0  0  0  0  0  0  0  0  0  0  0  0
   -6.6845   -3.0370    3.4024 C   0  0  0  0  0  0  0  0  0  0  0  0
   -7.1787   -1.7563    3.5690 C   0  0  0  0  0  0  0  0  0  0  0  0
   -6.3436   -0.6431    3.2585 C   0  0  0  0  0  0  0  0  0  0  0  0
   -8.5007   -1.9896    4.0398 C   0  0  0  0  0  0  0  0  0  0  0  0
   -9.3654   -1.0084    4.3319 N   0  0  0  0  0  0  0  0  0  0  0  0
   -8.7748   -3.2927    4.1522 N   0  0  0  0  0  0  0  0  0  0  0  0
   -7.6263   -3.9518    3.7484 O   0  0  0  0  0  0  0  0  0  0  0  0
    3.9529    0.3988   -1.8401 H   0  0  0  0  0  0  0  0  0  0  0  0
    2.6056    1.4796    1.5200 H   0  0  0  0  0  0  0  0  0  0  0  0
    3.2464    2.3953    0.1890 H   0  0  0  0  0  0  0  0  0  0  0  0
    4.8196    1.1265    2.0282 H   0  0  0  0  0  0  0  0  0  0  0  0
    5.3292    1.2120    0.3204 H   0  0  0  0  0  0  0  0  0  0  0  0
    2.5610   -1.5426    0.2475 H   0  0  0  0  0  0  0  0  0  0  0  0
    3.7122   -1.5740   -0.9262 H   0  0  0  0  0  0  0  0  0  0  0  0
    6.3064   -1.1088    1.5419 H   0  0  0  0  0  0  0  0  0  0  0  0
    5.8984   -1.5177   -0.1143 H   0  0  0  0  0  0  0  0  0  0  0  0
    7.3133   -3.3507    1.0168 H   0  0  0  0  0  0  0  0  0  0  0  0
    7.0876   -5.7925    0.9158 H   0  0  0  0  0  0  0  0  0  0  0  0
    4.8622   -6.8235    1.2613 H   0  0  0  0  0  0  0  0  0  0  0  0
    2.9808   -5.4795    1.9339 H   0  0  0  0  0  0  0  0  0  0  0  0
    1.3145   -4.4483    1.2806 H   0  0  0  0  0  0  0  0  0  0  0  0
   -0.5796   -3.1337    0.7090 H   0  0  0  0  0  0  0  0  0  0  0  0
    1.2636    0.3428    2.3650 H   0  0  0  0  0  0  0  0  0  0  0  0
    3.2455   -0.9705    2.9261 H   0  0  0  0  0  0  0  0  0  0  0  0
   -1.3058    0.9185   -0.6629 H   0  0  0  0  0  0  0  0  0  0  0  0
    0.2846    1.2243   -0.0675 H   0  0  0  0  0  0  0  0  0  0  0  0
   -1.3463    2.8902    0.5672 H   0  0  0  0  0  0  0  0  0  0  0  0
   -0.4950    2.1878    1.9648 H   0  0  0  0  0  0  0  0  0  0  0  0
   -3.5798   -2.4561    2.4403 H   0  0  0  0  0  0  0  0  0  0  0  0
   -5.0358   -4.3267    2.8503 H   0  0  0  0  0  0  0  0  0  0  0  0
   -6.7419    0.3591    3.3844 H   0  0  0  0  0  0  0  0  0  0  0  0
   -9.1380   -0.0285    4.2382 H   0  0  0  0  0  0  0  0  0  0  0  0
  -10.2962   -1.2292    4.6652 H   0  0  0  0  0  0  0  0  0  0  0  0
  1 45  1  0  0  0  0
  2  4  1  0  0  0  0
  2  7  1  0  0  0  0
  2  3  1  1  0  0  0
  2  1  1  0  0  0  0
  4  5  1  0  0  0  0
  4 46  1  0  0  0  0
  4 47  1  0  0  0  0
  5  6  1  0  0  0  0
  5 48  1  0  0  0  0
  5 49  1  0  0  0  0
  6  7  1  0  0  0  0
  6  8  1  0  0  0  0
  7 50  1  0  0  0  0
  7 51  1  0  0  0  0
  8  9  1  0  0  0  0
  8 52  1  0  0  0  0
  8 53  1  0  0  0  0
  9 10  2  0  0  0  0
  9 14  1  0  0  0  0
 10 11  1  0  0  0  0
 10 54  1  0  0  0  0
 11 12  2  0  0  0  0
 11 55  1  0  0  0  0
 12 13  1  0  0  0  0
 12 56  1  0  0  0  0
 13 14  2  0  0  0  0
 13 57  1  0  0  0  0
 14 15  1  0  0  0  0
 15 16  2  0  0  0  0
 15 20  1  0  0  0  0
 16 17  1  0  0  0  0
 16 58  1  0  0  0  0
 17 18  2  0  0  0  0
 17 59  1  0  0  0  0
 18 19  1  0  0  0  0
 18 21  1  0  0  0  0
 19 20  2  0  0  0  0
 19 60  1  0  0  0  0
 20 61  1  0  0  0  0
 21 22  1  0  0  0  0
 21 26  1  0  0  0  0
 22 23  1  0  0  0  0
 22 62  1  0  0  0  0
 22 63  1  0  0  0  0
 23 24  1  0  0  0  0
 23 64  1  0  0  0  0
 23 65  1  0  0  0  0
 24 25  2  0  0  0  0
 24 30  1  0  0  0  0
 25 26  1  0  0  0  0
 25 28  1  0  0  0  0
 26 27  2  0  0  0  0
 28 29  1  0  0  0  0
 28 35  1  0  0  0  0
 29 30  2  0  0  0  0
 30 31  1  0  0  0  0
 31 32  1  0  0  0  0
 31 33  1  0  0  0  0
 31 34  1  0  0  0  0
 35 36  2  0  0  0  0
 35 40  1  0  0  0  0
 36 37  1  0  0  0  0
 36 66  1  0  0  0  0
 37 38  2  0  0  0  0
 37 67  1  0  0  0  0
 38 39  1  0  0  0  0
 38 44  1  0  0  0  0
 39 40  2  0  0  0  0
 39 41  1  0  0  0  0
 40 68  1  0  0  0  0
 41 42  1  0  0  0  0
 41 43  2  0  0  0  0
 42 69  1  0  0  0  0
 42 70  1  0  0  0  0
 43 44  1  0  0  0  0
M  END
$$$$
