5RM
 OpenBabel04121316063D

 38 39  0  0  1  0  0  0  0  0999 V2000
    5.7547    3.6014  -12.9614 C   0  0  0  0  0  0  0  0  0  0  0  0
    4.8419    2.9433  -11.9512 C   0  0  0  0  0  0  0  0  0  0  0  0
    5.6320    2.2135  -10.8662 C   0  0  0  0  0  0  0  0  0  0  0  0
    4.6530    1.4703  -10.1210 O   0  0  0  0  0  0  0  0  0  0  0  0
    5.2388    0.5564   -9.2938 C   0  0  0  0  0  0  0  0  0  0  0  0
    5.3410    0.9491   -7.9587 C   0  0  0  0  0  0  0  0  0  0  0  0
    6.1060    0.2150   -7.0428 C   0  0  0  0  0  0  0  0  0  0  0  0
    6.5853   -1.0326   -7.4617 C   0  0  0  0  0  0  0  0  0  0  0  0
    6.2944   -1.5172   -8.7399 C   0  0  0  0  0  0  0  0  0  0  0  0
    5.6751   -0.7042   -9.6957 C   0  0  0  0  0  0  0  0  0  0  0  0
    5.5941   -1.2717  -10.9378 O   0  0  0  0  0  0  0  0  0  0  0  0
    4.9244   -0.5611  -11.9679 C   0  0  0  0  0  0  0  0  0  0  0  0
    6.4384    0.7493   -5.6480 C   0  0  2  0  0  0  0  0  0  0  0  0
    6.1093   -0.3063   -4.5938 C   0  0  0  0  0  0  0  0  0  0  0  0
    5.7845    2.0840   -5.3000 C   0  0  0  0  0  0  0  0  0  0  0  0
    6.6832    2.9976   -5.9203 N   0  0  0  0  0  0  0  0  0  0  0  0
    7.9347    2.4520   -5.8909 C   0  0  0  0  0  0  0  0  0  0  0  0
    8.9755    3.0705   -6.0754 O   0  0  0  0  0  0  0  0  0  0  0  0
    7.8446    1.1129   -5.5999 O   0  0  0  0  0  0  0  0  0  0  0  0
    5.1744    4.2144  -13.6573 H   0  0  0  0  0  0  0  0  0  0  0  0
    6.2967    2.8480  -13.5430 H   0  0  0  0  0  0  0  0  0  0  0  0
    6.4826    4.2403  -12.4553 H   0  0  0  0  0  0  0  0  0  0  0  0
    4.1528    2.2625  -12.4710 H   0  0  0  0  0  0  0  0  0  0  0  0
    4.2004    3.6887  -11.4684 H   0  0  0  0  0  0  0  0  0  0  0  0
    6.1656    2.9180  -10.2212 H   0  0  0  0  0  0  0  0  0  0  0  0
    6.4125    1.5769  -11.3034 H   0  0  0  0  0  0  0  0  0  0  0  0
    4.8374    1.8701   -7.6817 H   0  0  0  0  0  0  0  0  0  0  0  0
    7.1880   -1.6493   -6.7981 H   0  0  0  0  0  0  0  0  0  0  0  0
    6.5851   -2.5337   -8.9937 H   0  0  0  0  0  0  0  0  0  0  0  0
    4.8848   -1.1831  -12.8619 H   0  0  0  0  0  0  0  0  0  0  0  0
    5.5034    0.2925  -12.3043 H   0  0  0  0  0  0  0  0  0  0  0  0
    3.9070   -0.2776  -11.6819 H   0  0  0  0  0  0  0  0  0  0  0  0
    6.3762    0.0272   -3.5875 H   0  0  0  0  0  0  0  0  0  0  0  0
    6.6609   -1.2395   -4.7517 H   0  0  0  0  0  0  0  0  0  0  0  0
    5.0398   -0.5425   -4.6235 H   0  0  0  0  0  0  0  0  0  0  0  0
    5.8365    2.2875   -4.2244 H   0  0  0  0  0  0  0  0  0  0  0  0
    4.7526    2.2130   -5.6276 H   0  0  0  0  0  0  0  0  0  0  0  0
    6.5041    3.9349   -6.2547 H   0  0  0  0  0  0  0  0  0  0  0  0
  1  2  1  0  0  0  0
  1 20  1  0  0  0  0
  1 21  1  0  0  0  0
  1 22  1  0  0  0  0
  2  3  1  0  0  0  0
  2 23  1  0  0  0  0
  2 24  1  0  0  0  0
  3  4  1  0  0  0  0
  3 25  1  0  0  0  0
  3 26  1  0  0  0  0
  4  5  1  0  0  0  0
  5  6  2  0  0  0  0
  5 10  1  0  0  0  0
  6  7  1  0  0  0  0
  6 27  1  0  0  0  0
  7  8  2  0  0  0  0
  8  9  1  0  0  0  0
  8 28  1  0  0  0  0
  9 10  2  0  0  0  0
  9 29  1  0  0  0  0
 10 11  1  0  0  0  0
 11 12  1  0  0  0  0
 12 30  1  0  0  0  0
 12 31  1  0  0  0  0
 12 32  1  0  0  0  0
 13 15  1  0  0  0  0
 13 19  1  0  0  0  0
 13 14  1  1  0  0  0
 13  7  1  0  0  0  0
 14 33  1  0  0  0  0
 14 34  1  0  0  0  0
 14 35  1  0  0  0  0
 15 16  1  0  0  0  0
 15 36  1  0  0  0  0
 15 37  1  0  0  0  0
 16 17  1  0  0  0  0
 16 38  1  0  0  0  0
 17 18  2  0  0  0  0
 17 19  1  0  0  0  0
M  END
$$$$
