5WB
 OpenBabel04121316063D

 48 49  0  0  1  0  0  0  0  0999 V2000
    1.0260    0.0639    0.0528 C   0  0  0  0  0  0  0  0  0  0  0  0
    2.4530    0.0629   -0.0228 O   0  0  0  0  0  0  0  0  0  0  0  0
    2.9574   -0.9821   -0.8707 C   0  0  1  0  0  0  0  0  0  0  0  0
    2.5929   -1.9368   -0.4705 H   0  0  0  0  0  0  0  0  0  0  0  0
    2.4874   -0.7940   -2.2885 C   0  0  0  0  0  0  0  0  0  0  0  0
    2.0955   -1.8794   -3.0712 C   0  0  0  0  0  0  0  0  0  0  0  0
    1.6523   -1.6736   -4.3786 C   0  0  0  0  0  0  0  0  0  0  0  0
    1.3082   -2.8491   -5.0061 O   0  0  0  0  0  0  0  0  0  0  0  0
    0.8636   -2.7566   -6.3530 C   0  0  0  0  0  0  0  0  0  0  0  0
    1.5939   -0.3588   -4.9023 C   0  0  0  0  0  0  0  0  0  0  0  0
    1.9963    0.7319   -4.1065 C   0  0  0  0  0  0  0  0  0  0  0  0
    2.4586    0.4997   -2.8222 C   0  0  0  0  0  0  0  0  0  0  0  0
    1.9037    1.9880   -4.6287 O   0  0  0  0  0  0  0  0  0  0  0  0
    2.2810    3.1018   -3.8427 C   0  0  0  0  0  0  0  0  0  0  0  0
    1.1290   -0.2439   -6.1838 O   0  0  0  0  0  0  0  0  0  0  0  0
    1.0434    1.0188   -6.8104 C   0  0  0  0  0  0  0  0  0  0  0  0
    4.4014   -0.9821   -0.8707 C   0  0  0  0  0  0  0  0  0  0  0  0
    5.5915   -0.9821   -0.8707 C   0  0  0  0  0  0  0  0  0  0  0  0
    7.0131   -0.9720   -0.8679 C   0  0  0  0  0  0  0  0  0  0  0  0
    7.7131    0.2170   -0.8690 C   0  0  0  0  0  0  0  0  0  0  0  0
    7.0192    1.5500   -0.8674 C   0  0  0  0  0  0  0  0  0  0  0  0
    9.0638    0.2412   -0.8684 N   0  0  0  0  0  0  0  0  0  0  0  0
    9.6897   -0.9392   -0.8693 C   0  0  0  0  0  0  0  0  0  0  0  0
    9.0959   -2.1375   -0.8742 N   0  0  0  0  0  0  0  0  0  0  0  0
    7.7509   -2.1470   -0.8757 C   0  0  0  0  0  0  0  0  0  0  0  0
    7.1322   -3.3857   -0.8147 N   0  0  0  0  0  0  0  0  0  0  0  0
   11.0581   -0.8979   -0.8638 N   0  0  0  0  0  0  0  0  0  0  0  0
    0.7161    0.8712    0.7200 H   0  0  0  0  0  0  0  0  0  0  0  0
    0.6583   -0.8903    0.4386 H   0  0  0  0  0  0  0  0  0  0  0  0
    0.5692    0.2624   -0.9224 H   0  0  0  0  0  0  0  0  0  0  0  0
    2.1306   -2.8904   -2.6672 H   0  0  0  0  0  0  0  0  0  0  0  0
    0.6475   -3.7594   -6.7256 H   0  0  0  0  0  0  0  0  0  0  0  0
    1.6503   -2.3420   -6.9940 H   0  0  0  0  0  0  0  0  0  0  0  0
   -0.0719   -2.1887   -6.4113 H   0  0  0  0  0  0  0  0  0  0  0  0
    2.7746    1.3164   -2.1784 H   0  0  0  0  0  0  0  0  0  0  0  0
    2.1421    3.9899   -4.4648 H   0  0  0  0  0  0  0  0  0  0  0  0
    3.3375    3.0452   -3.5663 H   0  0  0  0  0  0  0  0  0  0  0  0
    1.6336    3.1977   -2.9660 H   0  0  0  0  0  0  0  0  0  0  0  0
    0.6752    0.8559   -7.8246 H   0  0  0  0  0  0  0  0  0  0  0  0
    2.0317    1.4811   -6.8955 H   0  0  0  0  0  0  0  0  0  0  0  0
    0.3134    1.6535   -6.2987 H   0  0  0  0  0  0  0  0  0  0  0  0
    5.9277    1.4708   -0.8679 H   0  0  0  0  0  0  0  0  0  0  0  0
    7.2979    2.1146   -1.7612 H   0  0  0  0  0  0  0  0  0  0  0  0
    7.2976    2.1126    0.0277 H   0  0  0  0  0  0  0  0  0  0  0  0
    7.7153   -4.2048   -0.8881 H   0  0  0  0  0  0  0  0  0  0  0  0
    6.1327   -3.4610   -0.9342 H   0  0  0  0  0  0  0  0  0  0  0  0
   11.4871    0.0094   -0.8563 H   0  0  0  0  0  0  0  0  0  0  0  0
   11.5654   -1.7615   -0.8558 H   0  0  0  0  0  0  0  0  0  0  0  0
  1  2  1  0  0  0  0
  1 28  1  0  0  0  0
  1 29  1  0  0  0  0
  1 30  1  0  0  0  0
  2  3  1  0  0  0  0
  3  4  1  1  0  0  0
  3  5  1  0  0  0  0
  3 17  1  0  0  0  0
  5  6  2  0  0  0  0
  5 12  1  0  0  0  0
  6  7  1  0  0  0  0
  6 31  1  0  0  0  0
  7  8  1  0  0  0  0
  7 10  2  0  0  0  0
  8  9  1  0  0  0  0
  9 32  1  0  0  0  0
  9 33  1  0  0  0  0
  9 34  1  0  0  0  0
 10 11  1  0  0  0  0
 10 15  1  0  0  0  0
 11 12  2  0  0  0  0
 11 13  1  0  0  0  0
 12 35  1  0  0  0  0
 13 14  1  0  0  0  0
 14 36  1  0  0  0  0
 14 37  1  0  0  0  0
 14 38  1  0  0  0  0
 15 16  1  0  0  0  0
 16 39  1  0  0  0  0
 16 40  1  0  0  0  0
 16 41  1  0  0  0  0
 17 18  3  0  0  0  0
 18 19  1  0  0  0  0
 19 20  2  0  0  0  0
 19 25  1  0  0  0  0
 20 21  1  0  0  0  0
 20 22  1  0  0  0  0
 21 42  1  0  0  0  0
 21 43  1  0  0  0  0
 21 44  1  0  0  0  0
 22 23  2  0  0  0  0
 23 24  1  0  0  0  0
 23 27  1  0  0  0  0
 24 25  2  0  0  0  0
 25 26  1  0  0  0  0
 26 45  1  0  0  0  0
 26 46  1  0  0  0  0
 27 47  1  0  0  0  0
 27 48  1  0  0  0  0
M  END
$$$$
