600
 OpenBabel04121316063D

100106  0  0  1  0  0  0  0  0999 V2000
   11.3536   -3.0242    8.2572 C   0  0  0  0  0  0  0  0  0  0  0  0
   11.3323   -3.1320    6.8418 O   0  0  0  0  0  0  0  0  0  0  0  0
   10.4643   -4.0878    6.2024 C   0  0  2  0  0  0  0  0  0  0  0  0
   10.4627   -3.7723    5.1486 H   0  0  0  0  0  0  0  0  0  0  0  0
    8.9860   -4.0650    6.6056 C   0  0  0  0  0  0  0  0  0  0  0  0
    8.0920   -4.8285    5.8580 C   0  0  0  0  0  0  0  0  0  0  0  0
    7.0049   -5.3511    6.5178 C   0  0  0  0  0  0  0  0  0  0  0  0
    6.7469   -4.9354    7.8237 C   0  0  0  0  0  0  0  0  0  0  0  0
    7.6251   -4.0877    8.5019 C   0  0  0  0  0  0  0  0  0  0  0  0
    8.6942   -3.6289    7.8651 N   0  0  0  0  0  0  0  0  0  0  0  0
    7.3923   -3.8318    9.8598 C   0  0  0  0  0  0  0  0  0  0  0  0
    6.2320   -4.1309   10.4756 C   0  0  0  0  0  0  0  0  0  0  0  0
    5.3370   -4.8675    9.7743 C   0  0  0  0  0  0  0  0  0  0  0  0
    5.6117   -5.3132    8.4624 C   0  0  0  0  0  0  0  0  0  0  0  0
    4.1595   -5.2093   10.4633 C   0  0  0  0  0  0  0  0  0  0  0  0
    3.5934   -6.3475    9.9999 C   0  0  0  0  0  0  0  0  0  0  0  0
    2.3336   -6.5011   10.3401 C   0  0  0  0  0  0  0  0  0  0  0  0
    1.7005   -5.8831   11.3647 C   0  0  0  0  0  0  0  0  0  0  0  0
    2.3744   -4.8935   12.0558 C   0  0  0  0  0  0  0  0  0  0  0  0
    3.5694   -4.4772   11.5185 C   0  0  0  0  0  0  0  0  0  0  0  0
    0.3359   -6.3097   11.6693 C   0  0  0  0  0  0  0  0  0  0  0  0
   -0.5723   -7.3308   10.7801 C   0  0  2  0  0  0  0  0  0  0  0  0
    0.0285   -7.9492    9.5611 N   0  0  0  0  0  0  0  0  0  0  0  0
    0.8853   -9.0194    9.6535 N   0  0  0  0  0  0  0  0  0  0  0  0
    1.5989   -9.0759    8.5247 N   0  0  0  0  0  0  0  0  0  0  0  0
    1.0971   -8.1456    7.6460 C   0  0  0  0  0  0  0  0  0  0  0  0
    0.0640   -7.4454    8.2625 C   0  0  0  0  0  0  0  0  0  0  0  0
   -0.6034   -6.4175    7.5976 C   0  0  0  0  0  0  0  0  0  0  0  0
   -0.3246   -6.1625    6.2705 C   0  0  0  0  0  0  0  0  0  0  0  0
    0.7074   -6.8356    5.6445 C   0  0  0  0  0  0  0  0  0  0  0  0
    1.4747   -7.7869    6.3389 C   0  0  0  0  0  0  0  0  0  0  0  0
   -1.8992   -6.6538   10.3048 C   0  0  0  0  0  0  0  0  0  0  0  0
   -2.9235   -7.4673    9.7803 C   0  0  0  0  0  0  0  0  0  0  0  0
   -3.9518   -6.9054    9.0331 C   0  0  0  0  0  0  0  0  0  0  0  0
   -4.0563   -5.5218    8.9140 C   0  0  0  0  0  0  0  0  0  0  0  0
   -3.1460   -4.6906    9.5560 C   0  0  0  0  0  0  0  0  0  0  0  0
   -2.0462   -5.2496   10.2001 C   0  0  0  0  0  0  0  0  0  0  0  0
   -0.9053   -8.5032   11.7546 C   0  0  0  0  0  0  0  0  0  0  0  0
   -1.8149   -8.1065   12.8897 C   0  0  0  0  0  0  0  0  0  0  0  0
   -2.5406   -9.0899   13.5427 C   0  0  0  0  0  0  0  0  0  0  0  0
   -3.4953   -8.6920   14.4543 C   0  0  0  0  0  0  0  0  0  0  0  0
   -3.6132   -7.3336   14.7858 C   0  0  0  0  0  0  0  0  0  0  0  0
   -2.7899   -6.3711   14.2827 C   0  0  0  0  0  0  0  0  0  0  0  0
   -1.9739   -6.7653   13.2842 C   0  0  0  0  0  0  0  0  0  0  0  0
   -4.7244   -6.8388   15.5830 C   0  0  0  0  0  0  0  0  0  0  0  0
   -6.3459   -7.2361   14.8334 P   0  0  0  0  0  0  0  0  0  0  0  0
   -6.7076   -8.2442   15.9310 O   0  0  0  0  0  0  0  0  0  0  0  0
   -6.9954   -5.7607   15.1984 O   0  0  0  0  0  0  0  0  0  0  0  0
   -7.8787   -7.6117   14.1248 O   0  0  0  0  0  0  0  0  0  0  0  0
   -4.7303   -7.3375   16.8491 F   0  0  0  0  0  0  0  0  0  0  0  0
   -4.7878   -5.4769   15.7373 F   0  0  0  0  0  0  0  0  0  0  0  0
    8.5567   -2.8250   10.7774 P   0  0  0  0  0  0  0  0  0  0  0  0
    7.5314   -1.6978   10.9565 O   0  0  0  0  0  0  0  0  0  0  0  0
    8.5126   -3.8014   12.1001 O   0  0  0  0  0  0  0  0  0  0  0  0
    9.6807   -1.8531   11.6632 O   0  0  0  0  0  0  0  0  0  0  0  0
   11.0809   -5.5336    6.2021 C   0  0  0  0  0  0  0  0  0  0  0  0
   11.2689   -6.2248    7.5738 C   0  0  0  0  0  0  0  0  0  0  0  0
    9.9720   -6.4386    8.3313 C   0  0  0  0  0  0  0  0  0  0  0  0
   11.9590   -7.5735    7.5072 C   0  0  0  0  0  0  0  0  0  0  0  0
   12.1059   -2.2831    8.5275 H   0  0  0  0  0  0  0  0  0  0  0  0
   11.6212   -3.9363    8.7805 H   0  0  0  0  0  0  0  0  0  0  0  0
   10.4246   -2.6465    8.6747 H   0  0  0  0  0  0  0  0  0  0  0  0
    8.2906   -5.1031    4.8284 H   0  0  0  0  0  0  0  0  0  0  0  0
    6.3890   -6.1162    6.0430 H   0  0  0  0  0  0  0  0  0  0  0  0
    6.0446   -3.7537   11.4732 H   0  0  0  0  0  0  0  0  0  0  0  0
    4.9005   -5.9155    7.8950 H   0  0  0  0  0  0  0  0  0  0  0  0
    3.9741   -6.9997    9.2242 H   0  0  0  0  0  0  0  0  0  0  0  0
    1.8792   -7.1077    9.6349 H   0  0  0  0  0  0  0  0  0  0  0  0
    1.9525   -4.3958   12.9234 H   0  0  0  0  0  0  0  0  0  0  0  0
    4.0226   -3.5695   11.9097 H   0  0  0  0  0  0  0  0  0  0  0  0
   -0.1534   -5.3422   11.7813 H   0  0  0  0  0  0  0  0  0  0  0  0
    0.4409   -6.7065   12.6900 H   0  0  0  0  0  0  0  0  0  0  0  0
   -1.3730   -5.8232    8.0432 H   0  0  0  0  0  0  0  0  0  0  0  0
   -0.9354   -5.4260    5.7548 H   0  0  0  0  0  0  0  0  0  0  0  0
    0.9044   -6.6192    4.6000 H   0  0  0  0  0  0  0  0  0  0  0  0
    2.3224   -8.2586    5.8568 H   0  0  0  0  0  0  0  0  0  0  0  0
   -2.8734   -8.5522    9.8463 H   0  0  0  0  0  0  0  0  0  0  0  0
   -4.6386   -7.5572    8.5011 H   0  0  0  0  0  0  0  0  0  0  0  0
   -4.8256   -5.0906    8.2818 H   0  0  0  0  0  0  0  0  0  0  0  0
   -3.2223   -3.6101    9.4683 H   0  0  0  0  0  0  0  0  0  0  0  0
   -1.2582   -4.5510   10.4718 H   0  0  0  0  0  0  0  0  0  0  0  0
    0.0165   -8.9238   12.1827 H   0  0  0  0  0  0  0  0  0  0  0  0
   -1.3735   -9.3282   11.2004 H   0  0  0  0  0  0  0  0  0  0  0  0
   -2.4112  -10.1412   13.3009 H   0  0  0  0  0  0  0  0  0  0  0  0
   -4.1690   -9.4297   14.8852 H   0  0  0  0  0  0  0  0  0  0  0  0
   -2.8466   -5.3193   14.5540 H   0  0  0  0  0  0  0  0  0  0  0  0
   -1.5414   -5.9101   12.8080 H   0  0  0  0  0  0  0  0  0  0  0  0
   -6.3754   -5.1630   15.6702 H   0  0  0  0  0  0  0  0  0  0  0  0
   -7.9763   -8.5816   14.1232 H   0  0  0  0  0  0  0  0  0  0  0  0
    7.9889   -4.6174   12.0264 H   0  0  0  0  0  0  0  0  0  0  0  0
    9.6599   -0.9649   11.2618 H   0  0  0  0  0  0  0  0  0  0  0  0
   12.0702   -5.4609    5.7307 H   0  0  0  0  0  0  0  0  0  0  0  0
   10.4883   -6.1933    5.5511 H   0  0  0  0  0  0  0  0  0  0  0  0
   11.9491   -5.6196    8.1653 H   0  0  0  0  0  0  0  0  0  0  0  0
    9.2450   -7.0043    7.7390 H   0  0  0  0  0  0  0  0  0  0  0  0
    9.5696   -5.4851    8.6050 H   0  0  0  0  0  0  0  0  0  0  0  0
   10.1068   -6.9275    9.2970 H   0  0  0  0  0  0  0  0  0  0  0  0
   11.3667   -8.2968    6.9430 H   0  0  0  0  0  0  0  0  0  0  0  0
   12.0792   -7.9521    8.5313 H   0  0  0  0  0  0  0  0  0  0  0  0
   12.9546   -7.4794    7.0707 H   0  0  0  0  0  0  0  0  0  0  0  0
  1  2  1  0  0  0  0
  1 60  1  0  0  0  0
  1 61  1  0  0  0  0
  1 62  1  0  0  0  0
  3  5  1  0  0  0  0
  3 56  1  0  0  0  0
  3  4  1  6  0  0  0
  3  2  1  0  0  0  0
  5  6  2  0  0  0  0
  5 10  1  0  0  0  0
  6  7  1  0  0  0  0
  6 63  1  0  0  0  0
  7  8  2  0  0  0  0
  7 64  1  0  0  0  0
  8  9  1  0  0  0  0
  8 14  1  0  0  0  0
  9 10  2  0  0  0  0
  9 11  1  0  0  0  0
 11 12  2  0  0  0  0
 11 52  1  0  0  0  0
 12 13  1  0  0  0  0
 12 65  1  0  0  0  0
 13 14  2  0  0  0  0
 13 15  1  0  0  0  0
 14 66  1  0  0  0  0
 15 16  2  0  0  0  0
 15 20  1  0  0  0  0
 16 17  1  0  0  0  0
 16 67  1  0  0  0  0
 17 18  2  0  0  0  0
 17 68  1  0  0  0  0
 18 19  1  0  0  0  0
 18 21  1  0  0  0  0
 19 20  2  0  0  0  0
 19 69  1  0  0  0  0
 20 70  1  0  0  0  0
 21 71  1  0  0  0  0
 21 72  1  0  0  0  0
 22 32  1  6  0  0  0
 22 38  1  0  0  0  0
 22 23  1  0  0  0  0
 22 21  1  0  0  0  0
 23 24  1  0  0  0  0
 23 27  1  0  0  0  0
 24 25  2  0  0  0  0
 25 26  1  0  0  0  0
 26 27  2  0  0  0  0
 26 31  1  0  0  0  0
 27 28  1  0  0  0  0
 28 29  2  0  0  0  0
 28 73  1  0  0  0  0
 29 30  1  0  0  0  0
 29 74  1  0  0  0  0
 30 31  2  0  0  0  0
 30 75  1  0  0  0  0
 31 76  1  0  0  0  0
 32 33  2  0  0  0  0
 32 37  1  0  0  0  0
 33 34  1  0  0  0  0
 33 77  1  0  0  0  0
 34 35  2  0  0  0  0
 34 78  1  0  0  0  0
 35 36  1  0  0  0  0
 35 79  1  0  0  0  0
 36 37  2  0  0  0  0
 36 80  1  0  0  0  0
 37 81  1  0  0  0  0
 38 39  1  0  0  0  0
 38 82  1  0  0  0  0
 38 83  1  0  0  0  0
 39 40  2  0  0  0  0
 39 44  1  0  0  0  0
 40 41  1  0  0  0  0
 40 84  1  0  0  0  0
 41 42  2  0  0  0  0
 41 85  1  0  0  0  0
 42 43  1  0  0  0  0
 42 45  1  0  0  0  0
 43 44  2  0  0  0  0
 43 86  1  0  0  0  0
 44 87  1  0  0  0  0
 45 46  1  0  0  0  0
 45 50  1  0  0  0  0
 45 51  1  0  0  0  0
 46 47  2  0  0  0  0
 46 48  1  0  0  0  0
 46 49  1  0  0  0  0
 48 88  1  0  0  0  0
 49 89  1  0  0  0  0
 52 53  2  0  0  0  0
 52 54  1  0  0  0  0
 52 55  1  0  0  0  0
 54 90  1  0  0  0  0
 55 91  1  0  0  0  0
 56 57  1  0  0  0  0
 56 92  1  0  0  0  0
 56 93  1  0  0  0  0
 57 58  1  0  0  0  0
 57 59  1  0  0  0  0
 57 94  1  0  0  0  0
 58 95  1  0  0  0  0
 58 96  1  0  0  0  0
 58 97  1  0  0  0  0
 59 98  1  0  0  0  0
 59 99  1  0  0  0  0
 59100  1  0  0  0  0
M  END
$$$$
