606
 OpenBabel04121316063D

 51 52  0  0  1  0  0  0  0  0999 V2000
    2.6256    4.0479   -2.2409 N   0  0  0  0  0  0  0  0  0  0  0  0
    3.7002    3.3007   -1.7813 C   0  0  0  0  0  0  0  0  0  0  0  0
    3.5826    3.0508   -0.5228 N   0  0  0  0  0  0  0  0  0  0  0  0
    4.8486    3.0689   -2.5630 N   0  0  0  0  0  0  0  0  0  0  0  0
    5.9205    2.1642   -2.5526 C   0  0  0  0  0  0  0  0  0  0  0  0
    5.7066    0.8265   -2.4588 C   0  0  0  0  0  0  0  0  0  0  0  0
    6.7021    0.0852   -1.8757 C   0  0  0  0  0  0  0  0  0  0  0  0
    7.7576    0.7601   -1.2548 C   0  0  0  0  0  0  0  0  0  0  0  0
    8.0543    2.0846   -1.5963 C   0  0  0  0  0  0  0  0  0  0  0  0
    7.2428    2.6345   -2.5721 C   0  0  0  0  0  0  0  0  0  0  0  0
    8.9863    3.0002   -0.7801 C   0  0  1  0  0  0  0  0  0  0  0  0
    8.7741    2.8538    0.2962 H   0  0  0  0  0  0  0  0  0  0  0  0
   10.4400    2.6150   -1.0423 C   0  0  0  0  0  0  0  0  0  0  0  0
   11.2604    3.3504   -1.5131 O   0  0  0  0  0  0  0  0  0  0  0  0
   10.7550    1.3349   -0.6923 O   0  0  0  0  0  0  0  0  0  0  0  0
    8.8464    4.5799   -1.0202 C   0  0  0  0  0  0  0  0  0  0  0  0
    7.1913    5.2743   -0.4111 P   0  0  2  0  0  0  0  0  0  0  0  0
    6.4732    3.9438   -0.7255 O   0  0  0  0  0  0  0  0  0  0  0  0
    6.2638    6.4528   -1.7528 C   0  0  0  0  0  0  0  0  0  0  0  0
    5.2489    5.6055   -2.4534 C   0  0  0  0  0  0  0  0  0  0  0  0
    4.3044    5.9198   -3.6399 C   0  0  0  0  0  0  0  0  0  0  0  0
    3.5303    4.8137   -4.6233 C   0  0  0  0  0  0  0  0  0  0  0  0
    3.5440    3.3408   -4.7281 C   0  0  0  0  0  0  0  0  0  0  0  0
    2.6789    2.4215   -5.3109 C   0  0  0  0  0  0  0  0  0  0  0  0
    1.5723    2.9731   -5.8331 C   0  0  0  0  0  0  0  0  0  0  0  0
    1.4291    4.3784   -5.7768 C   0  0  0  0  0  0  0  0  0  0  0  0
    2.3876    5.2929   -5.2334 C   0  0  0  0  0  0  0  0  0  0  0  0
    7.9958    6.7648   -0.0588 O   0  0  0  0  0  0  0  0  0  0  0  0
    2.0160    4.6138   -1.6645 H   0  0  0  0  0  0  0  0  0  0  0  0
    2.1659    3.9000   -3.1351 H   0  0  0  0  0  0  0  0  0  0  0  0
    2.6788    3.4635   -0.2968 H   0  0  0  0  0  0  0  0  0  0  0  0
    5.0637    3.6139   -3.3925 H   0  0  0  0  0  0  0  0  0  0  0  0
    4.7523    0.4242   -2.7644 H   0  0  0  0  0  0  0  0  0  0  0  0
    6.5603   -0.9761   -1.7521 H   0  0  0  0  0  0  0  0  0  0  0  0
    8.2541    0.2307   -0.4568 H   0  0  0  0  0  0  0  0  0  0  0  0
    7.4484    3.6530   -2.8905 H   0  0  0  0  0  0  0  0  0  0  0  0
   10.0271    0.8134   -0.3219 H   0  0  0  0  0  0  0  0  0  0  0  0
    8.9941    4.8520   -2.0651 H   0  0  0  0  0  0  0  0  0  0  0  0
    9.6216    5.0832   -0.4247 H   0  0  0  0  0  0  0  0  0  0  0  0
    7.0234    6.8669   -2.4073 H   0  0  0  0  0  0  0  0  0  0  0  0
    5.7747    7.2021   -1.1189 H   0  0  0  0  0  0  0  0  0  0  0  0
    4.6692    5.2725   -1.5887 H   0  0  0  0  0  0  0  0  0  0  0  0
    5.9603    4.9239   -2.8694 H   0  0  0  0  0  0  0  0  0  0  0  0
    4.8976    6.5578   -4.2952 H   0  0  0  0  0  0  0  0  0  0  0  0
    3.5291    6.5588   -3.1792 H   0  0  0  0  0  0  0  0  0  0  0  0
    3.8209    2.6244   -3.9765 H   0  0  0  0  0  0  0  0  0  0  0  0
    2.7627    1.3550   -5.0312 H   0  0  0  0  0  0  0  0  0  0  0  0
    0.8040    2.2906   -6.1689 H   0  0  0  0  0  0  0  0  0  0  0  0
    0.4762    4.7710   -6.0993 H   0  0  0  0  0  0  0  0  0  0  0  0
    2.1417    6.3491   -5.1520 H   0  0  0  0  0  0  0  0  0  0  0  0
    7.4159    7.4231    0.3751 H   0  0  0  0  0  0  0  0  0  0  0  0
  1  2  1  0  0  0  0
  1 29  1  0  0  0  0
  1 30  1  0  0  0  0
  2  3  2  0  0  0  0
  2  4  1  0  0  0  0
  3 31  1  0  0  0  0
  4  5  1  0  0  0  0
  4 32  1  0  0  0  0
  5  6  2  0  0  0  0
  5 10  1  0  0  0  0
  6  7  1  0  0  0  0
  6 33  1  0  0  0  0
  7  8  2  0  0  0  0
  7 34  1  0  0  0  0
  8  9  1  0  0  0  0
  8 35  1  0  0  0  0
  9 10  2  0  0  0  0
  9 11  1  0  0  0  0
 10 36  1  0  0  0  0
 11 12  1  1  0  0  0
 11 13  1  0  0  0  0
 11 16  1  0  0  0  0
 13 14  2  0  0  0  0
 13 15  1  0  0  0  0
 15 37  1  0  0  0  0
 16 38  1  0  0  0  0
 16 39  1  0  0  0  0
 17 19  1  6  0  0  0
 17 28  1  0  0  0  0
 17 18  2  0  0  0  0
 17 16  1  0  0  0  0
 19 20  1  0  0  0  0
 19 40  1  0  0  0  0
 19 41  1  0  0  0  0
 20 21  1  0  0  0  0
 20 42  1  0  0  0  0
 20 43  1  0  0  0  0
 21 22  1  0  0  0  0
 21 44  1  0  0  0  0
 21 45  1  0  0  0  0
 22 23  2  0  0  0  0
 22 27  1  0  0  0  0
 23 24  1  0  0  0  0
 23 46  1  0  0  0  0
 24 25  2  0  0  0  0
 24 47  1  0  0  0  0
 25 26  1  0  0  0  0
 25 48  1  0  0  0  0
 26 27  2  0  0  0  0
 26 49  1  0  0  0  0
 27 50  1  0  0  0  0
 28 51  1  0  0  0  0
M  END
$$$$
