610
 OpenBabel04121316063D

 51 54  0  0  1  0  0  0  0  0999 V2000
    2.8319    0.2668   -1.4370 O   0  0  0  0  0  0  0  0  0  0  0  0
    2.3985    0.0735   -0.0901 C   0  0  2  0  0  0  0  0  0  0  0  0
    1.3036    0.0567   -0.1206 H   0  0  0  0  0  0  0  0  0  0  0  0
    2.9530    1.1751    0.8116 C   0  0  1  0  0  0  0  0  0  0  0  0
    3.1158    2.1141    0.2719 H   0  0  0  0  0  0  0  0  0  0  0  0
    2.1166    1.4375    2.0263 C   0  0  0  0  0  0  0  0  0  0  0  0
    0.8439    1.8536    1.9550 C   0  0  0  0  0  0  0  0  0  0  0  0
    0.0214    2.0377    3.1795 C   0  0  0  0  0  0  0  0  0  0  0  0
   -1.2990    2.4598    2.8118 N   0  0  0  0  0  0  0  0  0  0  0  0
   -2.2001    2.7209    3.8134 C   0  0  0  0  0  0  0  0  0  0  0  0
   -2.0024    2.5204    5.0075 O   0  0  0  0  0  0  0  0  0  0  0  0
   -3.5076    3.2054    3.3677 C   0  0  0  0  0  0  0  0  0  0  0  0
   -4.5068    2.2624    3.1120 C   0  0  0  0  0  0  0  0  0  0  0  0
   -5.7800    2.7131    2.7457 C   0  0  0  0  0  0  0  0  0  0  0  0
   -6.0593    4.0860    2.6420 C   0  0  0  0  0  0  0  0  0  0  0  0
   -5.0431    5.0023    2.9046 C   0  0  0  0  0  0  0  0  0  0  0  0
   -3.7659    4.5701    3.2631 C   0  0  0  0  0  0  0  0  0  0  0  0
   -2.7794    5.4848    3.5021 O   0  0  0  0  0  0  0  0  0  0  0  0
   -5.2634    6.3492    2.8180 O   0  0  0  0  0  0  0  0  0  0  0  0
   -6.8379    1.7359    2.4632 N   0  3  0  0  0  0  0  0  0  0  0  0
   -6.5523    0.5349    2.5556 O   0  0  0  0  0  0  0  0  0  0  0  0
   -7.9491    2.1747    2.1353 O   0  5  0  0  0  0  0  0  0  0  0  0
    4.2317    0.6912    1.2440 O   0  0  0  0  0  0  0  0  0  0  0  0
    4.1532   -0.7399    1.3956 C   0  0  2  0  0  0  0  0  0  0  0  0
    5.0892   -1.1811    1.0325 H   0  0  0  0  0  0  0  0  0  0  0  0
    2.9425   -1.2014    0.5533 C   0  0  2  0  0  0  0  0  0  0  0  0
    2.1390   -1.6205    1.1635 H   0  0  0  0  0  0  0  0  0  0  0  0
    3.2946   -2.1886   -0.4152 O   0  0  0  0  0  0  0  0  0  0  0  0
    4.0870   -1.0692    2.8188 N   0  0  0  0  0  0  0  0  0  0  0  0
    3.2894   -2.0207    3.4061 C   0  0  0  0  0  0  0  0  0  0  0  0
    3.4364   -2.0693    4.7104 N   0  0  0  0  0  0  0  0  0  0  0  0
    4.3977   -1.1356    4.9870 C   0  0  0  0  0  0  0  0  0  0  0  0
    4.8365   -0.5092    3.8285 C   0  0  0  0  0  0  0  0  0  0  0  0
    5.7808    0.4446    3.7451 N   0  0  0  0  0  0  0  0  0  0  0  0
    6.2718    0.7604    4.9618 C   0  0  0  0  0  0  0  0  0  0  0  0
    5.9386    0.2324    6.1602 N   0  0  0  0  0  0  0  0  0  0  0  0
    4.9878   -0.7331    6.1790 C   0  0  0  0  0  0  0  0  0  0  0  0
    3.7940    0.1280   -1.4628 H   0  0  0  0  0  0  0  0  0  0  0  0
    2.5647    1.2718    3.0052 H   0  0  0  0  0  0  0  0  0  0  0  0
    0.4076    2.0538    0.9802 H   0  0  0  0  0  0  0  0  0  0  0  0
    0.4631    2.7926    3.8380 H   0  0  0  0  0  0  0  0  0  0  0  0
   -0.0696    1.0909    3.7240 H   0  0  0  0  0  0  0  0  0  0  0  0
   -1.5255    2.6943    1.8541 H   0  0  0  0  0  0  0  0  0  0  0  0
   -4.2830    1.2024    3.2171 H   0  0  0  0  0  0  0  0  0  0  0  0
   -7.0522    4.4281    2.3620 H   0  0  0  0  0  0  0  0  0  0  0  0
   -3.1928    6.3670    3.4294 H   0  0  0  0  0  0  0  0  0  0  0  0
   -6.1942    6.5050    2.5744 H   0  0  0  0  0  0  0  0  0  0  0  0
    3.5952   -2.9904    0.0475 H   0  0  0  0  0  0  0  0  0  0  0  0
    2.6058   -2.6581    2.8620 H   0  0  0  0  0  0  0  0  0  0  0  0
    7.0312    1.5370    4.9857 H   0  0  0  0  0  0  0  0  0  0  0  0
    4.7218   -1.1603    7.1368 H   0  0  0  0  0  0  0  0  0  0  0  0
  1 38  1  0  0  0  0
  2  4  1  0  0  0  0
  2 26  1  0  0  0  0
  2  3  1  1  0  0  0
  2  1  1  0  0  0  0
  4  5  1  6  0  0  0
  4  6  1  0  0  0  0
  4 23  1  0  0  0  0
  6  7  2  0  0  0  0
  6 39  1  0  0  0  0
  7  8  1  0  0  0  0
  7 40  1  0  0  0  0
  8  9  1  0  0  0  0
  8 41  1  0  0  0  0
  8 42  1  0  0  0  0
  9 10  1  0  0  0  0
  9 43  1  0  0  0  0
 10 11  2  0  0  0  0
 10 12  1  0  0  0  0
 12 13  2  0  0  0  0
 12 17  1  0  0  0  0
 13 14  1  0  0  0  0
 13 44  1  0  0  0  0
 14 15  2  0  0  0  0
 14 20  1  0  0  0  0
 15 16  1  0  0  0  0
 15 45  1  0  0  0  0
 16 17  2  0  0  0  0
 16 19  1  0  0  0  0
 17 18  1  0  0  0  0
 18 46  1  0  0  0  0
 19 47  1  0  0  0  0
 20 21  2  0  0  0  0
 20 22  1  0  0  0  0
 23 24  1  0  0  0  0
 24 26  1  0  0  0  0
 24 29  1  0  0  0  0
 24 25  1  6  0  0  0
 26 27  1  1  0  0  0
 26 28  1  0  0  0  0
 28 48  1  0  0  0  0
 29 30  1  0  0  0  0
 29 33  1  0  0  0  0
 30 31  2  0  0  0  0
 30 49  1  0  0  0  0
 31 32  1  0  0  0  0
 32 33  2  0  0  0  0
 32 37  1  0  0  0  0
 33 34  1  0  0  0  0
 34 35  2  0  0  0  0
 35 36  1  0  0  0  0
 35 50  1  0  0  0  0
 36 37  2  0  0  0  0
 37 51  1  0  0  0  0
M  CHG  2  20   1  22  -1
M  END
$$$$
