611
 OpenBabel04121316063D

 50 52  0  0  1  0  0  0  0  0999 V2000
    2.8044    0.1147   -1.4316 O   0  0  0  0  0  0  0  0  0  0  0  0
    2.3743   -0.0744   -0.0780 C   0  0  2  0  0  0  0  0  0  0  0  0
    1.2800   -0.0959   -0.1116 H   0  0  0  0  0  0  0  0  0  0  0  0
    2.9283    1.0464    0.7999 C   0  0  1  0  0  0  0  0  0  0  0  0
    3.0871    1.9767    0.2445 H   0  0  0  0  0  0  0  0  0  0  0  0
    2.0921    1.3277    2.0086 C   0  0  0  0  0  0  0  0  0  0  0  0
    0.8177    1.7356    1.9350 C   0  0  0  0  0  0  0  0  0  0  0  0
   -0.0018    1.9107    3.1613 C   0  0  0  0  0  0  0  0  0  0  0  0
   -1.3221    2.3331    2.7973 N   0  0  0  0  0  0  0  0  0  0  0  0
   -2.2225    2.5911    3.7980 C   0  0  0  0  0  0  0  0  0  0  0  0
   -2.0245    2.3890    4.9938 O   0  0  0  0  0  0  0  0  0  0  0  0
   -3.5293    3.0748    3.3527 C   0  0  0  0  0  0  0  0  0  0  0  0
   -4.5279    2.1315    3.0956 C   0  0  0  0  0  0  0  0  0  0  0  0
   -5.8007    2.5823    2.7284 C   0  0  0  0  0  0  0  0  0  0  0  0
   -6.0798    3.9552    2.6248 C   0  0  0  0  0  0  0  0  0  0  0  0
   -5.0638    4.8715    2.8877 C   0  0  0  0  0  0  0  0  0  0  0  0
   -3.7871    4.4395    3.2471 C   0  0  0  0  0  0  0  0  0  0  0  0
   -2.8012    5.3547    3.4864 O   0  0  0  0  0  0  0  0  0  0  0  0
   -5.2836    6.2185    2.8016 O   0  0  0  0  0  0  0  0  0  0  0  0
   -6.8586    1.6051    2.4462 N   0  3  0  0  0  0  0  0  0  0  0  0
   -6.5735    0.4041    2.5396 O   0  0  0  0  0  0  0  0  0  0  0  0
   -7.9699    2.0440    2.1186 O   0  5  0  0  0  0  0  0  0  0  0  0
    4.2152    0.5850    1.2367 O   0  0  0  0  0  0  0  0  0  0  0  0
    4.1605   -0.8472    1.3778 C   0  0  2  0  0  0  0  0  0  0  0  0
    5.0962   -1.2266    0.9636 H   0  0  0  0  0  0  0  0  0  0  0  0
    2.9345   -1.3394    0.5806 C   0  0  2  0  0  0  0  0  0  0  0  0
    2.1714   -1.7815    1.2334 H   0  0  0  0  0  0  0  0  0  0  0  0
    3.2891   -2.3136   -0.4047 O   0  0  0  0  0  0  0  0  0  0  0  0
    4.0855   -1.2594    3.1816 S   0  0  0  0  0  0  0  0  0  0  0  0
    4.7642   -2.8949    3.3389 C   0  0  0  0  0  0  0  0  0  0  0  0
    5.2319   -3.6608    2.2790 C   0  0  0  0  0  0  0  0  0  0  0  0
    5.6377   -4.9600    2.5263 C   0  0  0  0  0  0  0  0  0  0  0  0
    5.7259   -5.4953    3.7575 N   0  0  0  0  0  0  0  0  0  0  0  0
    5.3651   -4.7040    4.7870 C   0  0  0  0  0  0  0  0  0  0  0  0
    4.8353   -3.4347    4.6268 C   0  0  0  0  0  0  0  0  0  0  0  0
    3.7674   -0.0186   -1.4559 H   0  0  0  0  0  0  0  0  0  0  0  0
    2.5375    1.1613    2.9878 H   0  0  0  0  0  0  0  0  0  0  0  0
    0.3792    1.9235    0.9591 H   0  0  0  0  0  0  0  0  0  0  0  0
    0.4399    2.6625    3.8233 H   0  0  0  0  0  0  0  0  0  0  0  0
   -0.0909    0.9611    3.7019 H   0  0  0  0  0  0  0  0  0  0  0  0
   -1.5496    2.5632    1.8385 H   0  0  0  0  0  0  0  0  0  0  0  0
   -4.3035    1.0716    3.2001 H   0  0  0  0  0  0  0  0  0  0  0  0
   -7.0727    4.2976    2.3448 H   0  0  0  0  0  0  0  0  0  0  0  0
   -3.2152    6.2364    3.4112 H   0  0  0  0  0  0  0  0  0  0  0  0
   -6.2141    6.3745    2.5573 H   0  0  0  0  0  0  0  0  0  0  0  0
    3.4972   -3.1442    0.0534 H   0  0  0  0  0  0  0  0  0  0  0  0
    5.3078   -3.2904    1.2690 H   0  0  0  0  0  0  0  0  0  0  0  0
    5.9152   -5.6171    1.7075 H   0  0  0  0  0  0  0  0  0  0  0  0
    5.5274   -5.1256    5.7749 H   0  0  0  0  0  0  0  0  0  0  0  0
    4.5084   -2.8787    5.5011 H   0  0  0  0  0  0  0  0  0  0  0  0
  1 36  1  0  0  0  0
  2  4  1  0  0  0  0
  2 26  1  0  0  0  0
  2  3  1  1  0  0  0
  2  1  1  0  0  0  0
  4  5  1  6  0  0  0
  4  6  1  0  0  0  0
  4 23  1  0  0  0  0
  6  7  2  0  0  0  0
  6 37  1  0  0  0  0
  7  8  1  0  0  0  0
  7 38  1  0  0  0  0
  8  9  1  0  0  0  0
  8 39  1  0  0  0  0
  8 40  1  0  0  0  0
  9 10  1  0  0  0  0
  9 41  1  0  0  0  0
 10 11  2  0  0  0  0
 10 12  1  0  0  0  0
 12 13  2  0  0  0  0
 12 17  1  0  0  0  0
 13 14  1  0  0  0  0
 13 42  1  0  0  0  0
 14 15  2  0  0  0  0
 14 20  1  0  0  0  0
 15 16  1  0  0  0  0
 15 43  1  0  0  0  0
 16 17  2  0  0  0  0
 16 19  1  0  0  0  0
 17 18  1  0  0  0  0
 18 44  1  0  0  0  0
 19 45  1  0  0  0  0
 20 21  2  0  0  0  0
 20 22  1  0  0  0  0
 23 24  1  0  0  0  0
 24 26  1  0  0  0  0
 24 29  1  0  0  0  0
 24 25  1  6  0  0  0
 26 27  1  1  0  0  0
 26 28  1  0  0  0  0
 28 46  1  0  0  0  0
 29 30  1  0  0  0  0
 30 31  2  0  0  0  0
 30 35  1  0  0  0  0
 31 32  1  0  0  0  0
 31 47  1  0  0  0  0
 32 33  2  0  0  0  0
 32 48  1  0  0  0  0
 33 34  1  0  0  0  0
 34 35  2  0  0  0  0
 34 49  1  0  0  0  0
 35 50  1  0  0  0  0
M  CHG  2  20   1  22  -1
M  END
$$$$
