617
 OpenBabel04121316063D

 33 34  0  0  0  0  0  0  0  0999 V2000
    0.7803   -0.2706   -0.0016 O   0  0  0  0  0  0  0  0  0  0  0  0
    1.9897   -0.0678    0.0103 C   0  0  0  0  0  0  0  0  0  0  0  0
    2.6554    1.1422    0.0735 N   0  0  0  0  0  0  0  0  0  0  0  0
    2.0891    2.4352    0.1190 C   0  0  0  0  0  0  0  0  0  0  0  0
    0.6851    2.5375    0.0228 C   0  0  0  0  0  0  0  0  0  0  0  0
    0.0264    3.7448   -0.1627 C   0  0  0  0  0  0  0  0  0  0  0  0
    0.7420    4.9164   -0.0741 C   0  0  0  0  0  0  0  0  0  0  0  0
    2.1130    4.8571    0.1856 C   0  0  0  0  0  0  0  0  0  0  0  0
    2.8356    3.6311    0.2099 C   0  0  0  0  0  0  0  0  0  0  0  0
    4.3283    3.8285    0.3002 C   0  0  0  0  0  0  0  0  0  0  0  0
    4.8003    4.9625    0.3762 O   0  0  0  0  0  0  0  0  0  0  0  0
    5.1811    2.7944    0.2343 O   0  0  0  0  0  0  0  0  0  0  0  0
    2.9333   -1.2514   -0.0263 C   0  0  0  0  0  0  0  0  0  0  0  0
    4.3151   -0.8959    0.0238 O   0  0  0  0  0  0  0  0  0  0  0  0
    5.1604   -1.9772   -0.0526 C   0  0  0  0  0  0  0  0  0  0  0  0
    6.5108   -1.6928   -0.2663 C   0  0  0  0  0  0  0  0  0  0  0  0
    7.4127   -2.7327   -0.5188 C   0  0  0  0  0  0  0  0  0  0  0  0
    6.9876   -4.0565   -0.4332 C   0  0  0  0  0  0  0  0  0  0  0  0
    5.6770   -4.3478   -0.0772 C   0  0  0  0  0  0  0  0  0  0  0  0
    4.7544   -3.3120    0.0575 C   0  0  0  0  0  0  0  0  0  0  0  0
    8.0704   -5.3400   -0.7982 Cl  0  0  0  0  0  0  0  0  0  0  0  0
    3.6357    1.0119   -0.0774 H   0  0  0  0  0  0  0  0  0  0  0  0
    0.0356    1.6713    0.0494 H   0  0  0  0  0  0  0  0  0  0  0  0
   -1.0417    3.7422   -0.3633 H   0  0  0  0  0  0  0  0  0  0  0  0
    0.2337    5.8687   -0.1947 H   0  0  0  0  0  0  0  0  0  0  0  0
    2.6279    5.8049    0.3494 H   0  0  0  0  0  0  0  0  0  0  0  0
    4.9022    1.8853    0.3675 H   0  0  0  0  0  0  0  0  0  0  0  0
    2.7097   -1.7823   -0.9600 H   0  0  0  0  0  0  0  0  0  0  0  0
    2.6697   -1.8412    0.8582 H   0  0  0  0  0  0  0  0  0  0  0  0
    6.8699   -0.6667   -0.2656 H   0  0  0  0  0  0  0  0  0  0  0  0
    8.4410   -2.5057   -0.7877 H   0  0  0  0  0  0  0  0  0  0  0  0
    5.3547   -5.3739    0.0759 H   0  0  0  0  0  0  0  0  0  0  0  0
    3.7226   -3.5936    0.2414 H   0  0  0  0  0  0  0  0  0  0  0  0
  1  2  2  0  0  0  0
  2  3  1  0  0  0  0
  2 13  1  0  0  0  0
  3  4  1  0  0  0  0
  3 22  1  0  0  0  0
  4  5  2  0  0  0  0
  4  9  1  0  0  0  0
  5  6  1  0  0  0  0
  5 23  1  0  0  0  0
  6  7  2  0  0  0  0
  6 24  1  0  0  0  0
  7  8  1  0  0  0  0
  7 25  1  0  0  0  0
  8  9  2  0  0  0  0
  8 26  1  0  0  0  0
  9 10  1  0  0  0  0
 10 11  2  0  0  0  0
 10 12  1  0  0  0  0
 12 27  1  0  0  0  0
 13 14  1  0  0  0  0
 13 28  1  0  0  0  0
 13 29  1  0  0  0  0
 14 15  1  0  0  0  0
 15 16  2  0  0  0  0
 15 20  1  0  0  0  0
 16 17  1  0  0  0  0
 16 30  1  0  0  0  0
 17 18  2  0  0  0  0
 17 31  1  0  0  0  0
 18 19  1  0  0  0  0
 18 21  1  0  0  0  0
 19 20  2  0  0  0  0
 19 32  1  0  0  0  0
 20 33  1  0  0  0  0
M  END
$$$$
