61X
 OpenBabel04121316063D

 47 50  0  0  0  0  0  0  0  0999 V2000
    0.8452   -0.1984    0.1433 F   0  0  0  0  0  0  0  0  0  0  0  0
    2.2005   -0.0573    0.0455 C   0  0  0  0  0  0  0  0  0  0  0  0
    2.5674    1.3061   -0.4486 C   0  0  0  0  0  0  0  0  0  0  0  0
    1.6207    2.3395   -0.4060 C   0  0  0  0  0  0  0  0  0  0  0  0
    1.9576    3.6252   -0.7595 C   0  0  0  0  0  0  0  0  0  0  0  0
    3.2790    3.9176   -0.9676 C   0  0  0  0  0  0  0  0  0  0  0  0
    4.2509    2.9187   -1.0314 C   0  0  0  0  0  0  0  0  0  0  0  0
    3.8604    1.5666   -0.8373 C   0  0  0  0  0  0  0  0  0  0  0  0
    4.6945    0.5354   -0.9584 N   0  0  0  0  0  0  0  0  0  0  0  0
    5.9777    0.8178   -1.1305 C   0  0  0  0  0  0  0  0  0  0  0  0
    6.4556    2.1211   -1.2132 C   0  0  0  0  0  0  0  0  0  0  0  0
    5.5961    3.2177   -1.2654 C   0  0  0  0  0  0  0  0  0  0  0  0
    6.1241    4.5701   -1.6251 C   0  0  0  0  0  0  0  0  0  0  0  0
    5.7276    5.7667   -1.0596 C   0  0  0  0  0  0  0  0  0  0  0  0
    6.1694    6.9952   -1.5593 C   0  0  0  0  0  0  0  0  0  0  0  0
    7.1229    7.0583   -2.5861 C   0  0  0  0  0  0  0  0  0  0  0  0
    7.6740    5.8785   -3.0810 C   0  0  0  0  0  0  0  0  0  0  0  0
    7.1141    4.6924   -2.5993 C   0  0  0  0  0  0  0  0  0  0  0  0
    8.7466    5.9627   -3.9619 O   0  0  0  0  0  0  0  0  0  0  0  0
    9.2850    4.8588   -4.6078 C   0  0  0  0  0  0  0  0  0  0  0  0
   10.0738    5.0710   -5.7329 C   0  0  0  0  0  0  0  0  0  0  0  0
   10.6196    3.9719   -6.4259 C   0  0  0  0  0  0  0  0  0  0  0  0
   10.1983    2.6747   -6.1520 C   0  0  0  0  0  0  0  0  0  0  0  0
    9.4231    2.4651   -5.0436 C   0  0  0  0  0  0  0  0  0  0  0  0
    9.2119    3.5343   -4.1807 C   0  0  0  0  0  0  0  0  0  0  0  0
    8.8170    0.8305   -4.7688 S   0  0  0  0  0  0  0  0  0  0  0  0
    7.9468    0.4786   -5.8928 O   0  0  0  0  0  0  0  0  0  0  0  0
    9.9164    0.0154   -4.3465 O   0  0  0  0  0  0  0  0  0  0  0  0
    7.7496    0.9317   -3.4283 C   0  0  0  0  0  0  0  0  0  0  0  0
    2.6746   -0.2958    1.3025 F   0  0  0  0  0  0  0  0  0  0  0  0
    2.6082   -1.0973   -0.7296 F   0  0  0  0  0  0  0  0  0  0  0  0
    0.6130    2.1444   -0.0605 H   0  0  0  0  0  0  0  0  0  0  0  0
    1.2368    4.4296   -0.8206 H   0  0  0  0  0  0  0  0  0  0  0  0
    3.5027    4.9677   -1.0390 H   0  0  0  0  0  0  0  0  0  0  0  0
    6.6146   -0.0581   -1.2475 H   0  0  0  0  0  0  0  0  0  0  0  0
    7.5152    2.2973   -1.3238 H   0  0  0  0  0  0  0  0  0  0  0  0
    5.0684    5.7676   -0.2006 H   0  0  0  0  0  0  0  0  0  0  0  0
    5.7789    7.8949   -1.0928 H   0  0  0  0  0  0  0  0  0  0  0  0
    7.4454    8.0331   -2.9429 H   0  0  0  0  0  0  0  0  0  0  0  0
    7.4429    3.7478   -2.9451 H   0  0  0  0  0  0  0  0  0  0  0  0
   10.3307    6.0794   -6.0472 H   0  0  0  0  0  0  0  0  0  0  0  0
   11.3720    4.1165   -7.1922 H   0  0  0  0  0  0  0  0  0  0  0  0
   10.5226    1.8148   -6.7290 H   0  0  0  0  0  0  0  0  0  0  0  0
    9.1393    3.3210   -3.1231 H   0  0  0  0  0  0  0  0  0  0  0  0
    6.9967    1.6971   -3.6317 H   0  0  0  0  0  0  0  0  0  0  0  0
    8.3929    1.1362   -2.5698 H   0  0  0  0  0  0  0  0  0  0  0  0
    7.2612   -0.0335   -3.3010 H   0  0  0  0  0  0  0  0  0  0  0  0
  1  2  1  0  0  0  0
  2  3  1  0  0  0  0
  2 30  1  0  0  0  0
  2 31  1  0  0  0  0
  3  4  2  0  0  0  0
  3  8  1  0  0  0  0
  4  5  1  0  0  0  0
  4 32  1  0  0  0  0
  5  6  2  0  0  0  0
  5 33  1  0  0  0  0
  6  7  1  0  0  0  0
  6 34  1  0  0  0  0
  7  8  2  0  0  0  0
  7 12  1  0  0  0  0
  8  9  1  0  0  0  0
  9 10  2  0  0  0  0
 10 11  1  0  0  0  0
 10 35  1  0  0  0  0
 11 12  2  0  0  0  0
 11 36  1  0  0  0  0
 12 13  1  0  0  0  0
 13 14  2  0  0  0  0
 13 18  1  0  0  0  0
 14 15  1  0  0  0  0
 14 37  1  0  0  0  0
 15 16  2  0  0  0  0
 15 38  1  0  0  0  0
 16 17  1  0  0  0  0
 16 39  1  0  0  0  0
 17 18  2  0  0  0  0
 17 19  1  0  0  0  0
 18 40  1  0  0  0  0
 19 20  1  0  0  0  0
 20 21  2  0  0  0  0
 20 25  1  0  0  0  0
 21 22  1  0  0  0  0
 21 41  1  0  0  0  0
 22 23  2  0  0  0  0
 22 42  1  0  0  0  0
 23 24  1  0  0  0  0
 23 43  1  0  0  0  0
 24 25  2  0  0  0  0
 24 26  1  0  0  0  0
 25 44  1  0  0  0  0
 26 27  2  0  0  0  0
 26 28  2  0  0  0  0
 26 29  1  0  0  0  0
 29 45  1  0  0  0  0
 29 46  1  0  0  0  0
 29 47  1  0  0  0  0
M  END
$$$$
