625
 OpenBabel04121316063D

 55 58  0  0  0  0  0  0  0  0999 V2000
    0.9720    0.0957   -0.0079 N   0  0  0  0  0  0  0  0  0  0  0  0
    2.1230    0.0957   -0.0079 C   0  0  0  0  0  0  0  0  0  0  0  0
    3.5670    0.0957   -0.0079 C   0  0  0  0  0  0  0  0  0  0  0  0
    4.0410   -1.3010   -0.1716 C   0  0  0  0  0  0  0  0  0  0  0  0
    5.5234   -1.1631   -0.2101 C   0  0  0  0  0  0  0  0  0  0  0  0
    5.9775   -2.4112   -0.6306 O   0  0  0  0  0  0  0  0  0  0  0  0
    7.2276   -2.3548   -1.1539 C   0  0  0  0  0  0  0  0  0  0  0  0
    8.1845   -1.3718   -0.9001 C   0  0  0  0  0  0  0  0  0  0  0  0
    9.5324   -1.6614   -1.0828 C   0  0  0  0  0  0  0  0  0  0  0  0
    9.9288   -2.9467   -1.4915 C   0  0  0  0  0  0  0  0  0  0  0  0
    8.9155   -3.8485   -1.8548 C   0  0  0  0  0  0  0  0  0  0  0  0
    7.5725   -3.5705   -1.7023 C   0  0  0  0  0  0  0  0  0  0  0  0
   11.3583   -3.3224   -1.4052 C   0  0  0  0  0  0  0  0  0  0  0  0
   12.4475   -2.4728   -1.3663 C   0  0  0  0  0  0  0  0  0  0  0  0
   13.6143   -3.2468   -1.5336 C   0  0  0  0  0  0  0  0  0  0  0  0
   13.2877   -4.6070   -1.4957 C   0  0  0  0  0  0  0  0  0  0  0  0
   11.8996   -4.5958   -1.2377 N   0  0  0  0  0  0  0  0  0  0  0  0
   11.2325   -5.8443   -0.8933 C   0  0  0  0  0  0  0  0  0  0  0  0
    9.9827   -5.9292   -0.0760 C   0  0  0  0  0  0  0  0  0  0  0  0
    9.1018   -6.9954   -0.2659 C   0  0  0  0  0  0  0  0  0  0  0  0
    7.8552   -6.9231    0.3474 C   0  0  0  0  0  0  0  0  0  0  0  0
    7.4968   -5.7338    0.9587 C   0  0  0  0  0  0  0  0  0  0  0  0
    8.4449   -4.7545    1.1277 C   0  0  0  0  0  0  0  0  0  0  0  0
    9.7196   -4.8993    0.7460 N   0  0  0  0  0  0  0  0  0  0  0  0
    8.0650   -3.4660    1.5076 N   0  0  0  0  0  0  0  0  0  0  0  0
   14.2156   -5.8067   -1.7263 C   0  0  0  0  0  0  0  0  0  0  0  0
   15.4980   -5.4490   -2.2312 C   0  0  0  0  0  0  0  0  0  0  0  0
   16.4295   -6.3849   -2.7039 C   0  0  0  0  0  0  0  0  0  0  0  0
   16.1802   -7.7336   -2.5823 C   0  0  0  0  0  0  0  0  0  0  0  0
   15.0229   -8.1357   -1.9609 C   0  0  0  0  0  0  0  0  0  0  0  0
   14.0227   -7.2219   -1.5894 C   0  0  0  0  0  0  0  0  0  0  0  0
   12.6878   -8.2143   -1.0674 Cl  0  0  0  0  0  0  0  0  0  0  0  0
    3.9331    0.5315    0.9299 H   0  0  0  0  0  0  0  0  0  0  0  0
    3.9189    0.7432   -0.8206 H   0  0  0  0  0  0  0  0  0  0  0  0
    3.6601   -1.7526   -1.0981 H   0  0  0  0  0  0  0  0  0  0  0  0
    3.7154   -1.9586    0.6450 H   0  0  0  0  0  0  0  0  0  0  0  0
    5.9201   -0.9059    0.7804 H   0  0  0  0  0  0  0  0  0  0  0  0
    5.7914   -0.3902   -0.9414 H   0  0  0  0  0  0  0  0  0  0  0  0
    7.9449   -0.4539   -0.3645 H   0  0  0  0  0  0  0  0  0  0  0  0
   10.2619   -0.9349   -0.7389 H   0  0  0  0  0  0  0  0  0  0  0  0
    9.1112   -4.8962   -2.0368 H   0  0  0  0  0  0  0  0  0  0  0  0
    6.8303   -4.3655   -1.7399 H   0  0  0  0  0  0  0  0  0  0  0  0
   12.4113   -1.3890   -1.3408 H   0  0  0  0  0  0  0  0  0  0  0  0
   14.5912   -2.8112   -1.6968 H   0  0  0  0  0  0  0  0  0  0  0  0
   11.9391   -6.2549   -0.1836 H   0  0  0  0  0  0  0  0  0  0  0  0
   11.1220   -6.3516   -1.8631 H   0  0  0  0  0  0  0  0  0  0  0  0
    9.3197   -7.8161   -0.9452 H   0  0  0  0  0  0  0  0  0  0  0  0
    7.1364   -7.7253    0.2601 H   0  0  0  0  0  0  0  0  0  0  0  0
    6.4516   -5.5040    1.1482 H   0  0  0  0  0  0  0  0  0  0  0  0
    7.1402   -3.2690    1.1326 H   0  0  0  0  0  0  0  0  0  0  0  0
    8.7473   -2.8980    0.9990 H   0  0  0  0  0  0  0  0  0  0  0  0
   15.8086   -4.4089   -2.3077 H   0  0  0  0  0  0  0  0  0  0  0  0
   17.3505   -6.0528   -3.1731 H   0  0  0  0  0  0  0  0  0  0  0  0
   16.8631   -8.4866   -2.9545 H   0  0  0  0  0  0  0  0  0  0  0  0
   14.8669   -9.2010   -1.7941 H   0  0  0  0  0  0  0  0  0  0  0  0
  1  2  3  0  0  0  0
  2  3  1  0  0  0  0
  3  4  1  0  0  0  0
  3 33  1  0  0  0  0
  3 34  1  0  0  0  0
  4  5  1  0  0  0  0
  4 35  1  0  0  0  0
  4 36  1  0  0  0  0
  5  6  1  0  0  0  0
  5 37  1  0  0  0  0
  5 38  1  0  0  0  0
  6  7  1  0  0  0  0
  7  8  2  0  0  0  0
  7 12  1  0  0  0  0
  8  9  1  0  0  0  0
  8 39  1  0  0  0  0
  9 10  2  0  0  0  0
  9 40  1  0  0  0  0
 10 11  1  0  0  0  0
 10 13  1  0  0  0  0
 11 12  2  0  0  0  0
 11 41  1  0  0  0  0
 12 42  1  0  0  0  0
 13 14  2  0  0  0  0
 13 17  1  0  0  0  0
 14 15  1  0  0  0  0
 14 43  1  0  0  0  0
 15 16  2  0  0  0  0
 15 44  1  0  0  0  0
 16 17  1  0  0  0  0
 16 26  1  0  0  0  0
 17 18  1  0  0  0  0
 18 19  1  0  0  0  0
 18 45  1  0  0  0  0
 18 46  1  0  0  0  0
 19 20  2  0  0  0  0
 19 24  1  0  0  0  0
 20 21  1  0  0  0  0
 20 47  1  0  0  0  0
 21 22  2  0  0  0  0
 21 48  1  0  0  0  0
 22 23  1  0  0  0  0
 22 49  1  0  0  0  0
 23 24  2  0  0  0  0
 23 25  1  0  0  0  0
 25 50  1  0  0  0  0
 25 51  1  0  0  0  0
 26 27  2  0  0  0  0
 26 31  1  0  0  0  0
 27 28  1  0  0  0  0
 27 52  1  0  0  0  0
 28 29  2  0  0  0  0
 28 53  1  0  0  0  0
 29 30  1  0  0  0  0
 29 54  1  0  0  0  0
 30 31  2  0  0  0  0
 30 55  1  0  0  0  0
 31 32  1  0  0  0  0
M  END
$$$$
