627
 OpenBabel04121316063D

 61 65  0  0  1  0  0  0  0  0999 V2000
    1.0240    0.1466   -0.1599 C   0  0  0  0  0  0  0  0  0  0  0  0
    2.4257    0.0685    0.0605 O   0  0  0  0  0  0  0  0  0  0  0  0
    2.8526    0.1852    1.4299 C   0  0  1  0  0  0  0  0  0  0  0  0
    2.4903    1.1407    1.8350 H   0  0  0  0  0  0  0  0  0  0  0  0
    2.4572   -0.9955    2.3825 C   0  0  0  0  0  0  0  0  0  0  0  0
    3.1723   -1.8063    2.9537 O   0  0  0  0  0  0  0  0  0  0  0  0
    1.0906   -1.1740    2.5466 N   0  0  0  0  0  0  0  0  0  0  0  0
    0.4199   -2.4016    2.5771 C   0  0  0  0  0  0  0  0  0  0  0  0
   -0.9009   -2.0965    2.6766 C   0  0  0  0  0  0  0  0  0  0  0  0
   -1.0676   -0.7438    2.7176 C   0  0  0  0  0  0  0  0  0  0  0  0
    0.1630   -0.1662    2.6743 C   0  0  0  0  0  0  0  0  0  0  0  0
   -2.4543   -0.4904    2.7658 C   0  0  0  0  0  0  0  0  0  0  0  0
   -3.1123    0.6218    2.7603 N   0  0  0  0  0  0  0  0  0  0  0  0
   -2.4270    1.8035    2.6716 C   0  0  0  0  0  0  0  0  0  0  0  0
   -1.2197    1.9603    2.4785 O   0  0  0  0  0  0  0  0  0  0  0  0
   -3.1457    3.0711    2.7813 C   0  0  0  0  0  0  0  0  0  0  0  0
   -2.3853    4.2437    2.9318 C   0  0  0  0  0  0  0  0  0  0  0  0
   -3.0153    5.4398    3.2104 C   0  0  0  0  0  0  0  0  0  0  0  0
   -4.4046    5.5080    3.2004 C   0  0  0  0  0  0  0  0  0  0  0  0
   -5.1463    4.3637    2.8613 C   0  0  0  0  0  0  0  0  0  0  0  0
   -4.5286    3.1253    2.7287 C   0  0  0  0  0  0  0  0  0  0  0  0
   -5.0446    6.6486    3.6007 N   0  0  0  0  0  0  0  0  0  0  0  0
   -5.8660    7.4175    2.6733 C   0  0  0  0  0  0  0  0  0  0  0  0
   -7.1229    7.8991    3.4299 C   0  0  0  0  0  0  0  0  0  0  0  0
   -6.8267    8.6507    4.6809 N   0  0  0  0  0  0  0  0  0  0  0  0
   -5.9721    7.7955    5.5493 C   0  0  0  0  0  0  0  0  0  0  0  0
   -4.6766    7.3022    4.8603 C   0  0  0  0  0  0  0  0  0  0  0  0
   -6.1326    9.9026    4.3631 C   0  0  0  0  0  0  0  0  0  0  0  0
   -3.0372   -1.7690    2.7870 N   0  0  0  0  0  0  0  0  0  0  0  0
   -2.1475   -2.7067    2.7133 N   0  0  0  0  0  0  0  0  0  0  0  0
    4.3775    0.2779    1.3509 C   0  0  0  0  0  0  0  0  0  0  0  0
    5.0555    1.5042    1.3719 C   0  0  0  0  0  0  0  0  0  0  0  0
    6.4402    1.5364    1.1731 C   0  0  0  0  0  0  0  0  0  0  0  0
    7.1709    0.3500    1.0942 C   0  0  0  0  0  0  0  0  0  0  0  0
    6.5229   -0.8704    1.2013 C   0  0  0  0  0  0  0  0  0  0  0  0
    5.1373   -0.8998    1.2295 C   0  0  0  0  0  0  0  0  0  0  0  0
    0.7958    0.1276   -1.2274 H   0  0  0  0  0  0  0  0  0  0  0  0
    0.6047    1.0603    0.2725 H   0  0  0  0  0  0  0  0  0  0  0  0
    0.5396   -0.7468    0.2302 H   0  0  0  0  0  0  0  0  0  0  0  0
    0.9793   -3.3179    2.4534 H   0  0  0  0  0  0  0  0  0  0  0  0
    0.4952    0.8598    2.6608 H   0  0  0  0  0  0  0  0  0  0  0  0
   -1.2985    4.2281    2.8697 H   0  0  0  0  0  0  0  0  0  0  0  0
   -2.4190    6.3189    3.4365 H   0  0  0  0  0  0  0  0  0  0  0  0
   -6.2275    4.4175    2.7783 H   0  0  0  0  0  0  0  0  0  0  0  0
   -5.1162    2.2225    2.5959 H   0  0  0  0  0  0  0  0  0  0  0  0
   -6.1580    6.8435    1.7873 H   0  0  0  0  0  0  0  0  0  0  0  0
   -5.2872    8.2746    2.3073 H   0  0  0  0  0  0  0  0  0  0  0  0
   -7.7265    7.0184    3.6921 H   0  0  0  0  0  0  0  0  0  0  0  0
   -7.7465    8.5090    2.7678 H   0  0  0  0  0  0  0  0  0  0  0  0
   -6.5609    6.9172    5.8532 H   0  0  0  0  0  0  0  0  0  0  0  0
   -5.7294    8.3249    6.4780 H   0  0  0  0  0  0  0  0  0  0  0  0
   -4.1497    6.6215    5.5407 H   0  0  0  0  0  0  0  0  0  0  0  0
   -3.9981    8.1399    4.6633 H   0  0  0  0  0  0  0  0  0  0  0  0
   -6.7432   10.5175    3.6955 H   0  0  0  0  0  0  0  0  0  0  0  0
   -5.1652    9.7589    3.8708 H   0  0  0  0  0  0  0  0  0  0  0  0
   -5.9480   10.4791    5.2741 H   0  0  0  0  0  0  0  0  0  0  0  0
    4.5231    2.4398    1.5258 H   0  0  0  0  0  0  0  0  0  0  0  0
    6.9576    2.4878    1.0855 H   0  0  0  0  0  0  0  0  0  0  0  0
    8.2459    0.3714    0.9481 H   0  0  0  0  0  0  0  0  0  0  0  0
    7.0762   -1.8032    1.2467 H   0  0  0  0  0  0  0  0  0  0  0  0
    4.6512   -1.8724    1.1962 H   0  0  0  0  0  0  0  0  0  0  0  0
  1  2  1  0  0  0  0
  1 37  1  0  0  0  0
  1 38  1  0  0  0  0
  1 39  1  0  0  0  0
  2  3  1  0  0  0  0
  3  4  1  1  0  0  0
  3  5  1  0  0  0  0
  3 31  1  0  0  0  0
  5  6  2  0  0  0  0
  5  7  1  0  0  0  0
  7  8  1  0  0  0  0
  7 11  1  0  0  0  0
  8  9  2  0  0  0  0
  8 40  1  0  0  0  0
  9 10  1  0  0  0  0
  9 30  1  0  0  0  0
 10 11  2  0  0  0  0
 10 12  1  0  0  0  0
 11 41  1  0  0  0  0
 12 13  2  0  0  0  0
 12 29  1  0  0  0  0
 13 14  1  0  0  0  0
 14 15  2  0  0  0  0
 14 16  1  0  0  0  0
 16 17  2  0  0  0  0
 16 21  1  0  0  0  0
 17 18  1  0  0  0  0
 17 42  1  0  0  0  0
 18 19  2  0  0  0  0
 18 43  1  0  0  0  0
 19 20  1  0  0  0  0
 19 22  1  0  0  0  0
 20 21  2  0  0  0  0
 20 44  1  0  0  0  0
 21 45  1  0  0  0  0
 22 23  1  0  0  0  0
 22 27  1  0  0  0  0
 23 24  1  0  0  0  0
 23 46  1  0  0  0  0
 23 47  1  0  0  0  0
 24 25  1  0  0  0  0
 24 48  1  0  0  0  0
 24 49  1  0  0  0  0
 25 26  1  0  0  0  0
 25 28  1  0  0  0  0
 26 27  1  0  0  0  0
 26 50  1  0  0  0  0
 26 51  1  0  0  0  0
 27 52  1  0  0  0  0
 27 53  1  0  0  0  0
 28 54  1  0  0  0  0
 28 55  1  0  0  0  0
 28 56  1  0  0  0  0
 29 30  2  0  0  0  0
 31 32  2  0  0  0  0
 31 36  1  0  0  0  0
 32 33  1  0  0  0  0
 32 57  1  0  0  0  0
 33 34  2  0  0  0  0
 33 58  1  0  0  0  0
 34 35  1  0  0  0  0
 34 59  1  0  0  0  0
 35 36  2  0  0  0  0
 35 60  1  0  0  0  0
 36 61  1  0  0  0  0
M  END
$$$$
