641
 OpenBabel04121316063D

 43 45  0  0  1  0  0  0  0  0999 V2000
    1.1549    0.2211    0.0618 O   0  0  0  0  0  0  0  0  0  0  0  0
    2.3505    0.1863    0.1127 C   0  0  0  0  0  0  0  0  0  0  0  0
    3.1712   -1.0544    0.1608 C   0  0  1  0  0  0  0  0  0  0  0  0
    3.6768   -1.0233   -0.8128 H   0  0  0  0  0  0  0  0  0  0  0  0
    3.8490   -1.4613    1.4539 C   0  0  0  0  0  0  0  0  0  0  0  0
    4.3193   -2.8784    1.1754 C   0  0  0  0  0  0  0  0  0  0  0  0
    5.2774   -3.4295    1.7047 O   0  0  0  0  0  0  0  0  0  0  0  0
    3.3899   -3.4232    0.2872 N   0  0  0  0  0  0  0  0  0  0  0  0
    2.4366   -2.2466   -0.1110 C   0  0  0  0  0  0  0  0  0  0  0  0
    2.8338   -4.8812    0.4599 C   0  0  0  0  0  0  0  0  0  0  0  0
    1.3777   -4.5676    0.2192 C   0  0  0  0  0  0  0  0  0  0  0  0
    1.4041   -4.1141   -1.3008 C   0  0  0  0  0  0  0  0  0  0  0  0
    1.6886   -5.0827   -2.3859 C   0  0  0  0  0  0  0  0  0  0  0  0
    2.9740   -5.8292   -2.0051 C   0  0  0  0  0  0  0  0  0  0  0  0
    2.9937   -6.1335   -0.5102 C   0  0  0  0  0  0  0  0  0  0  0  0
    3.1632    1.2995    0.0423 N   0  0  0  0  0  0  0  0  0  0  0  0
    4.5866    1.3294   -0.0540 C   0  0  0  0  0  0  0  0  0  0  0  0
    5.1933    2.5536    0.0549 C   0  0  0  0  0  0  0  0  0  0  0  0
    6.5947    2.6070    0.0863 C   0  0  0  0  0  0  0  0  0  0  0  0
    7.3573    4.1392    0.0959 Cl  0  0  0  0  0  0  0  0  0  0  0  0
    7.4072    1.4652    0.0932 C   0  0  0  0  0  0  0  0  0  0  0  0
    6.8226    0.2492   -0.0377 C   0  0  0  0  0  0  0  0  0  0  0  0
    5.4632    0.2234   -0.2190 C   0  0  0  0  0  0  0  0  0  0  0  0
    7.6866   -1.2401    0.0154 Cl  0  0  0  0  0  0  0  0  0  0  0  0
    3.1042   -1.4947    2.2563 H   0  0  0  0  0  0  0  0  0  0  0  0
    4.6631   -0.8282    1.7942 H   0  0  0  0  0  0  0  0  0  0  0  0
    1.4663   -2.1968    0.3812 H   0  0  0  0  0  0  0  0  0  0  0  0
    2.2789   -2.1016   -1.1958 H   0  0  0  0  0  0  0  0  0  0  0  0
    3.0957   -5.2276    1.4733 H   0  0  0  0  0  0  0  0  0  0  0  0
    1.1704   -3.8268    1.0100 H   0  0  0  0  0  0  0  0  0  0  0  0
    0.6088   -5.3062    0.4105 H   0  0  0  0  0  0  0  0  0  0  0  0
    2.3900   -3.6864   -1.5413 H   0  0  0  0  0  0  0  0  0  0  0  0
    0.6623   -3.3517   -1.5300 H   0  0  0  0  0  0  0  0  0  0  0  0
    1.8870   -4.4974   -3.3016 H   0  0  0  0  0  0  0  0  0  0  0  0
    0.7892   -5.6695   -2.5030 H   0  0  0  0  0  0  0  0  0  0  0  0
    3.8780   -5.2335   -2.2015 H   0  0  0  0  0  0  0  0  0  0  0  0
    3.0387   -6.7198   -2.6338 H   0  0  0  0  0  0  0  0  0  0  0  0
    3.8247   -6.7946   -0.2524 H   0  0  0  0  0  0  0  0  0  0  0  0
    2.1009   -6.7734   -0.3422 H   0  0  0  0  0  0  0  0  0  0  0  0
    2.6213    2.1574    0.0952 H   0  0  0  0  0  0  0  0  0  0  0  0
    4.5913    3.4555    0.1068 H   0  0  0  0  0  0  0  0  0  0  0  0
    8.4831    1.5048    0.1575 H   0  0  0  0  0  0  0  0  0  0  0  0
    5.2279   -0.8002   -0.4414 H   0  0  0  0  0  0  0  0  0  0  0  0
  1  2  2  0  0  0  0
  2  3  1  0  0  0  0
  2 16  1  0  0  0  0
  3  4  1  6  0  0  0
  3  5  1  0  0  0  0
  3  9  1  0  0  0  0
  5  6  1  0  0  0  0
  5 25  1  0  0  0  0
  5 26  1  0  0  0  0
  6  7  2  0  0  0  0
  6  8  1  0  0  0  0
  8  9  1  0  0  0  0
  8 10  1  0  0  0  0
  9 27  1  0  0  0  0
  9 28  1  0  0  0  0
 10 11  1  0  0  0  0
 10 15  1  0  0  0  0
 10 29  1  0  0  0  0
 11 12  1  0  0  0  0
 11 30  1  0  0  0  0
 11 31  1  0  0  0  0
 12 13  1  0  0  0  0
 12 32  1  0  0  0  0
 12 33  1  0  0  0  0
 13 14  1  0  0  0  0
 13 34  1  0  0  0  0
 13 35  1  0  0  0  0
 14 15  1  0  0  0  0
 14 36  1  0  0  0  0
 14 37  1  0  0  0  0
 15 38  1  0  0  0  0
 15 39  1  0  0  0  0
 16 17  1  0  0  0  0
 16 40  1  0  0  0  0
 17 18  2  0  0  0  0
 17 23  1  0  0  0  0
 18 19  1  0  0  0  0
 18 41  1  0  0  0  0
 19 20  1  0  0  0  0
 19 21  2  0  0  0  0
 21 22  1  0  0  0  0
 21 42  1  0  0  0  0
 22 23  2  0  0  0  0
 22 24  1  0  0  0  0
 23 43  1  0  0  0  0
M  END
$$$$
