642
 OpenBabel04121316063D

 59 64  0  0  1  0  0  0  0  0999 V2000
    0.9309    0.3101    0.0271 O   0  0  0  0  0  0  0  0  0  0  0  0
    2.2719    0.1170   -0.0264 C   0  0  0  0  0  0  0  0  0  0  0  0
    2.9407    0.5243   -0.9630 O   0  0  0  0  0  0  0  0  0  0  0  0
    2.9009   -0.6190    1.1100 C   0  0  1  0  0  0  0  0  0  0  0  0
    3.9864   -0.6372    1.0222 H   0  0  0  0  0  0  0  0  0  0  0  0
    2.3521   -0.5343    2.5136 C   0  0  0  0  0  0  0  0  0  0  0  0
    2.2725   -1.8430    1.7484 C   0  0  1  0  0  0  0  0  0  0  0  0
    0.9027   -2.3309    1.3454 C   0  0  0  0  0  0  0  0  0  0  0  0
    1.0334   -3.8511    1.4558 C   0  0  2  0  0  0  0  0  0  0  0  0
    0.1063   -4.2904    1.8395 H   0  0  0  0  0  0  0  0  0  0  0  0
    2.0942   -4.0169    2.4189 N   0  0  0  0  0  0  0  0  0  0  0  0
    3.0354   -3.0192    2.2773 C   0  0  0  0  0  0  0  0  0  0  0  0
    4.2050   -3.0531    2.5621 O   0  0  0  0  0  0  0  0  0  0  0  0
    1.3608   -4.5301    0.1377 C   0  0  0  0  0  0  0  0  0  0  0  0
    1.1486   -3.9029   -1.1032 C   0  0  0  0  0  0  0  0  0  0  0  0
    1.1230   -4.6423   -2.2617 C   0  0  0  0  0  0  0  0  0  0  0  0
    1.4668   -5.9798   -2.2036 C   0  0  0  0  0  0  0  0  0  0  0  0
    1.9231   -6.5644   -1.0382 C   0  0  0  0  0  0  0  0  0  0  0  0
    1.7852   -5.8675    0.1465 C   0  0  0  0  0  0  0  0  0  0  0  0
    1.2181   -6.6497   -3.3371 O   0  0  0  0  0  0  0  0  0  0  0  0
    1.7223   -7.9483   -3.4705 C   0  0  0  0  0  0  0  0  0  0  0  0
    1.5408   -8.3777   -4.8949 C   0  0  0  0  0  0  0  0  0  0  0  0
    1.6368   -9.7408   -5.1022 C   0  0  0  0  0  0  0  0  0  0  0  0
    1.4835  -10.2628   -6.3719 C   0  0  0  0  0  0  0  0  0  0  0  0
    1.1914   -9.4706   -7.4339 N   0  0  0  0  0  0  0  0  0  0  0  0
    1.0348   -8.1473   -7.2376 C   0  0  0  0  0  0  0  0  0  0  0  0
    1.2535   -7.5401   -5.9916 C   0  0  0  0  0  0  0  0  0  0  0  0
    1.1422   -6.1378   -5.9054 C   0  0  0  0  0  0  0  0  0  0  0  0
    0.5199   -5.3953   -6.8843 C   0  0  0  0  0  0  0  0  0  0  0  0
    0.1857   -6.0200   -8.0637 C   0  0  0  0  0  0  0  0  0  0  0  0
    0.5921   -7.3406   -8.2798 C   0  0  0  0  0  0  0  0  0  0  0  0
    1.5637  -11.7140   -6.5985 C   0  0  0  0  0  0  0  0  0  0  0  0
    1.2099  -12.2752   -7.8315 C   0  0  0  0  0  0  0  0  0  0  0  0
    1.1078  -13.6578   -7.9779 C   0  0  0  0  0  0  0  0  0  0  0  0
    1.4840  -14.5034   -6.9365 C   0  0  0  0  0  0  0  0  0  0  0  0
    1.9761  -13.9731   -5.7550 C   0  0  0  0  0  0  0  0  0  0  0  0
    1.9622  -12.5979   -5.5730 C   0  0  0  0  0  0  0  0  0  0  0  0
    0.5138    0.0898    0.8765 H   0  0  0  0  0  0  0  0  0  0  0  0
    1.4452    0.0262    2.7015 H   0  0  0  0  0  0  0  0  0  0  0  0
    3.0547   -0.4562    3.3387 H   0  0  0  0  0  0  0  0  0  0  0  0
    0.6270   -1.9874    0.3586 H   0  0  0  0  0  0  0  0  0  0  0  0
    0.1365   -1.9619    2.0299 H   0  0  0  0  0  0  0  0  0  0  0  0
    2.2960   -4.8748    2.9130 H   0  0  0  0  0  0  0  0  0  0  0  0
    0.9364   -2.8502   -1.2387 H   0  0  0  0  0  0  0  0  0  0  0  0
    0.8013   -4.1774   -3.1918 H   0  0  0  0  0  0  0  0  0  0  0  0
    2.3019   -7.5782   -1.0227 H   0  0  0  0  0  0  0  0  0  0  0  0
    1.9782   -6.4007    1.0720 H   0  0  0  0  0  0  0  0  0  0  0  0
    1.1408   -8.6046   -2.8089 H   0  0  0  0  0  0  0  0  0  0  0  0
    2.7908   -8.0052   -3.2327 H   0  0  0  0  0  0  0  0  0  0  0  0
    1.8147  -10.3677   -4.2379 H   0  0  0  0  0  0  0  0  0  0  0  0
    1.4926   -5.5777   -5.0520 H   0  0  0  0  0  0  0  0  0  0  0  0
    0.3236   -4.3447   -6.7002 H   0  0  0  0  0  0  0  0  0  0  0  0
   -0.3653   -5.4743   -8.8199 H   0  0  0  0  0  0  0  0  0  0  0  0
    0.5208   -7.7589   -9.2786 H   0  0  0  0  0  0  0  0  0  0  0  0
    0.9830  -11.6294   -8.6788 H   0  0  0  0  0  0  0  0  0  0  0  0
    0.7315  -14.0707   -8.9084 H   0  0  0  0  0  0  0  0  0  0  0  0
    1.4021  -15.5785   -7.0477 H   0  0  0  0  0  0  0  0  0  0  0  0
    2.3537  -14.6109   -4.9620 H   0  0  0  0  0  0  0  0  0  0  0  0
    2.2695  -12.2438   -4.5944 H   0  0  0  0  0  0  0  0  0  0  0  0
  1  2  1  0  0  0  0
  1 38  1  0  0  0  0
  2  3  2  0  0  0  0
  2  4  1  0  0  0  0
  4  5  1  6  0  0  0
  4  6  1  0  0  0  0
  4  7  1  0  0  0  0
  6 39  1  0  0  0  0
  6 40  1  0  0  0  0
  7  6  1  1  0  0  0
  7  8  1  0  0  0  0
  7 12  1  0  0  0  0
  8  9  1  0  0  0  0
  8 41  1  0  0  0  0
  8 42  1  0  0  0  0
  9 11  1  0  0  0  0
  9 14  1  0  0  0  0
  9 10  1  1  0  0  0
 11 12  1  0  0  0  0
 11 43  1  0  0  0  0
 12 13  2  0  0  0  0
 14 15  2  0  0  0  0
 14 19  1  0  0  0  0
 15 16  1  0  0  0  0
 15 44  1  0  0  0  0
 16 17  2  0  0  0  0
 16 45  1  0  0  0  0
 17 18  1  0  0  0  0
 17 20  1  0  0  0  0
 18 19  2  0  0  0  0
 18 46  1  0  0  0  0
 19 47  1  0  0  0  0
 20 21  1  0  0  0  0
 21 22  1  0  0  0  0
 21 48  1  0  0  0  0
 21 49  1  0  0  0  0
 22 23  2  0  0  0  0
 22 27  1  0  0  0  0
 23 24  1  0  0  0  0
 23 50  1  0  0  0  0
 24 25  2  0  0  0  0
 24 32  1  0  0  0  0
 25 26  1  0  0  0  0
 26 27  2  0  0  0  0
 26 31  1  0  0  0  0
 27 28  1  0  0  0  0
 28 29  2  0  0  0  0
 28 51  1  0  0  0  0
 29 30  1  0  0  0  0
 29 52  1  0  0  0  0
 30 31  2  0  0  0  0
 30 53  1  0  0  0  0
 31 54  1  0  0  0  0
 32 33  2  0  0  0  0
 32 37  1  0  0  0  0
 33 34  1  0  0  0  0
 33 55  1  0  0  0  0
 34 35  2  0  0  0  0
 34 56  1  0  0  0  0
 35 36  1  0  0  0  0
 35 57  1  0  0  0  0
 36 37  2  0  0  0  0
 36 58  1  0  0  0  0
 37 59  1  0  0  0  0
M  END
$$$$
