646
 OpenBabel04121316063D

 56 59  0  0  0  0  0  0  0  0999 V2000
    1.3256    0.4036   -0.0673 C   0  0  0  0  0  0  0  0  0  0  0  0
    2.8015    0.1542   -0.0650 C   0  0  0  0  0  0  0  0  0  0  0  0
    3.7512    1.1171   -0.0731 N   0  0  0  0  0  0  0  0  0  0  0  0
    4.9280    0.4260   -0.0737 N   0  0  0  0  0  0  0  0  0  0  0  0
    4.7498   -0.9299   -0.0713 C   0  0  0  0  0  0  0  0  0  0  0  0
    3.3929   -1.1302   -0.0571 C   0  0  0  0  0  0  0  0  0  0  0  0
    2.8292   -2.3941   -0.0418 N   0  0  0  0  0  0  0  0  0  0  0  0
    1.2167   -2.7632   -0.0305 S   0  0  0  0  0  0  0  0  0  0  0  0
    0.6887   -2.3341    1.2400 O   0  0  0  0  0  0  0  0  0  0  0  0
    0.6630   -2.3541   -1.3102 O   0  0  0  0  0  0  0  0  0  0  0  0
    1.0611   -4.4948   -0.0227 C   0  0  0  0  0  0  0  0  0  0  0  0
    2.1395   -5.3727   -0.0965 C   0  0  0  0  0  0  0  0  0  0  0  0
    3.8187   -4.9981   -0.2289 Cl  0  0  0  0  0  0  0  0  0  0  0  0
    1.8964   -6.7344   -0.0751 C   0  0  0  0  0  0  0  0  0  0  0  0
    0.6032   -7.2445    0.0362 C   0  0  0  0  0  0  0  0  0  0  0  0
   -0.4709   -6.3549    0.0997 C   0  0  0  0  0  0  0  0  0  0  0  0
   -0.2529   -4.9864    0.0641 C   0  0  0  0  0  0  0  0  0  0  0  0
   -1.6860   -4.0088    0.1193 Cl  0  0  0  0  0  0  0  0  0  0  0  0
    0.4047   -8.6852    0.0231 C   0  0  0  0  0  0  0  0  0  0  0  0
    1.2683   -9.5472    0.6827 C   0  0  0  0  0  0  0  0  0  0  0  0
    1.0225  -10.8968    0.5771 C   0  0  0  0  0  0  0  0  0  0  0  0
    0.0596  -11.4332   -0.2140 N   0  0  0  0  0  0  0  0  0  0  0  0
   -0.7591  -10.6038   -0.8976 C   0  0  0  0  0  0  0  0  0  0  0  0
   -0.6443   -9.2354   -0.7103 C   0  0  0  0  0  0  0  0  0  0  0  0
   -1.7034  -11.0950   -1.7724 N   0  0  0  0  0  0  0  0  0  0  0  0
   -2.2597  -10.3040   -2.8817 C   0  0  0  0  0  0  0  0  0  0  0  0
   -1.9309  -10.9558   -4.2389 C   0  0  0  0  0  0  0  0  0  0  0  0
   -2.3914  -12.3509   -4.3172 N   0  0  0  0  0  0  0  0  0  0  0  0
   -1.7616  -13.1151   -3.2172 C   0  0  0  0  0  0  0  0  0  0  0  0
   -2.0408  -12.5196   -1.8152 C   0  0  0  0  0  0  0  0  0  0  0  0
    5.8406   -1.9330   -0.0832 C   0  0  0  0  0  0  0  0  0  0  0  0
    6.2314    1.0628   -0.0763 C   0  0  0  0  0  0  0  0  0  0  0  0
    0.9959    1.4394   -0.0708 H   0  0  0  0  0  0  0  0  0  0  0  0
    0.8721   -0.0606    0.8151 H   0  0  0  0  0  0  0  0  0  0  0  0
    0.8756   -0.0670   -0.9487 H   0  0  0  0  0  0  0  0  0  0  0  0
    3.4840   -3.1670   -0.0393 H   0  0  0  0  0  0  0  0  0  0  0  0
    2.7418   -7.4150   -0.1676 H   0  0  0  0  0  0  0  0  0  0  0  0
   -1.4927   -6.7245    0.1756 H   0  0  0  0  0  0  0  0  0  0  0  0
    2.0957   -9.1799    1.2819 H   0  0  0  0  0  0  0  0  0  0  0  0
    1.6173  -11.6003    1.1514 H   0  0  0  0  0  0  0  0  0  0  0  0
   -1.3773   -8.5730   -1.1527 H   0  0  0  0  0  0  0  0  0  0  0  0
   -1.8883   -9.2764   -2.9309 H   0  0  0  0  0  0  0  0  0  0  0  0
   -3.3461  -10.2430   -2.7500 H   0  0  0  0  0  0  0  0  0  0  0  0
   -0.8477  -10.9163   -4.4148 H   0  0  0  0  0  0  0  0  0  0  0  0
   -2.4077  -10.3745   -5.0355 H   0  0  0  0  0  0  0  0  0  0  0  0
   -2.1107  -12.7481   -5.2116 H   0  0  0  0  0  0  0  0  0  0  0  0
   -0.6793  -13.1649   -3.3894 H   0  0  0  0  0  0  0  0  0  0  0  0
   -2.1441  -14.1405   -3.2519 H   0  0  0  0  0  0  0  0  0  0  0  0
   -1.5292  -13.1130   -1.0504 H   0  0  0  0  0  0  0  0  0  0  0  0
   -3.1153  -12.6050   -1.6096 H   0  0  0  0  0  0  0  0  0  0  0  0
    6.8437   -1.5040   -0.0897 H   0  0  0  0  0  0  0  0  0  0  0  0
    5.7399   -2.5623   -0.9735 H   0  0  0  0  0  0  0  0  0  0  0  0
    5.7532   -2.5708    0.8023 H   0  0  0  0  0  0  0  0  0  0  0  0
    6.1608    2.1495   -0.0739 H   0  0  0  0  0  0  0  0  0  0  0  0
    6.7744    0.7236   -0.9668 H   0  0  0  0  0  0  0  0  0  0  0  0
    6.7791    0.7206    0.8103 H   0  0  0  0  0  0  0  0  0  0  0  0
  1  2  1  0  0  0  0
  1 33  1  0  0  0  0
  1 34  1  0  0  0  0
  1 35  1  0  0  0  0
  2  3  2  0  0  0  0
  2  6  1  0  0  0  0
  3  4  1  0  0  0  0
  4  5  1  0  0  0  0
  4 32  1  0  0  0  0
  5  6  2  0  0  0  0
  5 31  1  0  0  0  0
  6  7  1  0  0  0  0
  7  8  1  0  0  0  0
  7 36  1  0  0  0  0
  8  9  2  0  0  0  0
  8 10  2  0  0  0  0
  8 11  1  0  0  0  0
 11 12  2  0  0  0  0
 11 17  1  0  0  0  0
 12 13  1  0  0  0  0
 12 14  1  0  0  0  0
 14 15  2  0  0  0  0
 14 37  1  0  0  0  0
 15 16  1  0  0  0  0
 15 19  1  0  0  0  0
 16 17  2  0  0  0  0
 16 38  1  0  0  0  0
 17 18  1  0  0  0  0
 19 20  2  0  0  0  0
 19 24  1  0  0  0  0
 20 21  1  0  0  0  0
 20 39  1  0  0  0  0
 21 22  2  0  0  0  0
 21 40  1  0  0  0  0
 22 23  1  0  0  0  0
 23 24  2  0  0  0  0
 23 25  1  0  0  0  0
 24 41  1  0  0  0  0
 25 26  1  0  0  0  0
 25 30  1  0  0  0  0
 26 27  1  0  0  0  0
 26 42  1  0  0  0  0
 26 43  1  0  0  0  0
 27 28  1  0  0  0  0
 27 44  1  0  0  0  0
 27 45  1  0  0  0  0
 28 29  1  0  0  0  0
 28 46  1  0  0  0  0
 29 30  1  0  0  0  0
 29 47  1  0  0  0  0
 29 48  1  0  0  0  0
 30 49  1  0  0  0  0
 30 50  1  0  0  0  0
 31 51  1  0  0  0  0
 31 52  1  0  0  0  0
 31 53  1  0  0  0  0
 32 54  1  0  0  0  0
 32 55  1  0  0  0  0
 32 56  1  0  0  0  0
M  END
$$$$
