64U
 OpenBabel04121316063D

 57 59  0  0  1  0  0  0  0  0999 V2000
    1.5283  -11.9355   -2.3326 Cl  0  0  0  0  0  0  0  0  0  0  0  0
    0.9547  -10.5710   -3.1934 C   0  0  0  0  0  0  0  0  0  0  0  0
    0.1763  -10.6629   -4.3239 C   0  0  0  0  0  0  0  0  0  0  0  0
   -0.2474   -9.5096   -5.0001 C   0  0  0  0  0  0  0  0  0  0  0  0
    0.3083   -8.2895   -4.7088 C   0  0  0  0  0  0  0  0  0  0  0  0
    1.1279   -8.2286   -3.6120 C   0  0  0  0  0  0  0  0  0  0  0  0
    1.2868   -9.3271   -2.7562 C   0  0  0  0  0  0  0  0  0  0  0  0
    1.8581   -6.9761   -3.4307 C   0  0  0  0  0  0  0  0  0  0  0  0
    2.9135   -7.2391   -2.5051 N   0  0  0  0  0  0  0  0  0  0  0  0
    3.7344   -6.1860   -2.2377 C   0  0  0  0  0  0  0  0  0  0  0  0
    3.8980   -5.3149   -3.0891 O   0  0  0  0  0  0  0  0  0  0  0  0
    4.0826   -5.9869   -0.6982 C   0  0  2  0  0  0  0  0  0  0  0  0
    5.2394   -6.0155   -0.7283 H   0  0  0  0  0  0  0  0  0  0  0  0
    4.8043   -7.8810   -0.3331 C   0  0  0  0  0  0  0  0  0  0  0  0
    3.3718   -8.7285    0.8094 C   0  0  0  0  0  0  0  0  0  0  0  0
    2.5116   -7.2451    1.9796 C   0  0  0  0  0  0  0  0  0  0  0  0
    3.0450   -5.4529    1.1426 N   0  0  0  0  0  0  0  0  0  0  0  0
    2.8162   -4.3209    1.9126 C   0  0  0  0  0  0  0  0  0  0  0  0
    2.3575   -4.3891    3.0581 O   0  0  0  0  0  0  0  0  0  0  0  0
    3.3785   -3.0244    1.2574 C   0  0  1  0  0  0  0  0  0  0  0  0
    4.4660   -3.0056    1.1875 H   0  0  0  0  0  0  0  0  0  0  0  0
    2.7779   -2.7889   -0.0959 C   0  0  0  0  0  0  0  0  0  0  0  0
    3.2233   -3.8326   -1.0351 C   0  0  0  0  0  0  0  0  0  0  0  0
    4.9064   -4.1531   -0.5599 C   0  0  0  0  0  0  0  0  0  0  0  0
    4.9684   -5.3746    0.9115 C   0  0  0  0  0  0  0  0  0  0  0  0
    3.5624   -6.9028    0.6001 C   0  0  0  0  0  0  0  0  0  0  0  0
    1.7458   -6.1239   -0.0320 C   0  0  0  0  0  0  0  0  0  0  0  0
    1.8919   -4.9169   -1.0693 C   0  0  0  0  0  0  0  0  0  0  0  0
    3.1313   -1.9299    2.1575 N   0  0  0  0  0  0  0  0  0  0  0  0
   -0.1228  -11.6385   -4.6685 H   0  0  0  0  0  0  0  0  0  0  0  0
   -0.9826   -9.5625   -5.7861 H   0  0  0  0  0  0  0  0  0  0  0  0
    0.1448   -7.3958   -5.3089 H   0  0  0  0  0  0  0  0  0  0  0  0
    1.7455   -9.2674   -1.7846 H   0  0  0  0  0  0  0  0  0  0  0  0
    1.0915   -6.2211   -3.1743 H   0  0  0  0  0  0  0  0  0  0  0  0
    2.3691   -6.5886   -4.3038 H   0  0  0  0  0  0  0  0  0  0  0  0
    2.6071   -7.7890   -1.7327 H   0  0  0  0  0  0  0  0  0  0  0  0
    5.7061   -7.7299    0.3065 H   0  0  0  0  0  0  0  0  0  0  0  0
    4.9842   -8.2069   -1.3520 H   0  0  0  0  0  0  0  0  0  0  0  0
    3.8913   -9.5793    1.2320 H   0  0  0  0  0  0  0  0  0  0  0  0
    2.6135   -8.9930    0.0345 H   0  0  0  0  0  0  0  0  0  0  0  0
    3.0865   -7.5059    2.9005 H   0  0  0  0  0  0  0  0  0  0  0  0
    1.4348   -7.4192    1.9092 H   0  0  0  0  0  0  0  0  0  0  0  0
    3.1624   -1.8844   -0.5559 H   0  0  0  0  0  0  0  0  0  0  0  0
    1.6913   -2.8294   -0.0548 H   0  0  0  0  0  0  0  0  0  0  0  0
    3.2760   -3.4149   -2.0535 H   0  0  0  0  0  0  0  0  0  0  0  0
    5.6112   -3.3595   -0.3789 H   0  0  0  0  0  0  0  0  0  0  0  0
    5.3796   -4.5791   -1.5047 H   0  0  0  0  0  0  0  0  0  0  0  0
    4.8264   -4.7446    1.8087 H   0  0  0  0  0  0  0  0  0  0  0  0
    5.8752   -5.8790    1.1998 H   0  0  0  0  0  0  0  0  0  0  0  0
    4.1867   -7.1466    1.5382 H   0  0  0  0  0  0  0  0  0  0  0  0
    3.1596   -7.4033   -0.3288 H   0  0  0  0  0  0  0  0  0  0  0  0
    1.1354   -5.5299    0.7164 H   0  0  0  0  0  0  0  0  0  0  0  0
    1.0600   -6.9458   -0.2465 H   0  0  0  0  0  0  0  0  0  0  0  0
    0.9564   -4.4899   -1.4637 H   0  0  0  0  0  0  0  0  0  0  0  0
    1.9527   -5.4750   -1.9334 H   0  0  0  0  0  0  0  0  0  0  0  0
    3.5856   -2.2524    3.0180 H   0  0  0  0  0  0  0  0  0  0  0  0
    2.1356   -2.0274    2.3318 H   0  0  0  0  0  0  0  0  0  0  0  0
  1  2  1  0  0  0  0
  2  3  2  0  0  0  0
  2  7  1  0  0  0  0
  3  4  1  0  0  0  0
  3 30  1  0  0  0  0
  4  5  2  0  0  0  0
  4 31  1  0  0  0  0
  5  6  1  0  0  0  0
  5 32  1  0  0  0  0
  6  7  2  0  0  0  0
  6  8  1  0  0  0  0
  7 33  1  0  0  0  0
  8  9  1  0  0  0  0
  8 34  1  0  0  0  0
  8 35  1  0  0  0  0
  9 10  1  0  0  0  0
  9 36  1  0  0  0  0
 10 11  2  0  0  0  0
 12 14  1  0  0  0  0
 12 17  1  0  0  0  0
 12 13  1  6  0  0  0
 12 10  1  0  0  0  0
 14 15  1  0  0  0  0
 14 37  1  0  0  0  0
 14 38  1  0  0  0  0
 15 16  1  0  0  0  0
 15 39  1  0  0  0  0
 15 40  1  0  0  0  0
 16 17  1  0  0  0  0
 16 41  1  0  0  0  0
 16 42  1  0  0  0  0
 17 18  1  0  0  0  0
 18 19  2  0  0  0  0
 18 20  1  0  0  0  0
 20 21  1  6  0  0  0
 20 22  1  0  0  0  0
 20 29  1  0  0  0  0
 22 23  1  0  0  0  0
 22 43  1  0  0  0  0
 22 44  1  0  0  0  0
 23 24  1  0  0  0  0
 23 28  1  0  0  0  0
 23 45  1  0  0  0  0
 24 25  1  0  0  0  0
 24 46  1  0  0  0  0
 24 47  1  0  0  0  0
 25 26  1  0  0  0  0
 25 48  1  0  0  0  0
 25 49  1  0  0  0  0
 26 27  1  0  0  0  0
 26 50  1  0  0  0  0
 26 51  1  0  0  0  0
 27 28  1  0  0  0  0
 27 52  1  0  0  0  0
 27 53  1  0  0  0  0
 28 54  1  0  0  0  0
 28 55  1  0  0  0  0
 29 56  1  0  0  0  0
 29 57  1  0  0  0  0
M  END
$$$$
