673
 OpenBabel04121316063D

 50 51  0  0  0  0  0  0  0  0999 V2000
    0.8249   -0.0197    0.0557 C   0  0  0  0  0  0  0  0  0  0  0  0
    2.1635    0.0904    0.0268 C   0  0  0  0  0  0  0  0  0  0  0  0
    2.9280   -0.0459   -1.2533 C   0  0  0  0  0  0  0  0  0  0  0  0
    4.4110   -0.2510   -1.0314 C   0  0  0  0  0  0  0  0  0  0  0  0
    5.1123    0.9631   -0.8785 C   0  0  0  0  0  0  0  0  0  0  0  0
    6.5069    1.0461   -0.7941 C   0  0  0  0  0  0  0  0  0  0  0  0
    7.2010   -0.1641   -0.7223 C   0  0  0  0  0  0  0  0  0  0  0  0
    6.5251   -1.3867   -0.7522 C   0  0  0  0  0  0  0  0  0  0  0  0
    5.1391   -1.4506   -0.9487 C   0  0  0  0  0  0  0  0  0  0  0  0
    4.6996   -2.7498   -1.0417 O   0  0  0  0  0  0  0  0  0  0  0  0
    3.3415   -2.8940   -1.3879 C   0  0  0  0  0  0  0  0  0  0  0  0
    2.8909   -4.3248   -1.5274 C   0  0  0  0  0  0  0  0  0  0  0  0
    1.3903   -4.2887   -1.8071 C   0  0  0  0  0  0  0  0  0  0  0  0
    0.9115   -5.6455   -2.0105 N   0  0  0  0  0  0  0  0  0  0  0  0
   -0.5260   -5.7017   -2.2876 C   0  0  0  0  0  0  0  0  0  0  0  0
   -0.8965   -4.9505   -3.5687 C   0  0  0  0  0  0  0  0  0  0  0  0
   -0.9120   -7.1727   -2.4312 C   0  0  0  0  0  0  0  0  0  0  0  0
    7.1816    2.3579   -0.8851 C   0  0  0  0  0  0  0  0  0  0  0  0
    6.5199    3.5530   -0.5432 C   0  0  0  0  0  0  0  0  0  0  0  0
    7.0703    4.7989   -0.8412 C   0  0  0  0  0  0  0  0  0  0  0  0
    8.3516    4.8786   -1.3720 C   0  0  0  0  0  0  0  0  0  0  0  0
    9.0769    3.7162   -1.6066 C   0  0  0  0  0  0  0  0  0  0  0  0
    8.4774    2.4718   -1.4153 C   0  0  0  0  0  0  0  0  0  0  0  0
    0.2792    0.0638    0.9857 H   0  0  0  0  0  0  0  0  0  0  0  0
    0.2672   -0.1930   -0.8581 H   0  0  0  0  0  0  0  0  0  0  0  0
    2.7138    0.2405    0.9518 H   0  0  0  0  0  0  0  0  0  0  0  0
    2.7875    0.8507   -1.8721 H   0  0  0  0  0  0  0  0  0  0  0  0
    2.4607   -0.8000   -1.8789 H   0  0  0  0  0  0  0  0  0  0  0  0
    4.5182    1.8761   -0.8795 H   0  0  0  0  0  0  0  0  0  0  0  0
    8.2848   -0.1834   -0.6533 H   0  0  0  0  0  0  0  0  0  0  0  0
    7.0992   -2.3055   -0.6497 H   0  0  0  0  0  0  0  0  0  0  0  0
    3.1845   -2.4416   -2.3731 H   0  0  0  0  0  0  0  0  0  0  0  0
    2.7327   -2.4580   -0.5916 H   0  0  0  0  0  0  0  0  0  0  0  0
    3.1224   -4.8855   -0.6176 H   0  0  0  0  0  0  0  0  0  0  0  0
    3.4320   -4.7923   -2.3575 H   0  0  0  0  0  0  0  0  0  0  0  0
    1.2253   -3.6727   -2.6990 H   0  0  0  0  0  0  0  0  0  0  0  0
    0.8525   -3.8097   -0.9772 H   0  0  0  0  0  0  0  0  0  0  0  0
    1.1224   -6.1973   -1.1781 H   0  0  0  0  0  0  0  0  0  0  0  0
   -1.0815   -5.2772   -1.4418 H   0  0  0  0  0  0  0  0  0  0  0  0
   -0.3351   -5.3364   -4.4271 H   0  0  0  0  0  0  0  0  0  0  0  0
   -0.6981   -3.8770   -3.4897 H   0  0  0  0  0  0  0  0  0  0  0  0
   -1.9642   -5.0546   -3.7821 H   0  0  0  0  0  0  0  0  0  0  0  0
   -0.3765   -7.6440   -3.2639 H   0  0  0  0  0  0  0  0  0  0  0  0
   -1.9852   -7.2699   -2.6228 H   0  0  0  0  0  0  0  0  0  0  0  0
   -0.6823   -7.7356   -1.5197 H   0  0  0  0  0  0  0  0  0  0  0  0
    5.5454    3.5354   -0.0607 H   0  0  0  0  0  0  0  0  0  0  0  0
    6.4919    5.7002   -0.6590 H   0  0  0  0  0  0  0  0  0  0  0  0
    8.7857    5.8462   -1.6017 H   0  0  0  0  0  0  0  0  0  0  0  0
   10.0999    3.7686   -1.9669 H   0  0  0  0  0  0  0  0  0  0  0  0
    9.0328    1.5902   -1.7250 H   0  0  0  0  0  0  0  0  0  0  0  0
  1  2  2  0  0  0  0
  1 24  1  0  0  0  0
  1 25  1  0  0  0  0
  2  3  1  0  0  0  0
  2 26  1  0  0  0  0
  3  4  1  0  0  0  0
  3 27  1  0  0  0  0
  3 28  1  0  0  0  0
  4  5  2  0  0  0  0
  4  9  1  0  0  0  0
  5  6  1  0  0  0  0
  5 29  1  0  0  0  0
  6  7  2  0  0  0  0
  6 18  1  0  0  0  0
  7  8  1  0  0  0  0
  7 30  1  0  0  0  0
  8  9  2  0  0  0  0
  8 31  1  0  0  0  0
  9 10  1  0  0  0  0
 10 11  1  0  0  0  0
 11 12  1  0  0  0  0
 11 32  1  0  0  0  0
 11 33  1  0  0  0  0
 12 13  1  0  0  0  0
 12 34  1  0  0  0  0
 12 35  1  0  0  0  0
 13 14  1  0  0  0  0
 13 36  1  0  0  0  0
 13 37  1  0  0  0  0
 14 15  1  0  0  0  0
 14 38  1  0  0  0  0
 15 16  1  0  0  0  0
 15 17  1  0  0  0  0
 15 39  1  0  0  0  0
 16 40  1  0  0  0  0
 16 41  1  0  0  0  0
 16 42  1  0  0  0  0
 17 43  1  0  0  0  0
 17 44  1  0  0  0  0
 17 45  1  0  0  0  0
 18 19  2  0  0  0  0
 18 23  1  0  0  0  0
 19 20  1  0  0  0  0
 19 46  1  0  0  0  0
 20 21  2  0  0  0  0
 20 47  1  0  0  0  0
 21 22  1  0  0  0  0
 21 48  1  0  0  0  0
 22 23  2  0  0  0  0
 22 49  1  0  0  0  0
 23 50  1  0  0  0  0
M  END
$$$$
