698
 OpenBabel04121316063D

 62 64  0  0  1  0  0  0  0  0999 V2000
    1.0424   -0.2458    0.2046 C   0  0  0  0  0  0  0  0  0  0  0  0
    2.5916   -0.1840    0.0939 C   0  0  0  0  0  0  0  0  0  0  0  0
    3.2799    0.1968   -1.2772 C   0  0  0  0  0  0  0  0  0  0  0  0
    2.5878   -0.3202   -2.5843 C   0  0  1  0  0  0  0  0  0  0  0  0
    2.8612   -1.8456   -2.4520 C   0  0  0  0  0  0  0  0  0  0  0  0
    1.8409   -2.5616   -3.3248 C   0  0  1  0  0  0  0  0  0  0  0  0
    1.6497   -3.5646   -2.9141 H   0  0  0  0  0  0  0  0  0  0  0  0
    0.5964   -1.6353   -3.1941 C   0  0  1  0  0  0  0  0  0  0  0  0
   -0.0578   -2.0322   -2.4009 H   0  0  0  0  0  0  0  0  0  0  0  0
    1.0815   -0.2908   -2.7430 N   0  0  0  0  0  0  0  0  0  0  0  0
    0.0871    0.7284   -2.4956 C   0  0  0  0  0  0  0  0  0  0  0  0
   -1.1154    0.4521   -2.4932 O   0  0  0  0  0  0  0  0  0  0  0  0
    0.4173    2.1613   -2.2366 C   0  0  0  0  0  0  0  0  0  0  0  0
   -0.3755    3.2724   -2.4147 C   0  0  0  0  0  0  0  0  0  0  0  0
    0.1644    4.5496   -2.1253 C   0  0  0  0  0  0  0  0  0  0  0  0
    1.4549    4.7230   -1.5633 C   0  0  0  0  0  0  0  0  0  0  0  0
    2.1029    3.6008   -1.1579 C   0  0  0  0  0  0  0  0  0  0  0  0
    1.5205    2.4127   -1.4862 C   0  0  0  0  0  0  0  0  0  0  0  0
    2.1203    6.0663   -1.3593 C   0  0  0  0  0  0  0  0  0  0  0  0
    2.2541    6.7047   -2.7464 C   0  0  0  0  0  0  0  0  0  0  0  0
    1.2334    6.8958   -0.4307 C   0  0  0  0  0  0  0  0  0  0  0  0
    3.5402    5.9723   -0.7337 C   0  0  0  0  0  0  0  0  0  0  0  0
   -0.1751   -1.5732   -4.4977 C   0  0  0  0  0  0  0  0  0  0  0  0
   -0.5868   -2.6445   -5.1613 N   0  0  0  0  0  0  0  0  0  0  0  0
   -1.1394   -2.2439   -6.3756 C   0  0  0  0  0  0  0  0  0  0  0  0
   -1.1464   -0.8914   -6.6102 C   0  0  0  0  0  0  0  0  0  0  0  0
   -0.3534   -0.0886   -5.3638 S   0  0  0  0  0  0  0  0  0  0  0  0
    2.4928   -2.7850   -4.6724 C   0  0  0  0  0  0  0  0  0  0  0  0
    3.6166   -2.3617   -4.9378 O   0  0  0  0  0  0  0  0  0  0  0  0
    1.7902   -3.4319   -5.6026 O   0  0  0  0  0  0  0  0  0  0  0  0
    3.2491    0.4501   -3.7919 C   0  0  0  0  0  0  0  0  0  0  0  0
    4.1101    1.3228   -3.6442 O   0  0  0  0  0  0  0  0  0  0  0  0
    2.8132    0.1977   -5.0357 O   0  0  0  0  0  0  0  0  0  0  0  0
    3.0895    0.7389    1.2043 C   0  0  0  0  0  0  0  0  0  0  0  0
    0.5923   -0.8942   -0.5416 H   0  0  0  0  0  0  0  0  0  0  0  0
    0.5394    0.7282    0.1679 H   0  0  0  0  0  0  0  0  0  0  0  0
    0.7312   -0.6580    1.1640 H   0  0  0  0  0  0  0  0  0  0  0  0
    2.9464   -1.1882    0.3296 H   0  0  0  0  0  0  0  0  0  0  0  0
    4.3251   -0.1536   -1.2528 H   0  0  0  0  0  0  0  0  0  0  0  0
    3.5341    1.2632   -1.3630 H   0  0  0  0  0  0  0  0  0  0  0  0
    2.6479   -2.1956   -1.4332 H   0  0  0  0  0  0  0  0  0  0  0  0
    3.9134   -2.0971   -2.6259 H   0  0  0  0  0  0  0  0  0  0  0  0
   -1.4095    3.1725   -2.7264 H   0  0  0  0  0  0  0  0  0  0  0  0
   -0.4390    5.4251   -2.3417 H   0  0  0  0  0  0  0  0  0  0  0  0
    3.0186    3.5666   -0.5755 H   0  0  0  0  0  0  0  0  0  0  0  0
    1.8579    1.6064   -0.9276 H   0  0  0  0  0  0  0  0  0  0  0  0
    1.2811    6.8067   -3.2385 H   0  0  0  0  0  0  0  0  0  0  0  0
    2.8811    6.0853   -3.4027 H   0  0  0  0  0  0  0  0  0  0  0  0
    2.7030    7.6979   -2.6809 H   0  0  0  0  0  0  0  0  0  0  0  0
    0.2224    7.0095   -0.8344 H   0  0  0  0  0  0  0  0  0  0  0  0
    1.6485    7.8951   -0.2836 H   0  0  0  0  0  0  0  0  0  0  0  0
    1.1366    6.4115    0.5499 H   0  0  0  0  0  0  0  0  0  0  0  0
    4.2163    5.3641   -1.3516 H   0  0  0  0  0  0  0  0  0  0  0  0
    3.5144    5.5176    0.2663 H   0  0  0  0  0  0  0  0  0  0  0  0
    3.9993    6.9586   -0.6252 H   0  0  0  0  0  0  0  0  0  0  0  0
   -1.5069   -2.9842   -7.0739 H   0  0  0  0  0  0  0  0  0  0  0  0
   -1.5167   -0.3190   -7.4424 H   0  0  0  0  0  0  0  0  0  0  0  0
    0.8370   -3.5784   -5.3938 H   0  0  0  0  0  0  0  0  0  0  0  0
    2.3192   -0.6208   -5.1904 H   0  0  0  0  0  0  0  0  0  0  0  0
    2.7073    1.7602    1.1000 H   0  0  0  0  0  0  0  0  0  0  0  0
    4.1800    0.7823    1.2142 H   0  0  0  0  0  0  0  0  0  0  0  0
    2.7362    0.3616    2.1669 H   0  0  0  0  0  0  0  0  0  0  0  0
  1  2  1  0  0  0  0
  1 35  1  0  0  0  0
  1 36  1  0  0  0  0
  1 37  1  0  0  0  0
  2  3  1  0  0  0  0
  2 34  1  0  0  0  0
  2 38  1  0  0  0  0
  3 39  1  0  0  0  0
  3 40  1  0  0  0  0
  4  3  1  1  0  0  0
  4  5  1  0  0  0  0
  4 10  1  0  0  0  0
  4 31  1  0  0  0  0
  5  6  1  0  0  0  0
  5 41  1  0  0  0  0
  5 42  1  0  0  0  0
  6  7  1  1  0  0  0
  6  8  1  0  0  0  0
  6 28  1  0  0  0  0
  8  9  1  1  0  0  0
  8 10  1  0  0  0  0
  8 23  1  0  0  0  0
 10 11  1  0  0  0  0
 11 12  2  0  0  0  0
 11 13  1  0  0  0  0
 13 14  2  0  0  0  0
 13 18  1  0  0  0  0
 14 15  1  0  0  0  0
 14 43  1  0  0  0  0
 15 16  2  0  0  0  0
 15 44  1  0  0  0  0
 16 17  1  0  0  0  0
 16 19  1  0  0  0  0
 17 18  2  0  0  0  0
 17 45  1  0  0  0  0
 18 46  1  0  0  0  0
 19 20  1  0  0  0  0
 19 21  1  0  0  0  0
 19 22  1  0  0  0  0
 20 47  1  0  0  0  0
 20 48  1  0  0  0  0
 20 49  1  0  0  0  0
 21 50  1  0  0  0  0
 21 51  1  0  0  0  0
 21 52  1  0  0  0  0
 22 53  1  0  0  0  0
 22 54  1  0  0  0  0
 22 55  1  0  0  0  0
 23 24  2  0  0  0  0
 23 27  1  0  0  0  0
 24 25  1  0  0  0  0
 25 26  2  0  0  0  0
 25 56  1  0  0  0  0
 26 27  1  0  0  0  0
 26 57  1  0  0  0  0
 28 29  2  0  0  0  0
 28 30  1  0  0  0  0
 30 58  1  0  0  0  0
 31 32  2  0  0  0  0
 31 33  1  0  0  0  0
 33 59  1  0  0  0  0
 34 60  1  0  0  0  0
 34 61  1  0  0  0  0
 34 62  1  0  0  0  0
M  END
$$$$
