6AU
 OpenBabel04121316063D

 39 40  0  0  1  0  0  0  0  0999 V2000
    2.7910    0.3183   -1.3683 O   0  0  0  0  0  0  0  0  0  0  0  0
    2.2597    0.1874   -0.0336 C   0  0  2  0  0  0  0  0  0  0  0  0
    1.1731    0.2361   -0.0963 H   0  0  0  0  0  0  0  0  0  0  0  0
    2.8107    1.3102    0.8390 C   0  0  2  0  0  0  0  0  0  0  0  0
    2.2066    1.3605    1.7511 H   0  0  0  0  0  0  0  0  0  0  0  0
    2.8481    2.5702    0.1998 O   0  0  0  0  0  0  0  0  0  0  0  0
    4.2116    0.8430    1.1396 C   0  0  2  0  0  0  0  0  0  0  0  0
    4.9219    1.0634    0.3312 H   0  0  0  0  0  0  0  0  0  0  0  0
    4.0804   -0.5802    1.1721 O   0  0  0  0  0  0  0  0  0  0  0  0
    2.8246   -1.0686    0.6556 C   0  0  1  0  0  0  0  0  0  0  0  0
    3.0788   -1.8473   -0.0799 H   0  0  0  0  0  0  0  0  0  0  0  0
    1.9339   -1.7405    1.6404 N   0  0  0  0  0  0  0  0  0  0  0  0
    0.6942   -2.1062    1.0727 C   0  0  0  0  0  0  0  0  0  0  0  0
    0.4102   -1.9664   -0.1123 O   0  0  0  0  0  0  0  0  0  0  0  0
   -0.2410   -2.6477    1.9074 N   0  0  0  0  0  0  0  0  0  0  0  0
   -1.1438   -2.8569    1.5032 H   0  0  0  0  0  0  0  0  0  0  0  0
   -0.0534   -2.9888    3.1971 C   0  0  0  0  0  0  0  0  0  0  0  0
   -0.9349   -3.5157    3.8896 O   0  0  0  0  0  0  0  0  0  0  0  0
    1.2825   -2.7472    3.7205 C   0  0  0  0  0  0  0  0  0  0  0  0
    2.2286   -2.1732    2.9513 C   0  0  0  0  0  0  0  0  0  0  0  0
    3.5560   -2.1632    3.6847 C   0  0  0  0  0  0  0  0  0  0  0  0
    3.6182   -2.2659    4.9125 O   0  0  0  0  0  0  0  0  0  0  0  0
    4.8180   -1.9729    2.9363 C   0  0  0  0  0  0  0  0  0  0  0  0
    4.8246    1.4689    2.4140 C   0  0  0  0  0  0  0  0  0  0  0  0
    3.8366    1.6393    3.4273 O   0  0  0  0  0  0  0  0  0  0  0  0
    4.4601    2.4414    4.8276 P   0  0  0  0  0  0  0  0  0  0  0  0
    3.1582    3.2098    4.9823 O   0  0  0  0  0  0  0  0  0  0  0  0
    4.4341    1.0320    5.6240 O   0  0  0  0  0  0  0  0  0  0  0  0
    5.0836    3.2435    6.2279 O   0  0  0  0  0  0  0  0  0  0  0  0
    3.7220    0.0340   -1.3639 H   0  0  0  0  0  0  0  0  0  0  0  0
    3.2690    2.4256   -0.6682 H   0  0  0  0  0  0  0  0  0  0  0  0
    1.4411   -3.0860    4.7400 H   0  0  0  0  0  0  0  0  0  0  0  0
    4.6621   -2.3533    1.9289 H   0  0  0  0  0  0  0  0  0  0  0  0
    5.7220   -2.4678    3.2635 H   0  0  0  0  0  0  0  0  0  0  0  0
    5.0021   -0.9113    3.0614 H   0  0  0  0  0  0  0  0  0  0  0  0
    5.6497    0.8781    2.8292 H   0  0  0  0  0  0  0  0  0  0  0  0
    5.2512    2.4503    2.1854 H   0  0  0  0  0  0  0  0  0  0  0  0
    3.8056    0.3929    5.2416 H   0  0  0  0  0  0  0  0  0  0  0  0
    5.2136    4.1831    6.0137 H   0  0  0  0  0  0  0  0  0  0  0  0
  1 30  1  0  0  0  0
  2  4  1  0  0  0  0
  2 10  1  0  0  0  0
  2  3  1  6  0  0  0
  2  1  1  0  0  0  0
  4  7  1  0  0  0  0
  4  6  1  0  0  0  0
  4  5  1  1  0  0  0
  6 31  1  0  0  0  0
  7  9  1  0  0  0  0
  7 24  1  0  0  0  0
  7  8  1  6  0  0  0
  9 10  1  0  0  0  0
 10 12  1  0  0  0  0
 10 11  1  6  0  0  0
 12 13  1  0  0  0  0
 12 20  1  0  0  0  0
 13 14  2  0  0  0  0
 13 15  1  0  0  0  0
 15 16  1  0  0  0  0
 15 17  1  0  0  0  0
 17 18  2  0  0  0  0
 17 19  1  0  0  0  0
 19 20  2  0  0  0  0
 19 32  1  0  0  0  0
 20 21  1  0  0  0  0
 21 22  2  0  0  0  0
 21 23  1  0  0  0  0
 23 33  1  0  0  0  0
 23 34  1  0  0  0  0
 23 35  1  0  0  0  0
 24 25  1  0  0  0  0
 24 36  1  0  0  0  0
 24 37  1  0  0  0  0
 25 26  1  0  0  0  0
 26 27  2  0  0  0  0
 26 28  1  0  0  0  0
 26 29  1  0  0  0  0
 28 38  1  0  0  0  0
 29 39  1  0  0  0  0
M  END
$$$$
