6BP
 OpenBabel04121316063D

  7  6  0  0  0  0  0  0  0  0999 V2000
    1.0482    0.0600   -0.0638 Br  0  5  0  0  0  0  0  0  0  0  0  0
    3.6082    0.0600   -0.0638 Pt  0  0  0  0  0  0  0  0  0  0  0  0
    3.6082   -1.0213    2.2566 Br  0  0  0  0  0  0  0  0  0  0  0  0
    3.6082   -2.2604   -1.1451 Br  0  0  0  0  0  0  0  0  0  0  0  0
    6.1682    0.0600   -0.0638 Br  0  0  0  0  0  0  0  0  0  0  0  0
    3.6082    1.1413   -2.3842 Br  0  0  0  0  0  0  0  0  0  0  0  0
    3.6082    2.3804    1.0175 Br  0  5  0  0  0  0  0  0  0  0  0  0
  1  2  1  0  0  0  0
  2  3  1  0  0  0  0
  2  4  1  0  0  0  0
  2  5  1  0  0  0  0
  2  6  1  0  0  0  0
  2  7  1  0  0  0  0
M  CHG  2   1  -1   7  -1
M  END
$$$$
