6FA
 OpenBabel04121316063D

 87 92  0  0  1  0  0  0  0  0999 V2000
    3.5179   -0.5141   15.5023 O   0  0  0  0  0  0  0  0  0  0  0  0
    3.2009   -0.2769   14.3562 C   0  0  0  0  0  0  0  0  0  0  0  0
    2.9589    1.0248   13.9976 N   0  0  0  0  0  0  0  0  0  0  0  0
    3.0478    1.7044   14.7381 H   0  0  0  0  0  0  0  0  0  0  0  0
    2.5723    1.4662   12.7750 C   0  0  0  0  0  0  0  0  0  0  0  0
    2.3472    2.6419   12.5096 O   0  0  0  0  0  0  0  0  0  0  0  0
    2.4044    0.3799   11.7547 C   0  0  0  0  0  0  0  0  0  0  0  0
    2.6476   -1.0400   12.2010 C   0  0  0  0  0  0  0  0  0  0  0  0
    3.0506   -1.2648   13.4134 N   0  0  0  0  0  0  0  0  0  0  0  0
    2.4243   -2.0684   11.2745 N   0  0  0  0  0  0  0  0  0  0  0  0
    2.9124   -3.4145   11.6991 C   0  0  0  0  0  0  0  0  0  0  0  0
    2.9902   -4.4835   10.6286 C   0  0  1  0  0  0  0  0  0  0  0  0
    1.9620   -4.6298   10.3199 H   0  0  0  0  0  0  0  0  0  0  0  0
    4.0688   -4.1558    9.5155 C   0  0  1  0  0  0  0  0  0  0  0  0
    5.0327   -4.4338    9.9379 H   0  0  0  0  0  0  0  0  0  0  0  0
    3.8254   -5.0376    8.2576 C   0  0  1  0  0  0  0  0  0  0  0  0
    2.7807   -4.9455    7.9690 H   0  0  0  0  0  0  0  0  0  0  0  0
    4.7284   -4.6911    7.0553 C   0  0  0  0  0  0  0  0  0  0  0  0
    4.4616   -3.4182    6.5547 O   0  0  0  0  0  0  0  0  0  0  0  0
    5.3407   -2.5974    5.4726 P   0  0  2  0  0  0  0  0  0  0  0  0
    4.2023   -2.5660    4.4297 O   0  0  0  0  0  0  0  0  0  0  0  0
    6.2050   -3.6177    4.5627 O   0  0  0  0  0  0  0  0  0  0  0  0
    7.2553   -3.0027    3.4237 P   0  0  2  0  0  0  0  0  0  0  0  0
    8.4268   -3.2448    4.4004 O   0  0  0  0  0  0  0  0  0  0  0  0
    7.2682   -1.3275    3.7461 O   0  0  0  0  0  0  0  0  0  0  0  0
    8.5070   -0.8676    4.3585 C   0  0  0  0  0  0  0  0  0  0  0  0
    8.8751    0.6045    4.4504 C   0  0  1  0  0  0  0  0  0  0  0  0
    9.9756    0.5926    4.5412 H   0  0  0  0  0  0  0  0  0  0  0  0
    8.5562    1.4361    3.3293 O   0  0  0  0  0  0  0  0  0  0  0  0
    8.8892    2.7587    3.8257 C   0  0  2  0  0  0  0  0  0  0  0  0
    9.9807    2.8743    3.7644 H   0  0  0  0  0  0  0  0  0  0  0  0
    8.3935    2.7932    5.2828 C   0  0  1  0  0  0  0  0  0  0  0  0
    7.3809    3.2058    5.3428 H   0  0  0  0  0  0  0  0  0  0  0  0
    8.3461    1.3167    5.6909 C   0  0  2  0  0  0  0  0  0  0  0  0
    7.3187    1.0123    5.9125 H   0  0  0  0  0  0  0  0  0  0  0  0
    9.1456    1.0024    6.8283 O   0  0  0  0  0  0  0  0  0  0  0  0
    9.2285    3.5611    6.1485 O   0  0  0  0  0  0  0  0  0  0  0  0
    8.3242    3.8112    3.0039 N   0  0  0  0  0  0  0  0  0  0  0  0
    7.3965    3.7055    2.0068 C   0  0  0  0  0  0  0  0  0  0  0  0
    7.1532    4.8688    1.4360 N   0  0  0  0  0  0  0  0  0  0  0  0
    7.9567    5.7716    2.1031 C   0  0  0  0  0  0  0  0  0  0  0  0
    8.6771    5.1360    3.1010 C   0  0  0  0  0  0  0  0  0  0  0  0
    9.5375    5.6989    3.9704 N   0  0  0  0  0  0  0  0  0  0  0  0
    9.6585    7.0260    3.7236 C   0  0  0  0  0  0  0  0  0  0  0  0
    9.0323    7.7702    2.7853 N   0  0  0  0  0  0  0  0  0  0  0  0
    8.1594    7.1554    1.9542 C   0  0  0  0  0  0  0  0  0  0  0  0
    7.5134    7.9066    0.9991 N   0  0  0  0  0  0  0  0  0  0  0  0
    5.9429   -2.7314    2.3296 O   0  0  0  0  0  0  0  0  0  0  0  0
    6.6161   -2.6325    6.6410 O   0  0  0  0  0  0  0  0  0  0  0  0
    3.9635   -6.4227    8.5695 O   0  0  0  0  0  0  0  0  0  0  0  0
    4.2554   -2.7937    9.1205 O   0  0  0  0  0  0  0  0  0  0  0  0
    3.2289   -5.7998   11.1537 O   0  0  0  0  0  0  0  0  0  0  0  0
    1.8900   -1.7259    9.9979 C   0  0  0  0  0  0  0  0  0  0  0  0
    1.8317   -0.3737    9.6239 C   0  0  0  0  0  0  0  0  0  0  0  0
    2.0526    0.6810   10.5393 N   0  0  0  0  0  0  0  0  0  0  0  0
    1.5588   -0.0410    8.2747 C   0  0  0  0  0  0  0  0  0  0  0  0
    1.4521    1.2806    7.9196 O   0  0  0  0  0  0  0  0  0  0  0  0
    1.3952   -1.0020    7.2692 C   0  0  0  0  0  0  0  0  0  0  0  0
    1.4154   -2.3350    7.6134 C   0  0  0  0  0  0  0  0  0  0  0  0
    1.5408   -2.6351    8.9714 C   0  0  0  0  0  0  0  0  0  0  0  0
    1.3737   -3.4552    6.5908 C   0  0  0  0  0  0  0  0  0  0  0  0
    1.1240   -0.6767    5.8425 C   0  0  0  0  0  0  0  0  0  0  0  0
    2.2689   -3.7663   12.5173 H   0  0  0  0  0  0  0  0  0  0  0  0
    3.9203   -3.3457   12.1378 H   0  0  0  0  0  0  0  0  0  0  0  0
    4.5287   -5.3808    6.2353 H   0  0  0  0  0  0  0  0  0  0  0  0
    5.7674   -4.7683    7.3640 H   0  0  0  0  0  0  0  0  0  0  0  0
    9.3483   -1.3416    3.8327 H   0  0  0  0  0  0  0  0  0  0  0  0
    8.5075   -1.2299    5.3925 H   0  0  0  0  0  0  0  0  0  0  0  0
    9.0043    1.7199    7.4768 H   0  0  0  0  0  0  0  0  0  0  0  0
    9.3198    4.4520    5.7477 H   0  0  0  0  0  0  0  0  0  0  0  0
    6.9338    2.7668    1.7288 H   0  0  0  0  0  0  0  0  0  0  0  0
   10.3515    7.5705    4.3611 H   0  0  0  0  0  0  0  0  0  0  0  0
    7.7086    8.8927    0.9372 H   0  0  0  0  0  0  0  0  0  0  0  0
    6.8699    7.4455    0.3714 H   0  0  0  0  0  0  0  0  0  0  0  0
    6.2370   -2.2399    1.5429 H   0  0  0  0  0  0  0  0  0  0  0  0
    7.4745   -2.7645    6.1890 H   0  0  0  0  0  0  0  0  0  0  0  0
    3.3897   -6.5784    9.3449 H   0  0  0  0  0  0  0  0  0  0  0  0
    4.1186   -2.1608    9.8401 H   0  0  0  0  0  0  0  0  0  0  0  0
    2.4499   -6.0407   11.6923 H   0  0  0  0  0  0  0  0  0  0  0  0
    1.5200    1.7778    8.7568 H   0  0  0  0  0  0  0  0  0  0  0  0
    1.4485   -3.6874    9.0870 H   0  0  0  0  0  0  0  0  0  0  0  0
    1.0628   -3.1498    5.5945 H   0  0  0  0  0  0  0  0  0  0  0  0
    0.7296   -4.2712    6.9257 H   0  0  0  0  0  0  0  0  0  0  0  0
    2.3523   -3.8821    6.4034 H   0  0  0  0  0  0  0  0  0  0  0  0
    0.9656    0.3843    5.6794 H   0  0  0  0  0  0  0  0  0  0  0  0
    0.2015   -1.1977    5.5578 H   0  0  0  0  0  0  0  0  0  0  0  0
    1.9512   -1.0298    5.2180 H   0  0  0  0  0  0  0  0  0  0  0  0
  1  2  2  0  0  0  0
  2  3  1  0  0  0  0
  2  9  1  0  0  0  0
  3  4  1  0  0  0  0
  3  5  1  0  0  0  0
  5  6  2  0  0  0  0
  5  7  1  0  0  0  0
  7  8  1  0  0  0  0
  7 55  2  0  0  0  0
  8  9  2  0  0  0  0
  8 10  1  0  0  0  0
 10 11  1  0  0  0  0
 10 53  1  0  0  0  0
 11 12  1  0  0  0  0
 11 63  1  0  0  0  0
 11 64  1  0  0  0  0
 12 13  1  6  0  0  0
 12 14  1  0  0  0  0
 12 52  1  0  0  0  0
 14 15  1  1  0  0  0
 14 16  1  0  0  0  0
 14 51  1  0  0  0  0
 16 17  1  6  0  0  0
 16 18  1  0  0  0  0
 16 50  1  0  0  0  0
 18 19  1  0  0  0  0
 18 65  1  0  0  0  0
 18 66  1  0  0  0  0
 20 22  1  6  0  0  0
 20 49  1  0  0  0  0
 20 21  2  0  0  0  0
 20 19  1  0  0  0  0
 23 25  1  1  0  0  0
 23 48  1  0  0  0  0
 23 24  2  0  0  0  0
 23 22  1  0  0  0  0
 25 26  1  0  0  0  0
 26 27  1  0  0  0  0
 26 67  1  0  0  0  0
 26 68  1  0  0  0  0
 27 28  1  1  0  0  0
 27 29  1  0  0  0  0
 27 34  1  0  0  0  0
 29 30  1  0  0  0  0
 30 32  1  0  0  0  0
 30 38  1  0  0  0  0
 30 31  1  1  0  0  0
 32 33  1  1  0  0  0
 32 34  1  0  0  0  0
 32 37  1  0  0  0  0
 34 35  1  1  0  0  0
 34 36  1  0  0  0  0
 36 69  1  0  0  0  0
 37 70  1  0  0  0  0
 38 39  1  0  0  0  0
 38 42  1  0  0  0  0
 39 40  2  0  0  0  0
 39 71  1  0  0  0  0
 40 41  1  0  0  0  0
 41 42  2  0  0  0  0
 41 46  1  0  0  0  0
 42 43  1  0  0  0  0
 43 44  2  0  0  0  0
 44 45  1  0  0  0  0
 44 72  1  0  0  0  0
 45 46  2  0  0  0  0
 46 47  1  0  0  0  0
 47 73  1  0  0  0  0
 47 74  1  0  0  0  0
 48 75  1  0  0  0  0
 49 76  1  0  0  0  0
 50 77  1  0  0  0  0
 51 78  1  0  0  0  0
 52 79  1  0  0  0  0
 53 54  2  0  0  0  0
 53 60  1  0  0  0  0
 54 55  1  0  0  0  0
 54 56  1  0  0  0  0
 56 57  1  0  0  0  0
 56 58  2  0  0  0  0
 57 80  1  0  0  0  0
 58 59  1  0  0  0  0
 58 62  1  0  0  0  0
 59 60  2  0  0  0  0
 59 61  1  0  0  0  0
 60 81  1  0  0  0  0
 61 82  1  0  0  0  0
 61 83  1  0  0  0  0
 61 84  1  0  0  0  0
 62 85  1  0  0  0  0
 62 86  1  0  0  0  0
 62 87  1  0  0  0  0
M  END
$$$$
