6IP
 OpenBabel04121316063D

 33 35  0  0  0  0  0  0  0  0999 V2000
    1.0809    0.0062   -0.2114 N   0  0  0  0  0  0  0  0  0  0  0  0
    2.4476    0.0486    0.0418 C   0  0  0  0  0  0  0  0  0  0  0  0
    3.1264    1.2537    0.0594 C   0  0  0  0  0  0  0  0  0  0  0  0
    4.4918    1.2677    0.3314 C   0  0  0  0  0  0  0  0  0  0  0  0
    5.1712    0.0659    0.3910 C   0  0  0  0  0  0  0  0  0  0  0  0
    4.4369   -1.1011    0.2496 C   0  0  0  0  0  0  0  0  0  0  0  0
    3.0844   -1.1246    0.1391 N   0  0  0  0  0  0  0  0  0  0  0  0
    5.1894   -2.3854    0.0802 C   0  0  0  0  0  0  0  0  0  0  0  0
    4.2884   -3.6038   -0.0811 C   0  0  0  0  0  0  0  0  0  0  0  0
    5.0585   -4.8926   -0.2236 C   0  0  0  0  0  0  0  0  0  0  0  0
    4.3837   -6.0934    0.0169 C   0  0  0  0  0  0  0  0  0  0  0  0
    5.0356   -7.3234   -0.1059 C   0  0  0  0  0  0  0  0  0  0  0  0
    6.3790   -7.3452   -0.5227 C   0  0  0  0  0  0  0  0  0  0  0  0
    7.0262   -6.1452   -0.7737 C   0  0  0  0  0  0  0  0  0  0  0  0
    6.4055   -4.9065   -0.6264 C   0  0  0  0  0  0  0  0  0  0  0  0
    8.3085   -6.4339   -1.1829 N   0  0  0  0  0  0  0  0  0  0  0  0
    9.0107   -5.7480   -1.3952 H   0  0  0  0  0  0  0  0  0  0  0  0
    8.4309   -7.7902   -1.3441 C   0  0  0  0  0  0  0  0  0  0  0  0
    7.3101   -8.3781   -0.8096 C   0  0  0  0  0  0  0  0  0  0  0  0
    0.5604    0.7829    0.1696 H   0  0  0  0  0  0  0  0  0  0  0  0
    0.7256   -0.9067    0.0584 H   0  0  0  0  0  0  0  0  0  0  0  0
    2.5997    2.1822   -0.1203 H   0  0  0  0  0  0  0  0  0  0  0  0
    5.0231    2.2026    0.4594 H   0  0  0  0  0  0  0  0  0  0  0  0
    6.2526    0.0382    0.4897 H   0  0  0  0  0  0  0  0  0  0  0  0
    5.8660   -2.5257    0.9328 H   0  0  0  0  0  0  0  0  0  0  0  0
    5.8046   -2.2627   -0.8219 H   0  0  0  0  0  0  0  0  0  0  0  0
    3.6447   -3.4885   -0.9638 H   0  0  0  0  0  0  0  0  0  0  0  0
    3.6336   -3.6794    0.7972 H   0  0  0  0  0  0  0  0  0  0  0  0
    3.3318   -6.0785    0.2989 H   0  0  0  0  0  0  0  0  0  0  0  0
    4.4972   -8.2459    0.0791 H   0  0  0  0  0  0  0  0  0  0  0  0
    6.9618   -4.0050   -0.8446 H   0  0  0  0  0  0  0  0  0  0  0  0
    9.3155   -8.2105   -1.8041 H   0  0  0  0  0  0  0  0  0  0  0  0
    7.1321   -9.4399   -0.7127 H   0  0  0  0  0  0  0  0  0  0  0  0
  1  2  1  0  0  0  0
  1 20  1  0  0  0  0
  1 21  1  0  0  0  0
  2  3  2  0  0  0  0
  2  7  1  0  0  0  0
  3  4  1  0  0  0  0
  3 22  1  0  0  0  0
  4  5  2  0  0  0  0
  4 23  1  0  0  0  0
  5  6  1  0  0  0  0
  5 24  1  0  0  0  0
  6  7  2  0  0  0  0
  6  8  1  0  0  0  0
  8  9  1  0  0  0  0
  8 25  1  0  0  0  0
  8 26  1  0  0  0  0
  9 10  1  0  0  0  0
  9 27  1  0  0  0  0
  9 28  1  0  0  0  0
 10 11  2  0  0  0  0
 10 15  1  0  0  0  0
 11 12  1  0  0  0  0
 11 29  1  0  0  0  0
 12 13  2  0  0  0  0
 12 30  1  0  0  0  0
 13 14  1  0  0  0  0
 13 19  1  0  0  0  0
 14 15  2  0  0  0  0
 14 16  1  0  0  0  0
 15 31  1  0  0  0  0
 16 17  1  0  0  0  0
 16 18  1  0  0  0  0
 18 19  2  0  0  0  0
 18 32  1  0  0  0  0
 19 33  1  0  0  0  0
M  END
$$$$
