6MR
 OpenBabel04121316063D

 50 53  0  0  1  0  0  0  0  0999 V2000
    2.3643   -3.4159   -0.8919 O   0  0  0  0  0  0  0  0  0  0  0  0
    2.1658   -2.2072   -0.3362 C   0  0  0  0  0  0  0  0  0  0  0  0
    1.2455   -2.0747    0.4652 O   0  0  0  0  0  0  0  0  0  0  0  0
    2.9309   -0.9785   -0.8847 C   0  0  2  0  0  0  0  0  0  0  0  0
    2.5354   -0.1577   -0.2676 H   0  0  0  0  0  0  0  0  0  0  0  0
    2.5108   -0.6496   -2.2981 N   0  0  0  0  0  0  0  0  0  0  0  0
    0.8142   -0.8058   -2.5000 S   0  0  0  0  0  0  0  0  0  0  0  0
    0.5214   -2.2139   -2.4404 O   0  0  0  0  0  0  0  0  0  0  0  0
    0.1723    0.1783   -1.6536 O   0  0  0  0  0  0  0  0  0  0  0  0
    0.5593   -0.3556   -4.1685 C   0  0  0  0  0  0  0  0  0  0  0  0
    0.3222   -1.3770   -5.0882 C   0  0  0  0  0  0  0  0  0  0  0  0
    0.2829   -1.0735   -6.4350 C   0  0  0  0  0  0  0  0  0  0  0  0
    0.3361    0.2587   -6.8650 C   0  0  0  0  0  0  0  0  0  0  0  0
    0.3652    1.2763   -5.8862 C   0  0  0  0  0  0  0  0  0  0  0  0
    0.5443    0.9778   -4.5424 C   0  0  0  0  0  0  0  0  0  0  0  0
    0.3578    0.5902   -8.2965 C   0  0  0  0  0  0  0  0  0  0  0  0
    0.9602    1.7772   -8.7445 C   0  0  0  0  0  0  0  0  0  0  0  0
    0.8142    2.1998  -10.0626 C   0  0  0  0  0  0  0  0  0  0  0  0
    0.1932    1.3642  -10.9846 C   0  0  0  0  0  0  0  0  0  0  0  0
   -0.2512    0.1030  -10.6034 C   0  0  0  0  0  0  0  0  0  0  0  0
   -0.2201   -0.2543   -9.2578 C   0  0  0  0  0  0  0  0  0  0  0  0
   -0.1358    2.0279  -12.9189 I   0  0  0  0  0  0  0  0  0  0  0  0
    4.4625   -0.8423   -0.6674 C   0  0  0  0  0  0  0  0  0  0  0  0
    5.3022   -1.6976   -1.5627 C   0  0  0  0  0  0  0  0  0  0  0  0
    6.1012   -1.2885   -2.6134 C   0  0  0  0  0  0  0  0  0  0  0  0
    6.4793   -2.4078   -3.3132 N   0  0  0  0  0  0  0  0  0  0  0  0
    7.0299   -2.4069   -4.1615 H   0  0  0  0  0  0  0  0  0  0  0  0
    5.9388   -3.5299   -2.7272 C   0  0  0  0  0  0  0  0  0  0  0  0
    5.3856   -3.1183   -1.5198 C   0  0  0  0  0  0  0  0  0  0  0  0
    4.8935   -4.0891   -0.6296 C   0  0  0  0  0  0  0  0  0  0  0  0
    4.6667   -5.3782   -1.1150 C   0  0  0  0  0  0  0  0  0  0  0  0
    5.1789   -5.7659   -2.3465 C   0  0  0  0  0  0  0  0  0  0  0  0
    5.9002   -4.8663   -3.1416 C   0  0  0  0  0  0  0  0  0  0  0  0
    2.9215   -3.4944   -1.6898 H   0  0  0  0  0  0  0  0  0  0  0  0
    3.0312   -1.1750   -3.0024 H   0  0  0  0  0  0  0  0  0  0  0  0
    0.1909   -2.4104   -4.7745 H   0  0  0  0  0  0  0  0  0  0  0  0
    0.2254   -1.9011   -7.1363 H   0  0  0  0  0  0  0  0  0  0  0  0
    0.2608    2.3217   -6.1699 H   0  0  0  0  0  0  0  0  0  0  0  0
    0.6614    1.7709   -3.8082 H   0  0  0  0  0  0  0  0  0  0  0  0
    1.5287    2.4030   -8.0588 H   0  0  0  0  0  0  0  0  0  0  0  0
    1.1763    3.1847  -10.3412 H   0  0  0  0  0  0  0  0  0  0  0  0
   -0.6610   -0.5984  -11.3238 H   0  0  0  0  0  0  0  0  0  0  0  0
   -0.6845   -1.1949   -8.9710 H   0  0  0  0  0  0  0  0  0  0  0  0
    4.7278   -1.0419    0.3781 H   0  0  0  0  0  0  0  0  0  0  0  0
    4.7438    0.2086   -0.8486 H   0  0  0  0  0  0  0  0  0  0  0  0
    6.3977   -0.3008   -2.9482 H   0  0  0  0  0  0  0  0  0  0  0  0
    4.4839   -3.8012    0.3368 H   0  0  0  0  0  0  0  0  0  0  0  0
    4.0278   -6.0516   -0.5447 H   0  0  0  0  0  0  0  0  0  0  0  0
    5.0246   -6.7888   -2.6824 H   0  0  0  0  0  0  0  0  0  0  0  0
    6.3533   -5.1917   -4.0709 H   0  0  0  0  0  0  0  0  0  0  0  0
  1  2  1  0  0  0  0
  1 34  1  0  0  0  0
  2  3  2  0  0  0  0
  4  6  1  0  0  0  0
  4 23  1  0  0  0  0
  4  5  1  1  0  0  0
  4  2  1  0  0  0  0
  6  7  1  0  0  0  0
  6 35  1  0  0  0  0
  7  8  2  0  0  0  0
  7  9  2  0  0  0  0
  7 10  1  0  0  0  0
 10 11  2  0  0  0  0
 10 15  1  0  0  0  0
 11 12  1  0  0  0  0
 11 36  1  0  0  0  0
 12 13  2  0  0  0  0
 12 37  1  0  0  0  0
 13 14  1  0  0  0  0
 13 16  1  0  0  0  0
 14 15  2  0  0  0  0
 14 38  1  0  0  0  0
 15 39  1  0  0  0  0
 16 17  2  0  0  0  0
 16 21  1  0  0  0  0
 17 18  1  0  0  0  0
 17 40  1  0  0  0  0
 18 19  2  0  0  0  0
 18 41  1  0  0  0  0
 19 20  1  0  0  0  0
 19 22  1  0  0  0  0
 20 21  2  0  0  0  0
 20 42  1  0  0  0  0
 21 43  1  0  0  0  0
 23 24  1  0  0  0  0
 23 44  1  0  0  0  0
 23 45  1  0  0  0  0
 24 25  2  0  0  0  0
 24 29  1  0  0  0  0
 25 26  1  0  0  0  0
 25 46  1  0  0  0  0
 26 27  1  0  0  0  0
 26 28  1  0  0  0  0
 28 29  2  0  0  0  0
 28 33  1  0  0  0  0
 29 30  1  0  0  0  0
 30 31  2  0  0  0  0
 30 47  1  0  0  0  0
 31 32  1  0  0  0  0
 31 48  1  0  0  0  0
 32 33  2  0  0  0  0
 32 49  1  0  0  0  0
 33 50  1  0  0  0  0
M  END
$$$$
