702
 OpenBabel04121316063D

 57 59  0  0  1  0  0  0  0  0999 V2000
    1.9190    0.5346   -2.7511 O   0  0  0  0  0  0  0  0  0  0  0  0
    3.6490    0.5346   -2.7511 P   0  0  0  0  0  0  0  0  0  0  0  0
    3.7146    1.5643   -1.6100 O   0  0  0  0  0  0  0  0  0  0  0  0
    2.8774   -1.0101   -1.5217 C   0  0  2  0  0  0  0  0  0  0  0  0
    2.8689   -0.5903   -0.5145 H   0  0  0  0  0  0  0  0  0  0  0  0
    3.7766   -2.4633   -1.6945 S   0  0  0  0  0  0  0  0  0  0  0  0
    3.1960   -3.3817   -0.7078 O   0  0  0  0  0  0  0  0  0  0  0  0
    3.9168   -2.8132   -3.0686 O   0  0  0  0  0  0  0  0  0  0  0  0
    5.1930   -1.9873   -1.1019 O   0  0  0  0  0  0  0  0  0  0  0  0
    1.2737   -1.3259   -1.8311 C   0  0  0  0  0  0  0  0  0  0  0  0
    1.1344   -1.6605   -3.3069 C   0  0  0  0  0  0  0  0  0  0  0  0
   -0.2837   -1.5479   -3.8322 C   0  0  0  0  0  0  0  0  0  0  0  0
   -0.3042   -1.9060   -5.2785 C   0  0  0  0  0  0  0  0  0  0  0  0
   -1.4922   -2.2384   -5.9140 C   0  0  0  0  0  0  0  0  0  0  0  0
   -1.4416   -2.8102   -7.1629 C   0  0  0  0  0  0  0  0  0  0  0  0
   -0.2031   -3.2331   -7.6203 C   0  0  0  0  0  0  0  0  0  0  0  0
    0.9890   -2.8382   -7.0174 C   0  0  0  0  0  0  0  0  0  0  0  0
    0.9063   -2.0456   -5.9359 C   0  0  0  0  0  0  0  0  0  0  0  0
    2.1692   -3.4498   -7.2783 O   0  0  0  0  0  0  0  0  0  0  0  0
    3.4336   -3.0694   -6.8732 C   0  0  0  0  0  0  0  0  0  0  0  0
    3.8445   -1.7310   -6.7810 C   0  0  0  0  0  0  0  0  0  0  0  0
    5.1394   -1.4137   -6.3819 C   0  0  0  0  0  0  0  0  0  0  0  0
    6.0202   -2.4370   -6.0459 C   0  0  0  0  0  0  0  0  0  0  0  0
    5.6322   -3.7772   -6.1858 C   0  0  0  0  0  0  0  0  0  0  0  0
    4.3686   -4.1153   -6.7141 C   0  0  0  0  0  0  0  0  0  0  0  0
    4.1091   -5.5775   -7.1409 C   0  0  0  0  0  0  0  0  0  0  0  0
    2.9540   -5.8961   -8.0996 C   0  0  0  0  0  0  0  0  0  0  0  0
    2.2759   -7.1162   -8.0981 C   0  0  0  0  0  0  0  0  0  0  0  0
    1.1389   -7.2917   -8.9099 C   0  0  0  0  0  0  0  0  0  0  0  0
    0.5760   -6.2172   -9.5919 C   0  0  0  0  0  0  0  0  0  0  0  0
    1.3051   -5.0514   -9.6854 C   0  0  0  0  0  0  0  0  0  0  0  0
    2.5523   -4.9716   -9.0763 C   0  0  0  0  0  0  0  0  0  0  0  0
    5.3790    0.5346   -2.7511 O   0  0  0  0  0  0  0  0  0  0  0  0
    1.5659    1.3129   -3.2268 H   0  0  0  0  0  0  0  0  0  0  0  0
    5.1087   -1.5860   -0.2157 H   0  0  0  0  0  0  0  0  0  0  0  0
    0.6142   -0.4599   -1.6025 H   0  0  0  0  0  0  0  0  0  0  0  0
    0.8365   -2.1132   -1.2188 H   0  0  0  0  0  0  0  0  0  0  0  0
    1.5679   -2.6428   -3.4954 H   0  0  0  0  0  0  0  0  0  0  0  0
    1.7441   -0.9845   -3.9215 H   0  0  0  0  0  0  0  0  0  0  0  0
   -0.6809   -0.5335   -3.7528 H   0  0  0  0  0  0  0  0  0  0  0  0
   -0.8876   -2.2601   -3.2693 H   0  0  0  0  0  0  0  0  0  0  0  0
   -2.4364   -2.1576   -5.3918 H   0  0  0  0  0  0  0  0  0  0  0  0
   -2.3394   -3.0972   -7.6974 H   0  0  0  0  0  0  0  0  0  0  0  0
   -0.2576   -4.0046   -8.3619 H   0  0  0  0  0  0  0  0  0  0  0  0
    1.8498   -1.8239   -5.4753 H   0  0  0  0  0  0  0  0  0  0  0  0
    3.1559   -0.9260   -7.0184 H   0  0  0  0  0  0  0  0  0  0  0  0
    5.4496   -0.3750   -6.3144 H   0  0  0  0  0  0  0  0  0  0  0  0
    7.0190   -2.1922   -5.6916 H   0  0  0  0  0  0  0  0  0  0  0  0
    6.3315   -4.5560   -5.8853 H   0  0  0  0  0  0  0  0  0  0  0  0
    4.0430   -6.1821   -6.2249 H   0  0  0  0  0  0  0  0  0  0  0  0
    4.9986   -5.9112   -7.6903 H   0  0  0  0  0  0  0  0  0  0  0  0
    2.6321   -7.9479   -7.4962 H   0  0  0  0  0  0  0  0  0  0  0  0
    0.6857   -8.2706   -9.0183 H   0  0  0  0  0  0  0  0  0  0  0  0
   -0.3980   -6.2802  -10.0675 H   0  0  0  0  0  0  0  0  0  0  0  0
    0.8773   -4.1448  -10.1150 H   0  0  0  0  0  0  0  0  0  0  0  0
    3.0870   -4.0315   -9.1928 H   0  0  0  0  0  0  0  0  0  0  0  0
    5.7433    1.3064   -3.2224 H   0  0  0  0  0  0  0  0  0  0  0  0
  1  2  1  0  0  0  0
  1 34  1  0  0  0  0
  2  3  2  0  0  0  0
  2 33  1  0  0  0  0
  4  6  1  0  0  0  0
  4 10  1  0  0  0  0
  4  5  1  1  0  0  0
  4  2  1  0  0  0  0
  6  7  2  0  0  0  0
  6  8  2  0  0  0  0
  6  9  1  0  0  0  0
  9 35  1  0  0  0  0
 10 11  1  0  0  0  0
 10 36  1  0  0  0  0
 10 37  1  0  0  0  0
 11 12  1  0  0  0  0
 11 38  1  0  0  0  0
 11 39  1  0  0  0  0
 12 13  1  0  0  0  0
 12 40  1  0  0  0  0
 12 41  1  0  0  0  0
 13 14  2  0  0  0  0
 13 18  1  0  0  0  0
 14 15  1  0  0  0  0
 14 42  1  0  0  0  0
 15 16  2  0  0  0  0
 15 43  1  0  0  0  0
 16 17  1  0  0  0  0
 16 44  1  0  0  0  0
 17 18  2  0  0  0  0
 17 19  1  0  0  0  0
 18 45  1  0  0  0  0
 19 20  1  0  0  0  0
 20 21  2  0  0  0  0
 20 25  1  0  0  0  0
 21 22  1  0  0  0  0
 21 46  1  0  0  0  0
 22 23  2  0  0  0  0
 22 47  1  0  0  0  0
 23 24  1  0  0  0  0
 23 48  1  0  0  0  0
 24 25  2  0  0  0  0
 24 49  1  0  0  0  0
 25 26  1  0  0  0  0
 26 27  1  0  0  0  0
 26 50  1  0  0  0  0
 26 51  1  0  0  0  0
 27 28  2  0  0  0  0
 27 32  1  0  0  0  0
 28 29  1  0  0  0  0
 28 52  1  0  0  0  0
 29 30  2  0  0  0  0
 29 53  1  0  0  0  0
 30 31  1  0  0  0  0
 30 54  1  0  0  0  0
 31 32  2  0  0  0  0
 31 55  1  0  0  0  0
 32 56  1  0  0  0  0
 33 57  1  0  0  0  0
M  END
$$$$
