709
 OpenBabel04121316063D

 41 43  0  0  0  0  0  0  0  0999 V2000
    0.9252    0.0022   -0.1803 O   0  0  0  0  0  0  0  0  0  0  0  0
    2.1636   -0.0274   -0.1041 C   0  0  0  0  0  0  0  0  0  0  0  0
    2.8518    1.0287    0.6819 C   0  0  0  0  0  0  0  0  0  0  0  0
    2.6258    2.3589    0.3060 C   0  0  0  0  0  0  0  0  0  0  0  0
    3.0129    3.3894    1.1600 C   0  0  0  0  0  0  0  0  0  0  0  0
    3.8381    3.1177    2.2495 C   0  0  0  0  0  0  0  0  0  0  0  0
    4.1623    1.8009    2.5513 C   0  0  0  0  0  0  0  0  0  0  0  0
    3.5714    0.7424    1.8594 C   0  0  0  0  0  0  0  0  0  0  0  0
    3.6510   -0.6347    2.4347 C   0  0  0  0  0  0  0  0  0  0  0  0
    5.0324    1.5126    3.5645 O   0  0  0  0  0  0  0  0  0  0  0  0
    2.8774   -1.0366   -0.7108 N   0  0  0  0  0  0  0  0  0  0  0  0
    4.2773   -1.0862   -0.8376 C   0  0  0  0  0  0  0  0  0  0  0  0
    4.9650   -2.0791   -0.1444 C   0  0  0  0  0  0  0  0  0  0  0  0
    6.3480   -1.9934    0.0000 C   0  0  0  0  0  0  0  0  0  0  0  0
    7.0650   -1.0443   -0.7188 C   0  0  0  0  0  0  0  0  0  0  0  0
    6.3948   -0.1793   -1.5863 C   0  0  0  0  0  0  0  0  0  0  0  0
    4.9825   -0.1593   -1.6117 C   0  0  0  0  0  0  0  0  0  0  0  0
    4.3248    0.7276   -2.4708 C   0  0  0  0  0  0  0  0  0  0  0  0
    5.0351    1.4275   -3.4362 C   0  0  0  0  0  0  0  0  0  0  0  0
    6.4250    1.2813   -3.4921 C   0  0  0  0  0  0  0  0  0  0  0  0
    7.1070    0.6118   -2.4814 C   0  0  0  0  0  0  0  0  0  0  0  0
    4.3264    2.3381   -4.3782 C   0  0  0  0  0  0  0  0  0  0  0  0
    3.0626    2.6203   -4.3079 N   0  0  0  0  0  0  0  0  0  0  0  0
    5.0050    2.9537   -5.3756 N   0  0  0  0  0  0  0  0  0  0  0  0
    2.1100    2.5940   -0.6225 H   0  0  0  0  0  0  0  0  0  0  0  0
    2.6574    4.4006    0.9818 H   0  0  0  0  0  0  0  0  0  0  0  0
    4.1945    3.9348    2.8675 H   0  0  0  0  0  0  0  0  0  0  0  0
    4.1645   -0.6797    3.3968 H   0  0  0  0  0  0  0  0  0  0  0  0
    4.2455   -1.2592    1.8018 H   0  0  0  0  0  0  0  0  0  0  0  0
    2.6564   -1.0720    2.5489 H   0  0  0  0  0  0  0  0  0  0  0  0
    5.4216    2.3354    3.8984 H   0  0  0  0  0  0  0  0  0  0  0  0
    2.3283   -1.7732   -1.1376 H   0  0  0  0  0  0  0  0  0  0  0  0
    4.4147   -2.8152    0.4370 H   0  0  0  0  0  0  0  0  0  0  0  0
    6.8617   -2.6552    0.6909 H   0  0  0  0  0  0  0  0  0  0  0  0
    8.1498   -1.0308   -0.6477 H   0  0  0  0  0  0  0  0  0  0  0  0
    3.2457    0.7945   -2.4237 H   0  0  0  0  0  0  0  0  0  0  0  0
    7.0096    1.6707   -4.3157 H   0  0  0  0  0  0  0  0  0  0  0  0
    8.1922    0.6575   -2.4502 H   0  0  0  0  0  0  0  0  0  0  0  0
    2.5792    2.1427   -3.5480 H   0  0  0  0  0  0  0  0  0  0  0  0
    6.0076    2.9447   -5.4573 H   0  0  0  0  0  0  0  0  0  0  0  0
    4.4953    3.6628   -5.8842 H   0  0  0  0  0  0  0  0  0  0  0  0
  1  2  2  0  0  0  0
  2  3  1  0  0  0  0
  2 11  1  0  0  0  0
  3  4  2  0  0  0  0
  3  8  1  0  0  0  0
  4  5  1  0  0  0  0
  4 25  1  0  0  0  0
  5  6  2  0  0  0  0
  5 26  1  0  0  0  0
  6  7  1  0  0  0  0
  6 27  1  0  0  0  0
  7  8  2  0  0  0  0
  7 10  1  0  0  0  0
  8  9  1  0  0  0  0
  9 28  1  0  0  0  0
  9 29  1  0  0  0  0
  9 30  1  0  0  0  0
 10 31  1  0  0  0  0
 11 12  1  0  0  0  0
 11 32  1  0  0  0  0
 12 13  2  0  0  0  0
 12 17  1  0  0  0  0
 13 14  1  0  0  0  0
 13 33  1  0  0  0  0
 14 15  2  0  0  0  0
 14 34  1  0  0  0  0
 15 16  1  0  0  0  0
 15 35  1  0  0  0  0
 16 17  2  0  0  0  0
 16 21  1  0  0  0  0
 17 18  1  0  0  0  0
 18 19  2  0  0  0  0
 18 36  1  0  0  0  0
 19 20  1  0  0  0  0
 19 22  1  0  0  0  0
 20 21  2  0  0  0  0
 20 37  1  0  0  0  0
 21 38  1  0  0  0  0
 22 23  2  0  0  0  0
 22 24  1  0  0  0  0
 23 39  1  0  0  0  0
 24 40  1  0  0  0  0
 24 41  1  0  0  0  0
M  END
$$$$
