714
 OpenBabel04121316063D

 53 53  0  0  0  0  0  0  0  0999 V2000
    0.9472    0.0517   -0.0611 C   0  0  0  0  0  0  0  0  0  0  0  0
    2.4642    0.0518   -0.0707 C   0  0  0  0  0  0  0  0  0  0  0  0
    2.9906    0.0716   -1.5003 C   0  0  0  0  0  0  0  0  0  0  0  0
    4.5125    0.0718   -1.5139 C   0  0  0  0  0  0  0  0  0  0  0  0
    5.0320    0.0920   -2.9452 C   0  0  0  0  0  0  0  0  0  0  0  0
    6.5530    0.0940   -2.9518 C   0  0  0  0  0  0  0  0  0  0  0  0
    7.0879    0.1211   -4.3740 C   0  0  0  0  0  0  0  0  0  0  0  0
    8.6079    0.1426   -4.3646 C   0  0  0  0  0  0  0  0  0  0  0  0
    9.0437    0.2052   -5.7205 O   0  0  0  0  0  0  0  0  0  0  0  0
   10.4053    0.2560   -5.8120 C   0  0  0  0  0  0  0  0  0  0  0  0
   11.0565    1.4273   -6.0949 C   0  0  0  0  0  0  0  0  0  0  0  0
   12.4119    1.3803   -6.4302 C   0  0  0  0  0  0  0  0  0  0  0  0
   13.0239    0.1399   -6.6139 C   0  0  0  0  0  0  0  0  0  0  0  0
   12.3669   -0.9951   -6.3152 N   0  3  0  0  0  0  0  0  0  0  0  0
   11.1043   -0.9236   -5.8110 C   0  0  0  0  0  0  0  0  0  0  0  0
   12.9795   -2.2936   -6.7255 C   0  0  0  0  0  0  0  0  0  0  0  0
   12.0411   -3.4845   -6.5679 C   0  0  0  0  0  0  0  0  0  0  0  0
   10.4956   -3.2760   -7.5255 P   0  0  0  0  0  0  0  0  0  0  0  0
   11.1645   -2.3343   -8.5147 O   0  0  0  0  0  0  0  0  0  0  0  0
   10.6149   -4.7929   -8.1097 O   0  0  0  0  0  0  0  0  0  0  0  0
    9.0346   -3.0788   -8.4307 O   0  0  0  0  0  0  0  0  0  0  0  0
   12.8271   -5.0748   -7.0172 P   0  0  0  0  0  0  0  0  0  0  0  0
   13.8238   -4.3622   -7.9238 O   0  0  0  0  0  0  0  0  0  0  0  0
   13.5085   -5.2213   -5.5390 O   0  0  0  0  0  0  0  0  0  0  0  0
   13.5703   -6.5782   -7.4420 O   0  0  0  0  0  0  0  0  0  0  0  0
    0.5742    0.0375    0.9665 H   0  0  0  0  0  0  0  0  0  0  0  0
    0.5564   -0.8282   -0.5820 H   0  0  0  0  0  0  0  0  0  0  0  0
    0.5564    0.9458   -0.5574 H   0  0  0  0  0  0  0  0  0  0  0  0
    2.8344   -0.8383    0.4513 H   0  0  0  0  0  0  0  0  0  0  0  0
    2.8344    0.9272    0.4758 H   0  0  0  0  0  0  0  0  0  0  0  0
    2.6173    0.9616   -2.0219 H   0  0  0  0  0  0  0  0  0  0  0  0
    2.6173   -0.8034   -2.0464 H   0  0  0  0  0  0  0  0  0  0  0  0
    4.8896   -0.8183   -0.9953 H   0  0  0  0  0  0  0  0  0  0  0  0
    4.8894    0.9472   -0.9706 H   0  0  0  0  0  0  0  0  0  0  0  0
    4.6564    0.9820   -3.4648 H   0  0  0  0  0  0  0  0  0  0  0  0
    4.6579   -0.7837   -3.4897 H   0  0  0  0  0  0  0  0  0  0  0  0
    6.9264   -0.7971   -2.4321 H   0  0  0  0  0  0  0  0  0  0  0  0
    6.9237    0.9681   -2.4027 H   0  0  0  0  0  0  0  0  0  0  0  0
    6.7105    0.9999   -4.9114 H   0  0  0  0  0  0  0  0  0  0  0  0
    6.7283   -0.7513   -4.9355 H   0  0  0  0  0  0  0  0  0  0  0  0
    8.9851   -0.7677   -3.8803 H   0  0  0  0  0  0  0  0  0  0  0  0
    8.9738    1.0223   -3.8244 H   0  0  0  0  0  0  0  0  0  0  0  0
   10.5219    2.3730   -6.0726 H   0  0  0  0  0  0  0  0  0  0  0  0
   12.9634    2.2938   -6.6079 H   0  0  0  0  0  0  0  0  0  0  0  0
   14.0317    0.0474   -7.0219 H   0  0  0  0  0  0  0  0  0  0  0  0
   10.5994   -1.8200   -5.4970 H   0  0  0  0  0  0  0  0  0  0  0  0
   13.8915   -2.4118   -6.1312 H   0  0  0  0  0  0  0  0  0  0  0  0
   13.2964   -2.1417   -7.7691 H   0  0  0  0  0  0  0  0  0  0  0  0
   11.7275   -3.5871   -5.5227 H   0  0  0  0  0  0  0  0  0  0  0  0
   10.1899   -5.5502   -7.6516 H   0  0  0  0  0  0  0  0  0  0  0  0
    8.9346   -2.1539   -8.7365 H   0  0  0  0  0  0  0  0  0  0  0  0
   13.5675   -4.5162   -4.8748 H   0  0  0  0  0  0  0  0  0  0  0  0
   13.7057   -6.6083   -8.4107 H   0  0  0  0  0  0  0  0  0  0  0  0
  1  2  1  0  0  0  0
  1 26  1  0  0  0  0
  1 27  1  0  0  0  0
  1 28  1  0  0  0  0
  2  3  1  0  0  0  0
  2 29  1  0  0  0  0
  2 30  1  0  0  0  0
  3  4  1  0  0  0  0
  3 31  1  0  0  0  0
  3 32  1  0  0  0  0
  4  5  1  0  0  0  0
  4 33  1  0  0  0  0
  4 34  1  0  0  0  0
  5  6  1  0  0  0  0
  5 35  1  0  0  0  0
  5 36  1  0  0  0  0
  6  7  1  0  0  0  0
  6 37  1  0  0  0  0
  6 38  1  0  0  0  0
  7  8  1  0  0  0  0
  7 39  1  0  0  0  0
  7 40  1  0  0  0  0
  8  9  1  0  0  0  0
  8 41  1  0  0  0  0
  8 42  1  0  0  0  0
  9 10  1  0  0  0  0
 10 11  2  0  0  0  0
 10 15  1  0  0  0  0
 11 12  1  0  0  0  0
 11 43  1  0  0  0  0
 12 13  2  0  0  0  0
 12 44  1  0  0  0  0
 13 14  1  0  0  0  0
 13 45  1  0  0  0  0
 14 15  2  0  0  0  0
 14 16  1  0  0  0  0
 15 46  1  0  0  0  0
 16 17  1  0  0  0  0
 16 47  1  0  0  0  0
 16 48  1  0  0  0  0
 17 18  1  0  0  0  0
 17 22  1  0  0  0  0
 17 49  1  0  0  0  0
 18 19  2  0  0  0  0
 18 20  1  0  0  0  0
 18 21  1  0  0  0  0
 20 50  1  0  0  0  0
 21 51  1  0  0  0  0
 22 23  2  0  0  0  0
 22 24  1  0  0  0  0
 22 25  1  0  0  0  0
 24 52  1  0  0  0  0
 25 53  1  0  0  0  0
M  CHG  1  14   1
M  END
$$$$
