722
 OpenBabel04121316063D

 50 50  0  0  0  0  0  0  0  0999 V2000
    0.9201   -0.0052   -0.0967 C   0  0  0  0  0  0  0  0  0  0  0  0
    2.4369    0.0002   -0.0920 C   0  0  0  0  0  0  0  0  0  0  0  0
    2.9669    1.0576    0.8668 C   0  0  0  0  0  0  0  0  0  0  0  0
    4.4901    1.0615    0.8713 C   0  0  0  0  0  0  0  0  0  0  0  0
    5.0059    2.1164    1.8333 C   0  0  0  0  0  0  0  0  0  0  0  0
    6.5273    2.1337    1.8741 C   0  0  0  0  0  0  0  0  0  0  0  0
    6.9633    3.1959    2.8702 C   0  0  0  0  0  0  0  0  0  0  0  0
    8.3745    3.1600    3.0318 O   0  0  0  0  0  0  0  0  0  0  0  0
    8.8272    4.1307    3.8835 C   0  0  0  0  0  0  0  0  0  0  0  0
    8.6134    5.4776    3.6610 C   0  0  0  0  0  0  0  0  0  0  0  0
    9.3027    6.3934    4.4396 C   0  0  0  0  0  0  0  0  0  0  0  0
   10.3498    5.9531    5.2473 C   0  0  0  0  0  0  0  0  0  0  0  0
   10.6345    4.6274    5.3602 N   0  3  0  0  0  0  0  0  0  0  0  0
    9.7384    3.7299    4.8593 C   0  0  0  0  0  0  0  0  0  0  0  0
   12.0223    4.2428    5.8864 C   0  0  0  0  0  0  0  0  0  0  0  0
   12.4585    2.8097    5.6309 C   0  0  0  0  0  0  0  0  0  0  0  0
   12.2981    2.0895    4.0168 P   0  0  0  0  0  0  0  0  0  0  0  0
   11.6065    0.7704    4.1438 O   0  0  0  0  0  0  0  0  0  0  0  0
   11.4964    3.1245    3.1084 O   0  0  0  0  0  0  0  0  0  0  0  0
   13.5801    1.9613    3.0962 O   0  0  0  0  0  0  0  0  0  0  0  0
   13.4542    2.1217    6.9547 P   0  0  0  0  0  0  0  0  0  0  0  0
   12.8626    2.4008    8.2757 O   0  0  0  0  0  0  0  0  0  0  0  0
   13.5571    0.5667    6.5728 O   0  0  0  0  0  0  0  0  0  0  0  0
   14.9713    2.6173    6.8465 O   0  0  0  0  0  0  0  0  0  0  0  0
    0.5463   -0.7663   -0.7868 H   0  0  0  0  0  0  0  0  0  0  0  0
    0.5299    0.9678   -0.4118 H   0  0  0  0  0  0  0  0  0  0  0  0
    0.5299   -0.2241    0.9024 H   0  0  0  0  0  0  0  0  0  0  0  0
    2.8065    0.1975   -1.1049 H   0  0  0  0  0  0  0  0  0  0  0  0
    2.8065   -0.9887    0.2033 H   0  0  0  0  0  0  0  0  0  0  0  0
    2.5942    0.8618    1.8802 H   0  0  0  0  0  0  0  0  0  0  0  0
    2.5947    2.0473    0.5735 H   0  0  0  0  0  0  0  0  0  0  0  0
    4.8666    1.2648   -0.1381 H   0  0  0  0  0  0  0  0  0  0  0  0
    4.8646    0.0751    1.1694 H   0  0  0  0  0  0  0  0  0  0  0  0
    4.6171    1.9192    2.8405 H   0  0  0  0  0  0  0  0  0  0  0  0
    4.6329    3.1049    1.5356 H   0  0  0  0  0  0  0  0  0  0  0  0
    6.9384    2.3501    0.8791 H   0  0  0  0  0  0  0  0  0  0  0  0
    6.9236    1.1521    2.1605 H   0  0  0  0  0  0  0  0  0  0  0  0
    6.5117    2.9951    3.8468 H   0  0  0  0  0  0  0  0  0  0  0  0
    6.6255    4.1694    2.5009 H   0  0  0  0  0  0  0  0  0  0  0  0
    7.9507    5.8246    2.8715 H   0  0  0  0  0  0  0  0  0  0  0  0
    9.0799    7.4535    4.3432 H   0  0  0  0  0  0  0  0  0  0  0  0
   11.0043    6.6559    5.7541 H   0  0  0  0  0  0  0  0  0  0  0  0
    9.8652    2.6680    5.0462 H   0  0  0  0  0  0  0  0  0  0  0  0
   11.9832    4.4783    6.9563 H   0  0  0  0  0  0  0  0  0  0  0  0
   12.7217    4.9439    5.4126 H   0  0  0  0  0  0  0  0  0  0  0  0
   11.5824    2.2998    6.0381 H   0  0  0  0  0  0  0  0  0  0  0  0
   11.7758    4.0582    3.0629 H   0  0  0  0  0  0  0  0  0  0  0  0
   13.3397    1.3981    2.3162 H   0  0  0  0  0  0  0  0  0  0  0  0
   12.9839    0.2047    5.8623 H   0  0  0  0  0  0  0  0  0  0  0  0
   15.4639    2.3447    7.6585 H   0  0  0  0  0  0  0  0  0  0  0  0
  1  2  1  0  0  0  0
  1 25  1  0  0  0  0
  1 26  1  0  0  0  0
  1 27  1  0  0  0  0
  2  3  1  0  0  0  0
  2 28  1  0  0  0  0
  2 29  1  0  0  0  0
  3  4  1  0  0  0  0
  3 30  1  0  0  0  0
  3 31  1  0  0  0  0
  4  5  1  0  0  0  0
  4 32  1  0  0  0  0
  4 33  1  0  0  0  0
  5  6  1  0  0  0  0
  5 34  1  0  0  0  0
  5 35  1  0  0  0  0
  6  7  1  0  0  0  0
  6 36  1  0  0  0  0
  6 37  1  0  0  0  0
  7  8  1  0  0  0  0
  7 38  1  0  0  0  0
  7 39  1  0  0  0  0
  8  9  1  0  0  0  0
  9 10  2  0  0  0  0
  9 14  1  0  0  0  0
 10 11  1  0  0  0  0
 10 40  1  0  0  0  0
 11 12  2  0  0  0  0
 11 41  1  0  0  0  0
 12 13  1  0  0  0  0
 12 42  1  0  0  0  0
 13 14  2  0  0  0  0
 13 15  1  0  0  0  0
 14 43  1  0  0  0  0
 15 16  1  0  0  0  0
 15 44  1  0  0  0  0
 15 45  1  0  0  0  0
 16 17  1  0  0  0  0
 16 21  1  0  0  0  0
 16 46  1  0  0  0  0
 17 18  2  0  0  0  0
 17 19  1  0  0  0  0
 17 20  1  0  0  0  0
 19 47  1  0  0  0  0
 20 48  1  0  0  0  0
 21 22  2  0  0  0  0
 21 23  1  0  0  0  0
 21 24  1  0  0  0  0
 23 49  1  0  0  0  0
 24 50  1  0  0  0  0
M  CHG  1  13   1
M  END
$$$$
