732
 OpenBabel04121316063D

 49 51  0  0  1  0  0  0  0  0999 V2000
    4.1996    2.7866    2.2010 C   0  0  0  0  0  0  0  0  0  0  0  0
    3.7924    2.2376    0.9150 N   0  0  0  0  0  0  0  0  0  0  0  0
    4.7923    1.8457    0.0602 C   0  0  0  0  0  0  0  0  0  0  0  0
    5.9094    2.3348    0.2740 O   0  0  0  0  0  0  0  0  0  0  0  0
    4.4597    0.7002   -1.1206 C   0  0  2  0  0  0  0  0  0  0  0  0
    3.3724    0.6343   -1.2494 H   0  0  0  0  0  0  0  0  0  0  0  0
    5.2017   -0.7351   -1.1083 C   0  0  0  0  0  0  0  0  0  0  0  0
    6.2185   -0.4096   -0.0405 C   0  0  0  0  0  0  0  0  0  0  0  0
    5.4688   -0.4963    1.3028 C   0  0  0  0  0  0  0  0  0  0  0  0
    5.5526   -1.9312    1.6899 C   0  0  0  0  0  0  0  0  0  0  0  0
    4.7911   -2.7190    0.6239 C   0  0  0  0  0  0  0  0  0  0  0  0
    5.1248   -2.2721   -0.8029 C   0  0  0  0  0  0  0  0  0  0  0  0
    5.0390    1.4163   -2.3027 N   0  0  0  0  0  0  0  0  0  0  0  0
    6.4199    1.4665   -2.6005 C   0  0  0  0  0  0  0  0  0  0  0  0
    7.3249    0.8673   -2.0823 O   0  0  0  0  0  0  0  0  0  0  0  0
    6.7173    2.3479   -3.6777 C   0  0  0  0  0  0  0  0  0  0  0  0
    6.5917    3.7081   -3.7458 C   0  0  0  0  0  0  0  0  0  0  0  0
    7.1005    4.0597   -4.9983 C   0  0  0  0  0  0  0  0  0  0  0  0
    7.5698    2.9017   -5.5887 C   0  0  0  0  0  0  0  0  0  0  0  0
    7.3438    1.8397   -4.7760 O   0  0  0  0  0  0  0  0  0  0  0  0
    8.1606    2.6632   -6.8899 C   0  0  0  0  0  0  0  0  0  0  0  0
    8.5174    3.7940   -7.6380 C   0  0  0  0  0  0  0  0  0  0  0  0
    8.8147    3.6906   -8.9875 C   0  0  0  0  0  0  0  0  0  0  0  0
    8.9070    2.4315   -9.5637 C   0  0  0  0  0  0  0  0  0  0  0  0
    8.7185    1.2823   -8.7936 C   0  0  0  0  0  0  0  0  0  0  0  0
    8.2881    1.3957   -7.4671 C   0  0  0  0  0  0  0  0  0  0  0  0
    9.2281    2.3049  -11.2466 Cl  0  0  0  0  0  0  0  0  0  0  0  0
    3.3584    3.2793    2.6838 H   0  0  0  0  0  0  0  0  0  0  0  0
    5.0317    3.4935    2.0917 H   0  0  0  0  0  0  0  0  0  0  0  0
    4.5611    1.9620    2.8285 H   0  0  0  0  0  0  0  0  0  0  0  0
    2.8224    2.0916    0.6856 H   0  0  0  0  0  0  0  0  0  0  0  0
    5.4237   -0.8506   -2.1825 H   0  0  0  0  0  0  0  0  0  0  0  0
    6.6150    0.5616   -0.2013 H   0  0  0  0  0  0  0  0  0  0  0  0
    7.1455   -0.9783   -0.0855 H   0  0  0  0  0  0  0  0  0  0  0  0
    4.3880   -0.2606    1.2461 H   0  0  0  0  0  0  0  0  0  0  0  0
    5.9041    0.1730    2.0420 H   0  0  0  0  0  0  0  0  0  0  0  0
    5.1368   -2.0803    2.6868 H   0  0  0  0  0  0  0  0  0  0  0  0
    6.6181   -2.1852    1.7128 H   0  0  0  0  0  0  0  0  0  0  0  0
    3.7147   -2.5828    0.7464 H   0  0  0  0  0  0  0  0  0  0  0  0
    5.0269   -3.7798    0.7599 H   0  0  0  0  0  0  0  0  0  0  0  0
    4.5981   -2.8765   -1.5479 H   0  0  0  0  0  0  0  0  0  0  0  0
    6.1765   -2.6149   -0.9580 H   0  0  0  0  0  0  0  0  0  0  0  0
    4.4083    1.8822   -2.9347 H   0  0  0  0  0  0  0  0  0  0  0  0
    6.2021    4.3443   -2.9645 H   0  0  0  0  0  0  0  0  0  0  0  0
    7.1286    5.0438   -5.4332 H   0  0  0  0  0  0  0  0  0  0  0  0
    8.5212    4.7785   -7.1778 H   0  0  0  0  0  0  0  0  0  0  0  0
    8.9564    4.5961   -9.5681 H   0  0  0  0  0  0  0  0  0  0  0  0
    8.8748    0.2999   -9.2297 H   0  0  0  0  0  0  0  0  0  0  0  0
    8.0277    0.4975   -6.9090 H   0  0  0  0  0  0  0  0  0  0  0  0
  1  2  1  0  0  0  0
  1 28  1  0  0  0  0
  1 29  1  0  0  0  0
  1 30  1  0  0  0  0
  2  3  1  0  0  0  0
  2 31  1  0  0  0  0
  3  4  2  0  0  0  0
  5  7  1  0  0  0  0
  5 13  1  0  0  0  0
  5  6  1  6  0  0  0
  5  3  1  0  0  0  0
  7  8  1  0  0  0  0
  7 12  1  0  0  0  0
  7 32  1  0  0  0  0
  8  9  1  0  0  0  0
  8 33  1  0  0  0  0
  8 34  1  0  0  0  0
  9 10  1  0  0  0  0
  9 35  1  0  0  0  0
  9 36  1  0  0  0  0
 10 11  1  0  0  0  0
 10 37  1  0  0  0  0
 10 38  1  0  0  0  0
 11 12  1  0  0  0  0
 11 39  1  0  0  0  0
 11 40  1  0  0  0  0
 12 41  1  0  0  0  0
 12 42  1  0  0  0  0
 13 14  1  0  0  0  0
 13 43  1  0  0  0  0
 14 15  2  0  0  0  0
 14 16  1  0  0  0  0
 16 17  2  0  0  0  0
 16 20  1  0  0  0  0
 17 18  1  0  0  0  0
 17 44  1  0  0  0  0
 18 19  2  0  0  0  0
 18 45  1  0  0  0  0
 19 20  1  0  0  0  0
 19 21  1  0  0  0  0
 21 22  2  0  0  0  0
 21 26  1  0  0  0  0
 22 23  1  0  0  0  0
 22 46  1  0  0  0  0
 23 24  2  0  0  0  0
 23 47  1  0  0  0  0
 24 25  1  0  0  0  0
 24 27  1  0  0  0  0
 25 26  2  0  0  0  0
 25 48  1  0  0  0  0
 26 49  1  0  0  0  0
M  END
$$$$
