73V
 OpenBabel04121316063D

 69 71  0  0  1  0  0  0  0  0999 V2000
   13.6700   10.4827   -4.7332 C   0  0  0  0  0  0  0  0  0  0  0  0
   12.2402   10.4881   -4.2145 C   0  0  0  0  0  0  0  0  0  0  0  0
   12.2273   10.4503   -2.6946 C   0  0  0  0  0  0  0  0  0  0  0  0
   10.9008   10.6016   -2.1289 N   0  0  0  0  0  0  0  0  0  0  0  0
   10.7612   10.5696   -0.7558 C   0  0  0  0  0  0  0  0  0  0  0  0
   11.6792   10.2677   -0.0006 O   0  0  0  0  0  0  0  0  0  0  0  0
    9.4181   10.8089   -0.1621 C   0  0  1  0  0  0  0  0  0  0  0  0
    9.3493   11.5497    0.6125 H   0  0  0  0  0  0  0  0  0  0  0  0
    8.2600   10.4435   -0.9135 O   0  0  0  0  0  0  0  0  0  0  0  0
    8.7210    9.5494    0.1209 C   0  0  2  0  0  0  0  0  0  0  0  0
    9.3511    8.7296   -0.1746 H   0  0  0  0  0  0  0  0  0  0  0  0
    7.7286    9.1838    1.1293 C   0  0  0  0  0  0  0  0  0  0  0  0
    6.5991    9.6850    1.1954 O   0  0  0  0  0  0  0  0  0  0  0  0
    8.0234    8.0778    1.8571 N   0  0  0  0  0  0  0  0  0  0  0  0
    9.1844    7.1739    1.7140 C   0  0  2  0  0  0  0  0  0  0  0  0
   10.0241    7.8429    1.4838 H   0  0  0  0  0  0  0  0  0  0  0  0
    9.1873    6.1319    0.4901 C   0  0  0  0  0  0  0  0  0  0  0  0
    9.7172    5.0240    0.6305 O   0  0  0  0  0  0  0  0  0  0  0  0
    8.9675    6.6006   -0.8024 N   0  0  0  0  0  0  0  0  0  0  0  0
    9.8717    6.2828   -1.8963 C   0  0  0  0  0  0  0  0  0  0  0  0
    9.7816    7.5302   -2.7580 C   0  0  0  0  0  0  0  0  0  0  0  0
    8.3190    7.9664   -2.6475 C   0  0  0  0  0  0  0  0  0  0  0  0
    7.8014    7.2965   -1.3589 C   0  0  1  0  0  0  0  0  0  0  0  0
    7.3639    7.9855   -0.6651 H   0  0  0  0  0  0  0  0  0  0  0  0
    6.6047    6.4090   -1.5842 C   0  0  0  0  0  0  0  0  0  0  0  0
    6.5758    5.1964   -1.4538 O   0  0  0  0  0  0  0  0  0  0  0  0
    5.5321    7.2096   -1.8527 O   0  0  0  0  0  0  0  0  0  0  0  0
    4.3439    6.4505   -1.9962 C   0  0  0  0  0  0  0  0  0  0  0  0
    3.2254    7.3718   -2.3817 C   0  0  0  0  0  0  0  0  0  0  0  0
    3.0208    7.6656   -3.7354 C   0  0  0  0  0  0  0  0  0  0  0  0
    2.0632    8.6000   -4.1159 C   0  0  0  0  0  0  0  0  0  0  0  0
    1.2254    9.1620   -3.1565 C   0  0  0  0  0  0  0  0  0  0  0  0
    1.3522    8.7961   -1.8169 C   0  0  0  0  0  0  0  0  0  0  0  0
    2.3936    7.9574   -1.4192 C   0  0  0  0  0  0  0  0  0  0  0  0
    9.5905    6.4841    3.0638 C   0  0  2  0  0  0  0  0  0  0  0  0
    9.8441    5.4314    2.8939 H   0  0  0  0  0  0  0  0  0  0  0  0
    8.4869    6.5064    4.1305 C   0  0  0  0  0  0  0  0  0  0  0  0
    7.2322    5.7632    3.6730 C   0  0  0  0  0  0  0  0  0  0  0  0
   10.8829    7.1134    3.6230 C   0  0  0  0  0  0  0  0  0  0  0  0
   13.6818   10.5299   -5.8259 H   0  0  0  0  0  0  0  0  0  0  0  0
   14.1962    9.5737   -4.4232 H   0  0  0  0  0  0  0  0  0  0  0  0
   14.2253   11.3448   -4.3483 H   0  0  0  0  0  0  0  0  0  0  0  0
   11.6980    9.6261   -4.6208 H   0  0  0  0  0  0  0  0  0  0  0  0
   11.7259   11.3881   -4.5689 H   0  0  0  0  0  0  0  0  0  0  0  0
   12.8236   11.2745   -2.2881 H   0  0  0  0  0  0  0  0  0  0  0  0
   12.6765    9.5158   -2.3321 H   0  0  0  0  0  0  0  0  0  0  0  0
   10.0831   10.5933   -2.7306 H   0  0  0  0  0  0  0  0  0  0  0  0
    7.2674    7.8514    2.4887 H   0  0  0  0  0  0  0  0  0  0  0  0
    9.4874    5.4228   -2.4471 H   0  0  0  0  0  0  0  0  0  0  0  0
   10.8915    6.0935   -1.5474 H   0  0  0  0  0  0  0  0  0  0  0  0
   10.1015    7.4168   -3.7952 H   0  0  0  0  0  0  0  0  0  0  0  0
   10.4419    8.2728   -2.3079 H   0  0  0  0  0  0  0  0  0  0  0  0
    7.7374    7.6904   -3.5283 H   0  0  0  0  0  0  0  0  0  0  0  0
    8.2826    9.0581   -2.6261 H   0  0  0  0  0  0  0  0  0  0  0  0
    4.1129    5.9286   -1.0615 H   0  0  0  0  0  0  0  0  0  0  0  0
    4.5030    5.7211   -2.7961 H   0  0  0  0  0  0  0  0  0  0  0  0
    3.6163    7.1672   -4.4965 H   0  0  0  0  0  0  0  0  0  0  0  0
    1.9671    8.8798   -5.1606 H   0  0  0  0  0  0  0  0  0  0  0  0
    0.4705    9.8836   -3.4549 H   0  0  0  0  0  0  0  0  0  0  0  0
    0.6452    9.1727   -1.0824 H   0  0  0  0  0  0  0  0  0  0  0  0
    2.5442    7.7591   -0.3599 H   0  0  0  0  0  0  0  0  0  0  0  0
    8.2579    7.5446    4.4067 H   0  0  0  0  0  0  0  0  0  0  0  0
    8.8527    6.0306    5.0483 H   0  0  0  0  0  0  0  0  0  0  0  0
    6.8104    6.1074    2.7255 H   0  0  0  0  0  0  0  0  0  0  0  0
    6.4446    5.8721    4.4213 H   0  0  0  0  0  0  0  0  0  0  0  0
    7.4555    4.7066    3.5152 H   0  0  0  0  0  0  0  0  0  0  0  0
   11.2145    6.5954    4.5304 H   0  0  0  0  0  0  0  0  0  0  0  0
   10.7432    8.1713    3.8673 H   0  0  0  0  0  0  0  0  0  0  0  0
   11.6990    7.0377    2.8937 H   0  0  0  0  0  0  0  0  0  0  0  0
  1  2  1  0  0  0  0
  1 40  1  0  0  0  0
  1 41  1  0  0  0  0
  1 42  1  0  0  0  0
  2  3  1  0  0  0  0
  2 43  1  0  0  0  0
  2 44  1  0  0  0  0
  3  4  1  0  0  0  0
  3 45  1  0  0  0  0
  3 46  1  0  0  0  0
  4  5  1  0  0  0  0
  4 47  1  0  0  0  0
  5  6  2  0  0  0  0
  5  7  1  0  0  0  0
  7  8  1  1  0  0  0
  7  9  1  0  0  0  0
  7 10  1  0  0  0  0
  9 10  1  0  0  0  0
 10 11  1  6  0  0  0
 10 12  1  0  0  0  0
 12 13  2  0  0  0  0
 12 14  1  0  0  0  0
 14 48  1  0  0  0  0
 15 17  1  0  0  0  0
 15 16  1  6  0  0  0
 15 14  1  0  0  0  0
 17 18  2  0  0  0  0
 17 19  1  0  0  0  0
 19 20  1  0  0  0  0
 19 23  1  0  0  0  0
 20 21  1  0  0  0  0
 20 49  1  0  0  0  0
 20 50  1  0  0  0  0
 21 22  1  0  0  0  0
 21 51  1  0  0  0  0
 21 52  1  0  0  0  0
 22 23  1  0  0  0  0
 22 53  1  0  0  0  0
 22 54  1  0  0  0  0
 23 25  1  0  0  0  0
 23 24  1  1  0  0  0
 25 26  2  0  0  0  0
 25 27  1  0  0  0  0
 27 28  1  0  0  0  0
 28 29  1  0  0  0  0
 28 55  1  0  0  0  0
 28 56  1  0  0  0  0
 29 30  2  0  0  0  0
 29 34  1  0  0  0  0
 30 31  1  0  0  0  0
 30 57  1  0  0  0  0
 31 32  2  0  0  0  0
 31 58  1  0  0  0  0
 32 33  1  0  0  0  0
 32 59  1  0  0  0  0
 33 34  2  0  0  0  0
 33 60  1  0  0  0  0
 34 61  1  0  0  0  0
 35 37  1  0  0  0  0
 35 39  1  0  0  0  0
 35 36  1  6  0  0  0
 35 15  1  0  0  0  0
 37 38  1  0  0  0  0
 37 62  1  0  0  0  0
 37 63  1  0  0  0  0
 38 64  1  0  0  0  0
 38 65  1  0  0  0  0
 38 66  1  0  0  0  0
 39 67  1  0  0  0  0
 39 68  1  0  0  0  0
 39 69  1  0  0  0  0
M  END
$$$$
