743
 OpenBabel04121316063D

 59 61  0  0  1  0  0  0  0  0999 V2000
    4.0910    2.1080    7.4059 C   0  0  0  0  0  0  0  0  0  0  0  0
    3.6779    1.3628    6.1604 C   0  0  0  0  0  0  0  0  0  0  0  0
    4.7541    1.4844    5.1010 C   0  0  0  0  0  0  0  0  0  0  0  0
    4.3387    0.8029    3.8163 C   0  0  0  0  0  0  0  0  0  0  0  0
    3.1912    0.1988    3.7792 N   0  0  0  0  0  0  0  0  0  0  0  0
    2.9925   -0.4348    2.5618 O   0  0  0  0  0  0  0  0  0  0  0  0
    1.7311   -1.0739    2.6019 C   0  0  0  0  0  0  0  0  0  0  0  0
    1.5459   -1.6931    1.2597 C   0  0  0  0  0  0  0  0  0  0  0  0
    0.7150   -1.0861    0.3261 C   0  0  0  0  0  0  0  0  0  0  0  0
    0.3958   -1.7612   -0.8424 C   0  0  0  0  0  0  0  0  0  0  0  0
    1.0047   -2.9826   -1.1840 C   0  0  0  0  0  0  0  0  0  0  0  0
    1.9928   -3.4677   -0.3074 C   0  0  0  0  0  0  0  0  0  0  0  0
    2.2170   -2.8685    0.9274 C   0  0  0  0  0  0  0  0  0  0  0  0
    0.5392   -3.7673   -2.3530 C   0  0  0  0  0  0  0  0  0  0  0  0
   -0.4245   -3.2561   -3.2461 C   0  0  0  0  0  0  0  0  0  0  0  0
   -1.0595   -4.0737   -4.1779 C   0  0  0  0  0  0  0  0  0  0  0  0
   -0.6337   -5.3807   -4.3323 C   0  0  0  0  0  0  0  0  0  0  0  0
    0.4145   -5.8790   -3.5781 C   0  0  0  0  0  0  0  0  0  0  0  0
    0.9541   -5.0971   -2.5591 C   0  0  0  0  0  0  0  0  0  0  0  0
   -1.2478   -6.1750   -5.2157 F   0  0  0  0  0  0  0  0  0  0  0  0
    5.3052    0.8016    2.6666 C   0  0  2  0  0  0  0  0  0  0  0  0
    4.7788    0.5284    1.7438 H   0  0  0  0  0  0  0  0  0  0  0  0
    6.3963   -0.2236    2.8378 C   0  0  0  0  0  0  0  0  0  0  0  0
    6.5109   -0.9552    3.8243 O   0  0  0  0  0  0  0  0  0  0  0  0
    7.3850   -0.2915    1.7067 C   0  0  0  0  0  0  0  0  0  0  0  0
    8.0166    1.0970    1.5192 C   0  0  0  0  0  0  0  0  0  0  0  0
    6.8967    2.1478    1.2406 C   0  0  1  0  0  0  0  0  0  0  0  0
    6.3546    1.8901    0.3215 H   0  0  0  0  0  0  0  0  0  0  0  0
    5.8922    2.1538    2.3543 C   0  0  0  0  0  0  0  0  0  0  0  0
    5.5245    3.1957    2.8876 O   0  0  0  0  0  0  0  0  0  0  0  0
    7.5129    3.4445    1.0855 C   0  0  0  0  0  0  0  0  0  0  0  0
    8.0040    4.4781    0.9619 N   0  0  0  0  0  0  0  0  0  0  0  0
    8.9719    1.0070    0.3127 C   0  0  0  0  0  0  0  0  0  0  0  0
    8.8292    1.4777    2.7851 C   0  0  0  0  0  0  0  0  0  0  0  0
    3.3098    2.0209    8.1631 H   0  0  0  0  0  0  0  0  0  0  0  0
    4.2481    3.1686    7.1841 H   0  0  0  0  0  0  0  0  0  0  0  0
    5.0227    1.6966    7.8050 H   0  0  0  0  0  0  0  0  0  0  0  0
    2.7383    1.7826    5.7787 H   0  0  0  0  0  0  0  0  0  0  0  0
    3.4967    0.3068    6.3901 H   0  0  0  0  0  0  0  0  0  0  0  0
    5.7022    1.0520    5.4382 H   0  0  0  0  0  0  0  0  0  0  0  0
    4.9260    2.5455    4.9168 H   0  0  0  0  0  0  0  0  0  0  0  0
    0.9411   -0.3421    2.8071 H   0  0  0  0  0  0  0  0  0  0  0  0
    1.7094   -1.8428    3.3826 H   0  0  0  0  0  0  0  0  0  0  0  0
    0.2669   -0.1150    0.5201 H   0  0  0  0  0  0  0  0  0  0  0  0
   -0.3855   -1.3175   -1.4500 H   0  0  0  0  0  0  0  0  0  0  0  0
    2.5786   -4.3527   -0.5347 H   0  0  0  0  0  0  0  0  0  0  0  0
    2.9017   -3.3331    1.6344 H   0  0  0  0  0  0  0  0  0  0  0  0
   -0.7357   -2.2162   -3.2157 H   0  0  0  0  0  0  0  0  0  0  0  0
   -1.8837   -3.6917   -4.7700 H   0  0  0  0  0  0  0  0  0  0  0  0
    0.7873   -6.8813   -3.7537 H   0  0  0  0  0  0  0  0  0  0  0  0
    1.6810   -5.5741   -1.9085 H   0  0  0  0  0  0  0  0  0  0  0  0
    6.8441   -0.6087    0.8068 H   0  0  0  0  0  0  0  0  0  0  0  0
    8.1458   -1.0480    1.9258 H   0  0  0  0  0  0  0  0  0  0  0  0
    8.4233    0.7327   -0.5958 H   0  0  0  0  0  0  0  0  0  0  0  0
    9.7438    0.2498    0.4830 H   0  0  0  0  0  0  0  0  0  0  0  0
    9.4827    1.9560    0.1197 H   0  0  0  0  0  0  0  0  0  0  0  0
    8.1883    1.5684    3.6702 H   0  0  0  0  0  0  0  0  0  0  0  0
    9.3427    2.4381    2.6675 H   0  0  0  0  0  0  0  0  0  0  0  0
    9.5911    0.7246    3.0052 H   0  0  0  0  0  0  0  0  0  0  0  0
  1  2  1  0  0  0  0
  1 35  1  0  0  0  0
  1 36  1  0  0  0  0
  1 37  1  0  0  0  0
  2  3  1  0  0  0  0
  2 38  1  0  0  0  0
  2 39  1  0  0  0  0
  3  4  1  0  0  0  0
  3 40  1  0  0  0  0
  3 41  1  0  0  0  0
  4  5  2  0  0  0  0
  5  6  1  0  0  0  0
  6  7  1  0  0  0  0
  7  8  1  0  0  0  0
  7 42  1  0  0  0  0
  7 43  1  0  0  0  0
  8  9  2  0  0  0  0
  8 13  1  0  0  0  0
  9 10  1  0  0  0  0
  9 44  1  0  0  0  0
 10 11  2  0  0  0  0
 10 45  1  0  0  0  0
 11 12  1  0  0  0  0
 11 14  1  0  0  0  0
 12 13  2  0  0  0  0
 12 46  1  0  0  0  0
 13 47  1  0  0  0  0
 14 15  2  0  0  0  0
 14 19  1  0  0  0  0
 15 16  1  0  0  0  0
 15 48  1  0  0  0  0
 16 17  2  0  0  0  0
 16 49  1  0  0  0  0
 17 18  1  0  0  0  0
 17 20  1  0  0  0  0
 18 19  2  0  0  0  0
 18 50  1  0  0  0  0
 19 51  1  0  0  0  0
 21 23  1  0  0  0  0
 21 29  1  0  0  0  0
 21 22  1  6  0  0  0
 21  4  1  0  0  0  0
 23 24  2  0  0  0  0
 23 25  1  0  0  0  0
 25 26  1  0  0  0  0
 25 52  1  0  0  0  0
 25 53  1  0  0  0  0
 26 27  1  0  0  0  0
 26 33  1  0  0  0  0
 26 34  1  0  0  0  0
 27 28  1  6  0  0  0
 27 29  1  0  0  0  0
 27 31  1  0  0  0  0
 29 30  2  0  0  0  0
 31 32  3  0  0  0  0
 33 54  1  0  0  0  0
 33 55  1  0  0  0  0
 33 56  1  0  0  0  0
 34 57  1  0  0  0  0
 34 58  1  0  0  0  0
 34 59  1  0  0  0  0
M  END
$$$$
