746
 OpenBabel04121316063D

 80 84  0  0  0  0  0  0  0  0999 V2000
    1.0832   -0.2841    0.3672 C   0  0  0  0  0  0  0  0  0  0  0  0
    2.5247   -0.1859    0.1451 C   0  0  0  0  0  0  0  0  0  0  0  0
    3.0989    1.1002    0.1395 C   0  0  0  0  0  0  0  0  0  0  0  0
    4.4817    1.1479    0.2493 C   0  0  0  0  0  0  0  0  0  0  0  0
    5.1947   -0.0356    0.4803 C   0  0  0  0  0  0  0  0  0  0  0  0
    4.5984   -1.2829    0.2678 C   0  0  0  0  0  0  0  0  0  0  0  0
    3.2394   -1.3796   -0.0095 C   0  0  0  0  0  0  0  0  0  0  0  0
    2.5334   -2.6542   -0.3905 C   0  0  0  0  0  0  0  0  0  0  0  0
    3.0750   -3.8187   -0.0472 C   0  0  0  0  0  0  0  0  0  0  0  0
    2.4555   -4.9999   -0.3598 N   0  0  0  0  0  0  0  0  0  0  0  0
    3.1380   -6.2258   -0.0801 C   0  0  0  0  0  0  0  0  0  0  0  0
    1.2195   -5.0335   -0.9790 C   0  0  0  0  0  0  0  0  0  0  0  0
    0.5872   -6.0515   -1.3008 O   0  0  0  0  0  0  0  0  0  0  0  0
    0.6085   -3.6707   -1.3127 C   0  0  0  0  0  0  0  0  0  0  0  0
    1.3295   -2.6018   -1.0671 N   0  0  0  0  0  0  0  0  0  0  0  0
   -0.6892   -3.6963   -1.8869 N   0  0  0  0  0  0  0  0  0  0  0  0
   -1.4792   -2.5881   -2.2313 C   0  0  0  0  0  0  0  0  0  0  0  0
   -2.6330   -2.5749   -3.0009 C   0  0  0  0  0  0  0  0  0  0  0  0
   -3.1658   -1.3414   -3.4822 C   0  0  0  0  0  0  0  0  0  0  0  0
   -2.6187   -0.1133   -3.0975 C   0  0  0  0  0  0  0  0  0  0  0  0
   -1.6518   -0.1470   -2.1344 C   0  0  0  0  0  0  0  0  0  0  0  0
   -1.0863   -1.3505   -1.8053 C   0  0  0  0  0  0  0  0  0  0  0  0
   -3.0767    1.2078   -3.6114 C   0  0  0  0  0  0  0  0  0  0  0  0
   -4.0894    1.2850   -4.2966 O   0  0  0  0  0  0  0  0  0  0  0  0
   -2.3504    2.3188   -3.2093 N   0  0  0  0  0  0  0  0  0  0  0  0
   -0.8922    2.4357   -3.3478 C   0  0  0  0  0  0  0  0  0  0  0  0
   -0.5312    3.6316   -4.2148 C   0  0  0  0  0  0  0  0  0  0  0  0
   -1.1137    4.8317   -3.6876 O   0  0  0  0  0  0  0  0  0  0  0  0
   -2.5473    4.7086   -3.6887 C   0  0  0  0  0  0  0  0  0  0  0  0
   -3.0123    3.5468   -2.8216 C   0  0  0  0  0  0  0  0  0  0  0  0
    2.3452    2.3315    0.1567 N   0  0  0  0  0  0  0  0  0  0  0  0
    0.9645    2.5091    0.0684 C   0  0  0  0  0  0  0  0  0  0  0  0
    0.0990    1.7201   -0.3075 O   0  0  0  0  0  0  0  0  0  0  0  0
    0.3025    3.7613    0.3515 C   0  0  0  0  0  0  0  0  0  0  0  0
   -1.1147    3.7398    0.3429 C   0  0  0  0  0  0  0  0  0  0  0  0
   -1.8142    4.9016    0.1758 C   0  0  0  0  0  0  0  0  0  0  0  0
   -1.1140    6.0986    0.1639 C   0  0  0  0  0  0  0  0  0  0  0  0
    0.2749    6.0961    0.4166 C   0  0  0  0  0  0  0  0  0  0  0  0
    1.0046    4.9326    0.4417 C   0  0  0  0  0  0  0  0  0  0  0  0
   -1.8745    7.3707   -0.1435 C   0  0  0  0  0  0  0  0  0  0  0  0
   -2.4298    7.3273   -1.5694 C   0  0  0  0  0  0  0  0  0  0  0  0
   -3.0494    7.4834    0.8346 C   0  0  0  0  0  0  0  0  0  0  0  0
   -0.9411    8.5717   -0.0327 C   0  0  0  0  0  0  0  0  0  0  0  0
    0.8455    0.4650    1.1106 H   0  0  0  0  0  0  0  0  0  0  0  0
    0.6419   -1.1560    0.8386 H   0  0  0  0  0  0  0  0  0  0  0  0
    0.7500   -0.0943   -0.6495 H   0  0  0  0  0  0  0  0  0  0  0  0
    5.0257    2.0849    0.2082 H   0  0  0  0  0  0  0  0  0  0  0  0
    6.2277    0.0004    0.8129 H   0  0  0  0  0  0  0  0  0  0  0  0
    5.2246   -2.1653    0.3312 H   0  0  0  0  0  0  0  0  0  0  0  0
    4.0152   -3.8832    0.4842 H   0  0  0  0  0  0  0  0  0  0  0  0
    4.1085   -6.0309    0.3860 H   0  0  0  0  0  0  0  0  0  0  0  0
    3.2853   -6.7449   -1.0291 H   0  0  0  0  0  0  0  0  0  0  0  0
    2.5099   -6.8115    0.5910 H   0  0  0  0  0  0  0  0  0  0  0  0
   -1.0713   -4.6140   -2.0864 H   0  0  0  0  0  0  0  0  0  0  0  0
   -3.1380   -3.4993   -3.2535 H   0  0  0  0  0  0  0  0  0  0  0  0
   -4.0107   -1.3399   -4.1626 H   0  0  0  0  0  0  0  0  0  0  0  0
   -1.2580    0.7291   -1.6492 H   0  0  0  0  0  0  0  0  0  0  0  0
   -0.2729   -1.3301   -1.1440 H   0  0  0  0  0  0  0  0  0  0  0  0
   -0.4640    1.5284   -3.7788 H   0  0  0  0  0  0  0  0  0  0  0  0
   -0.4800    2.6045   -2.3542 H   0  0  0  0  0  0  0  0  0  0  0  0
   -0.8947    3.4837   -5.2356 H   0  0  0  0  0  0  0  0  0  0  0  0
    0.5556    3.7511   -4.2397 H   0  0  0  0  0  0  0  0  0  0  0  0
   -2.9000    4.6029   -4.7150 H   0  0  0  0  0  0  0  0  0  0  0  0
   -2.9605    5.6420   -3.3285 H   0  0  0  0  0  0  0  0  0  0  0  0
   -4.1005    3.4477   -2.7883 H   0  0  0  0  0  0  0  0  0  0  0  0
   -2.6898    3.6997   -1.7975 H   0  0  0  0  0  0  0  0  0  0  0  0
    2.9091    3.1594    0.2695 H   0  0  0  0  0  0  0  0  0  0  0  0
   -1.6874    2.8098    0.3200 H   0  0  0  0  0  0  0  0  0  0  0  0
   -2.8841    4.8457   -0.0158 H   0  0  0  0  0  0  0  0  0  0  0  0
    0.8425    7.0077    0.5477 H   0  0  0  0  0  0  0  0  0  0  0  0
    2.0820    4.9748    0.4742 H   0  0  0  0  0  0  0  0  0  0  0  0
   -3.1846    6.5398   -1.6454 H   0  0  0  0  0  0  0  0  0  0  0  0
   -1.6368    7.1436   -2.3056 H   0  0  0  0  0  0  0  0  0  0  0  0
   -2.9320    8.2590   -1.8440 H   0  0  0  0  0  0  0  0  0  0  0  0
   -3.7676    6.6598    0.7172 H   0  0  0  0  0  0  0  0  0  0  0  0
   -3.6038    8.4072    0.6648 H   0  0  0  0  0  0  0  0  0  0  0  0
   -2.6949    7.4503    1.8692 H   0  0  0  0  0  0  0  0  0  0  0  0
   -0.1070    8.4757   -0.7439 H   0  0  0  0  0  0  0  0  0  0  0  0
   -0.5234    8.6329    0.9788 H   0  0  0  0  0  0  0  0  0  0  0  0
   -1.4564    9.5041   -0.2518 H   0  0  0  0  0  0  0  0  0  0  0  0
  1  2  1  0  0  0  0
  1 44  1  0  0  0  0
  1 45  1  0  0  0  0
  1 46  1  0  0  0  0
  2  3  2  0  0  0  0
  2  7  1  0  0  0  0
  3  4  1  0  0  0  0
  3 31  1  0  0  0  0
  4  5  2  0  0  0  0
  4 47  1  0  0  0  0
  5  6  1  0  0  0  0
  5 48  1  0  0  0  0
  6  7  2  0  0  0  0
  6 49  1  0  0  0  0
  7  8  1  0  0  0  0
  8  9  2  0  0  0  0
  8 15  1  0  0  0  0
  9 10  1  0  0  0  0
  9 50  1  0  0  0  0
 10 11  1  0  0  0  0
 10 12  1  0  0  0  0
 11 51  1  0  0  0  0
 11 52  1  0  0  0  0
 11 53  1  0  0  0  0
 12 13  2  0  0  0  0
 12 14  1  0  0  0  0
 14 15  2  0  0  0  0
 14 16  1  0  0  0  0
 16 17  1  0  0  0  0
 16 54  1  0  0  0  0
 17 18  2  0  0  0  0
 17 22  1  0  0  0  0
 18 19  1  0  0  0  0
 18 55  1  0  0  0  0
 19 20  2  0  0  0  0
 19 56  1  0  0  0  0
 20 21  1  0  0  0  0
 20 23  1  0  0  0  0
 21 22  2  0  0  0  0
 21 57  1  0  0  0  0
 22 58  1  0  0  0  0
 23 24  2  0  0  0  0
 23 25  1  0  0  0  0
 25 26  1  0  0  0  0
 25 30  1  0  0  0  0
 26 27  1  0  0  0  0
 26 59  1  0  0  0  0
 26 60  1  0  0  0  0
 27 28  1  0  0  0  0
 27 61  1  0  0  0  0
 27 62  1  0  0  0  0
 28 29  1  0  0  0  0
 29 30  1  0  0  0  0
 29 63  1  0  0  0  0
 29 64  1  0  0  0  0
 30 65  1  0  0  0  0
 30 66  1  0  0  0  0
 31 32  1  0  0  0  0
 31 67  1  0  0  0  0
 32 33  2  0  0  0  0
 32 34  1  0  0  0  0
 34 35  2  0  0  0  0
 34 39  1  0  0  0  0
 35 36  1  0  0  0  0
 35 68  1  0  0  0  0
 36 37  2  0  0  0  0
 36 69  1  0  0  0  0
 37 38  1  0  0  0  0
 37 40  1  0  0  0  0
 38 39  2  0  0  0  0
 38 70  1  0  0  0  0
 39 71  1  0  0  0  0
 40 41  1  0  0  0  0
 40 42  1  0  0  0  0
 40 43  1  0  0  0  0
 41 72  1  0  0  0  0
 41 73  1  0  0  0  0
 41 74  1  0  0  0  0
 42 75  1  0  0  0  0
 42 76  1  0  0  0  0
 42 77  1  0  0  0  0
 43 78  1  0  0  0  0
 43 79  1  0  0  0  0
 43 80  1  0  0  0  0
M  END
$$$$
