749
 OpenBabel04121316063D

 67 66  0  0  0  0  0  0  0  0999 V2000
    0.9182    0.0916   -0.1189 C   0  0  0  0  0  0  0  0  0  0  0  0
    2.4031    0.0571   -0.0295 C   0  0  0  0  0  0  0  0  0  0  0  0
    2.9933   -0.5117    1.0021 C   0  0  0  0  0  0  0  0  0  0  0  0
    2.3972   -1.1845    2.1821 C   0  0  0  0  0  0  0  0  0  0  0  0
    3.4822   -1.6241    3.2135 C   0  0  0  0  0  0  0  0  0  0  0  0
    4.5759   -2.8326    2.1401 P   0  0  0  0  0  0  0  0  0  0  0  0
    4.2463   -2.9557    0.6859 O   0  0  0  0  0  0  0  0  0  0  0  0
    6.0853   -2.3303    2.3847 O   0  0  0  0  0  0  0  0  0  0  0  0
    4.7196   -4.3271    2.6816 O   0  0  0  0  0  0  0  0  0  0  0  0
    4.5343   -0.2487    3.8052 P   0  0  0  0  0  0  0  0  0  0  0  0
    5.2550   -0.0482    2.4823 O   0  0  0  0  0  0  0  0  0  0  0  0
    3.3041    0.7771    4.0803 O   0  0  0  0  0  0  0  0  0  0  0  0
    5.5289    1.0516    4.3646 O   0  0  0  0  0  0  0  0  0  0  0  0
    2.7003   -2.2747    4.3167 C   0  0  0  0  0  0  0  0  0  0  0  0
    3.6079   -2.7706    5.3584 C   0  0  0  0  0  0  0  0  0  0  0  0
    3.1867   -3.3113    6.5096 C   0  0  0  0  0  0  0  0  0  0  0  0
    4.1591   -3.8287    7.5398 C   0  0  0  0  0  0  0  0  0  0  0  0
    5.6059   -3.6123    7.1118 C   0  0  0  0  0  0  0  0  0  0  0  0
    6.6170   -4.0994    8.0756 C   0  0  0  0  0  0  0  0  0  0  0  0
    7.9306   -3.9748    7.8252 C   0  0  0  0  0  0  0  0  0  0  0  0
    8.4844   -3.3404    6.5715 C   0  0  0  0  0  0  0  0  0  0  0  0
    8.9237   -4.4847    8.8185 C   0  0  0  0  0  0  0  0  0  0  0  0
    1.7307   -3.4678    6.8379 C   0  0  0  0  0  0  0  0  0  0  0  0
    3.2214    0.6209   -1.1786 C   0  0  0  0  0  0  0  0  0  0  0  0
    4.7417    0.5107   -0.9731 C   0  0  0  0  0  0  0  0  0  0  0  0
    5.5592    1.0737   -2.0778 C   0  0  0  0  0  0  0  0  0  0  0  0
    6.9029    1.0552   -2.0451 C   0  0  0  0  0  0  0  0  0  0  0  0
    7.7024    0.4728   -0.9038 C   0  0  0  0  0  0  0  0  0  0  0  0
    7.6799    1.6341   -3.1843 C   0  0  0  0  0  0  0  0  0  0  0  0
    0.4509   -0.3700    0.7579 H   0  0  0  0  0  0  0  0  0  0  0  0
    0.5939   -0.4805   -0.9883 H   0  0  0  0  0  0  0  0  0  0  0  0
    0.5738    1.1231   -0.1671 H   0  0  0  0  0  0  0  0  0  0  0  0
    4.0663   -0.5973    0.9248 H   0  0  0  0  0  0  0  0  0  0  0  0
    1.8508   -2.0675    1.8332 H   0  0  0  0  0  0  0  0  0  0  0  0
    1.6594   -0.5164    2.6289 H   0  0  0  0  0  0  0  0  0  0  0  0
    6.1637   -1.3568    2.1913 H   0  0  0  0  0  0  0  0  0  0  0  0
    5.1098   -4.8117    1.9109 H   0  0  0  0  0  0  0  0  0  0  0  0
    2.3920    0.6415    3.7908 H   0  0  0  0  0  0  0  0  0  0  0  0
    6.4666    0.8612    4.1838 H   0  0  0  0  0  0  0  0  0  0  0  0
    2.0857   -3.0942    3.9321 H   0  0  0  0  0  0  0  0  0  0  0  0
    2.0439   -1.5167    4.7659 H   0  0  0  0  0  0  0  0  0  0  0  0
    4.6675   -2.6952    5.1312 H   0  0  0  0  0  0  0  0  0  0  0  0
    3.9808   -4.8992    7.6909 H   0  0  0  0  0  0  0  0  0  0  0  0
    3.9812   -3.3154    8.4914 H   0  0  0  0  0  0  0  0  0  0  0  0
    5.7754   -2.5349    6.9663 H   0  0  0  0  0  0  0  0  0  0  0  0
    5.7788   -4.1374    6.1608 H   0  0  0  0  0  0  0  0  0  0  0  0
    6.2593   -4.5673    8.9884 H   0  0  0  0  0  0  0  0  0  0  0  0
    7.7120   -2.9870    5.8789 H   0  0  0  0  0  0  0  0  0  0  0  0
    9.0912   -4.0601    6.0150 H   0  0  0  0  0  0  0  0  0  0  0  0
    9.0939   -2.4681    6.8236 H   0  0  0  0  0  0  0  0  0  0  0  0
    8.4270   -4.9284    9.6890 H   0  0  0  0  0  0  0  0  0  0  0  0
    9.5523   -3.6649    9.1750 H   0  0  0  0  0  0  0  0  0  0  0  0
    9.5492   -5.2562    8.3623 H   0  0  0  0  0  0  0  0  0  0  0  0
    1.0720   -3.0715    6.0589 H   0  0  0  0  0  0  0  0  0  0  0  0
    1.4935   -2.9306    7.7588 H   0  0  0  0  0  0  0  0  0  0  0  0
    1.4879   -4.5271    6.9492 H   0  0  0  0  0  0  0  0  0  0  0  0
    2.9639    1.6768   -1.3061 H   0  0  0  0  0  0  0  0  0  0  0  0
    2.9553    0.0857   -2.0959 H   0  0  0  0  0  0  0  0  0  0  0  0
    5.0220   -0.5485   -0.8744 H   0  0  0  0  0  0  0  0  0  0  0  0
    5.0205    1.0442   -0.0528 H   0  0  0  0  0  0  0  0  0  0  0  0
    5.0261    1.5008   -2.9218 H   0  0  0  0  0  0  0  0  0  0  0  0
    7.0834    0.0618   -0.0987 H   0  0  0  0  0  0  0  0  0  0  0  0
    8.3331    1.2417   -0.4482 H   0  0  0  0  0  0  0  0  0  0  0  0
    8.3333   -0.3475   -1.2585 H   0  0  0  0  0  0  0  0  0  0  0  0
    7.0157    2.0297   -3.9612 H   0  0  0  0  0  0  0  0  0  0  0  0
    8.3074    0.8653   -3.6427 H   0  0  0  0  0  0  0  0  0  0  0  0
    8.3076    2.4570   -2.8325 H   0  0  0  0  0  0  0  0  0  0  0  0
  1  2  1  0  0  0  0
  1 30  1  0  0  0  0
  1 31  1  0  0  0  0
  1 32  1  0  0  0  0
  2  3  2  0  0  0  0
  2 24  1  0  0  0  0
  3  4  1  0  0  0  0
  3 33  1  0  0  0  0
  4  5  1  0  0  0  0
  4 34  1  0  0  0  0
  4 35  1  0  0  0  0
  5  6  1  0  0  0  0
  5 10  1  0  0  0  0
  5 14  1  0  0  0  0
  6  7  2  0  0  0  0
  6  8  1  0  0  0  0
  6  9  1  0  0  0  0
  8 36  1  0  0  0  0
  9 37  1  0  0  0  0
 10 11  2  0  0  0  0
 10 12  1  0  0  0  0
 10 13  1  0  0  0  0
 12 38  1  0  0  0  0
 13 39  1  0  0  0  0
 14 15  1  0  0  0  0
 14 40  1  0  0  0  0
 14 41  1  0  0  0  0
 15 16  2  0  0  0  0
 15 42  1  0  0  0  0
 16 17  1  0  0  0  0
 16 23  1  0  0  0  0
 17 18  1  0  0  0  0
 17 43  1  0  0  0  0
 17 44  1  0  0  0  0
 18 19  1  0  0  0  0
 18 45  1  0  0  0  0
 18 46  1  0  0  0  0
 19 20  2  0  0  0  0
 19 47  1  0  0  0  0
 20 21  1  0  0  0  0
 20 22  1  0  0  0  0
 21 48  1  0  0  0  0
 21 49  1  0  0  0  0
 21 50  1  0  0  0  0
 22 51  1  0  0  0  0
 22 52  1  0  0  0  0
 22 53  1  0  0  0  0
 23 54  1  0  0  0  0
 23 55  1  0  0  0  0
 23 56  1  0  0  0  0
 24 25  1  0  0  0  0
 24 57  1  0  0  0  0
 24 58  1  0  0  0  0
 25 26  1  0  0  0  0
 25 59  1  0  0  0  0
 25 60  1  0  0  0  0
 26 27  2  0  0  0  0
 26 61  1  0  0  0  0
 27 28  1  0  0  0  0
 27 29  1  0  0  0  0
 28 62  1  0  0  0  0
 28 63  1  0  0  0  0
 28 64  1  0  0  0  0
 29 65  1  0  0  0  0
 29 66  1  0  0  0  0
 29 67  1  0  0  0  0
M  END
$$$$
