754
 OpenBabel04121316063D

 65 66  0  0  0  0  0  0  0  0999 V2000
    0.9069   -0.0945   -0.0215 C   0  0  0  0  0  0  0  0  0  0  0  0
    2.4187   -0.0741   -0.0289 C   0  0  0  0  0  0  0  0  0  0  0  0
    2.9141    1.0998   -0.8501 C   0  0  0  0  0  0  0  0  0  0  0  0
    4.3312    1.1414   -0.6974 O   0  0  0  0  0  0  0  0  0  0  0  0
    4.9080    2.0578   -1.5252 C   0  0  0  0  0  0  0  0  0  0  0  0
    4.5207    3.3889   -1.3233 C   0  0  0  0  0  0  0  0  0  0  0  0
    5.0602    4.4621   -2.0392 C   0  0  0  0  0  0  0  0  0  0  0  0
    6.0256    4.1922   -2.9680 C   0  0  0  0  0  0  0  0  0  0  0  0
    6.4629    2.8748   -3.0299 C   0  0  0  0  0  0  0  0  0  0  0  0
    5.9241    1.7343   -2.4182 C   0  0  0  0  0  0  0  0  0  0  0  0
    6.4573    0.3477   -2.7354 C   0  0  0  0  0  0  0  0  0  0  0  0
    7.3966    0.0034   -3.6646 C   0  0  0  0  0  0  0  0  0  0  0  0
    8.0851    0.8653   -4.5870 C   0  0  0  0  0  0  0  0  0  0  0  0
    9.1114    0.7403   -5.4254 C   0  0  0  0  0  0  0  0  0  0  0  0
    9.6416    1.9134   -6.1688 C   0  0  0  0  0  0  0  0  0  0  0  0
    9.4456    3.2322   -5.9067 C   0  0  0  0  0  0  0  0  0  0  0  0
    9.9367    4.3555   -6.7754 C   0  0  0  0  0  0  0  0  0  0  0  0
   10.6706    4.2216   -7.7190 O   0  0  0  0  0  0  0  0  0  0  0  0
    9.4648    5.5838   -6.4605 O   0  0  0  0  0  0  0  0  0  0  0  0
   10.6133    1.5473   -7.2310 C   0  0  0  0  0  0  0  0  0  0  0  0
    5.8979   -0.8420   -1.9803 C   0  0  0  0  0  0  0  0  0  0  0  0
    6.7008    5.2291   -3.8571 C   0  0  0  0  0  0  0  0  0  0  0  0
    6.6013    4.7750   -5.3410 C   0  0  0  0  0  0  0  0  0  0  0  0
    8.1476    5.4656   -3.3263 C   0  0  0  0  0  0  0  0  0  0  0  0
    5.9487    6.5616   -3.8168 C   0  0  0  0  0  0  0  0  0  0  0  0
    5.5889    6.9073   -2.3813 C   0  0  0  0  0  0  0  0  0  0  0  0
    4.5995    5.8725   -1.7947 C   0  0  0  0  0  0  0  0  0  0  0  0
    4.5115    6.1017   -0.2806 C   0  0  0  0  0  0  0  0  0  0  0  0
    3.2338    5.9983   -2.4800 C   0  0  0  0  0  0  0  0  0  0  0  0
    0.5410   -0.9254    0.5850 H   0  0  0  0  0  0  0  0  0  0  0  0
    0.5198   -0.2031   -1.0394 H   0  0  0  0  0  0  0  0  0  0  0  0
    0.5142    0.8390    0.3956 H   0  0  0  0  0  0  0  0  0  0  0  0
    2.8184   -1.0103   -0.4350 H   0  0  0  0  0  0  0  0  0  0  0  0
    2.8061    0.0065    0.9941 H   0  0  0  0  0  0  0  0  0  0  0  0
    2.4554    2.0141   -0.4595 H   0  0  0  0  0  0  0  0  0  0  0  0
    2.6390    0.9791   -1.9062 H   0  0  0  0  0  0  0  0  0  0  0  0
    3.7766    3.5805   -0.5609 H   0  0  0  0  0  0  0  0  0  0  0  0
    7.3828    2.8610   -3.5506 H   0  0  0  0  0  0  0  0  0  0  0  0
    7.6735   -1.0479   -3.7488 H   0  0  0  0  0  0  0  0  0  0  0  0
    7.6545    1.8146   -4.7269 H   0  0  0  0  0  0  0  0  0  0  0  0
    9.5316   -0.2456   -5.5999 H   0  0  0  0  0  0  0  0  0  0  0  0
    8.8999    3.5264   -5.0341 H   0  0  0  0  0  0  0  0  0  0  0  0
    8.8953    5.6915   -5.6913 H   0  0  0  0  0  0  0  0  0  0  0  0
   10.8126    0.4777   -7.2560 H   0  0  0  0  0  0  0  0  0  0  0  0
   11.5592    2.0463   -6.9914 H   0  0  0  0  0  0  0  0  0  0  0  0
   10.2374    1.8627   -8.2065 H   0  0  0  0  0  0  0  0  0  0  0  0
    5.1502   -0.6493   -1.2256 H   0  0  0  0  0  0  0  0  0  0  0  0
    6.7012   -1.3540   -1.4424 H   0  0  0  0  0  0  0  0  0  0  0  0
    5.4161   -1.5353   -2.6787 H   0  0  0  0  0  0  0  0  0  0  0  0
    7.0434    3.8051   -5.5466 H   0  0  0  0  0  0  0  0  0  0  0  0
    7.0309    5.5095   -6.0252 H   0  0  0  0  0  0  0  0  0  0  0  0
    5.5616    4.6409   -5.6582 H   0  0  0  0  0  0  0  0  0  0  0  0
    8.7782    4.5730   -3.3332 H   0  0  0  0  0  0  0  0  0  0  0  0
    8.1524    5.7807   -2.2766 H   0  0  0  0  0  0  0  0  0  0  0  0
    8.6673    6.2543   -3.8767 H   0  0  0  0  0  0  0  0  0  0  0  0
    5.0426    6.4869   -4.4285 H   0  0  0  0  0  0  0  0  0  0  0  0
    6.5483    7.3523   -4.2831 H   0  0  0  0  0  0  0  0  0  0  0  0
    5.1645    7.9131   -2.3450 H   0  0  0  0  0  0  0  0  0  0  0  0
    6.5025    6.9397   -1.7744 H   0  0  0  0  0  0  0  0  0  0  0  0
    5.4851    5.9119    0.1934 H   0  0  0  0  0  0  0  0  0  0  0  0
    3.7914    5.4339    0.2015 H   0  0  0  0  0  0  0  0  0  0  0  0
    4.1981    7.1202   -0.0555 H   0  0  0  0  0  0  0  0  0  0  0  0
    3.2961    5.7972   -3.5574 H   0  0  0  0  0  0  0  0  0  0  0  0
    2.8310    7.0030   -2.3460 H   0  0  0  0  0  0  0  0  0  0  0  0
    2.5169    5.2704   -2.0866 H   0  0  0  0  0  0  0  0  0  0  0  0
  1  2  1  0  0  0  0
  1 30  1  0  0  0  0
  1 31  1  0  0  0  0
  1 32  1  0  0  0  0
  2  3  1  0  0  0  0
  2 33  1  0  0  0  0
  2 34  1  0  0  0  0
  3  4  1  0  0  0  0
  3 35  1  0  0  0  0
  3 36  1  0  0  0  0
  4  5  1  0  0  0  0
  5  6  2  0  0  0  0
  5 10  1  0  0  0  0
  6  7  1  0  0  0  0
  6 37  1  0  0  0  0
  7  8  2  0  0  0  0
  7 27  1  0  0  0  0
  8  9  1  0  0  0  0
  8 22  1  0  0  0  0
  9 10  2  0  0  0  0
  9 38  1  0  0  0  0
 10 11  1  0  0  0  0
 11 12  2  0  0  0  0
 11 21  1  0  0  0  0
 12 13  1  0  0  0  0
 12 39  1  0  0  0  0
 13 14  2  0  0  0  0
 13 40  1  0  0  0  0
 14 15  1  0  0  0  0
 14 41  1  0  0  0  0
 15 16  2  0  0  0  0
 15 20  1  0  0  0  0
 16 17  1  0  0  0  0
 16 42  1  0  0  0  0
 17 18  2  0  0  0  0
 17 19  1  0  0  0  0
 19 43  1  0  0  0  0
 20 44  1  0  0  0  0
 20 45  1  0  0  0  0
 20 46  1  0  0  0  0
 21 47  1  0  0  0  0
 21 48  1  0  0  0  0
 21 49  1  0  0  0  0
 22 23  1  0  0  0  0
 22 24  1  0  0  0  0
 22 25  1  0  0  0  0
 23 50  1  0  0  0  0
 23 51  1  0  0  0  0
 23 52  1  0  0  0  0
 24 53  1  0  0  0  0
 24 54  1  0  0  0  0
 24 55  1  0  0  0  0
 25 26  1  0  0  0  0
 25 56  1  0  0  0  0
 25 57  1  0  0  0  0
 26 27  1  0  0  0  0
 26 58  1  0  0  0  0
 26 59  1  0  0  0  0
 27 28  1  0  0  0  0
 27 29  1  0  0  0  0
 28 60  1  0  0  0  0
 28 61  1  0  0  0  0
 28 62  1  0  0  0  0
 29 63  1  0  0  0  0
 29 64  1  0  0  0  0
 29 65  1  0  0  0  0
M  END
$$$$
