75V
 OpenBabel04121316063D

 48 48  0  0  1  0  0  0  0  0999 V2000
    5.0156   -2.8459    1.8242 C   0  0  0  0  0  0  0  0  0  0  0  0
    5.8730   -2.9769    0.5791 C   0  0  2  0  0  0  0  0  0  0  0  0
    5.8770   -4.0387    0.2751 H   0  0  0  0  0  0  0  0  0  0  0  0
    7.4273   -2.6086    0.9481 C   0  0  1  0  0  0  0  0  0  0  0  0
    8.1691   -2.8925    0.2039 H   0  0  0  0  0  0  0  0  0  0  0  0
    7.6805   -1.1049    1.1036 C   0  0  0  0  0  0  0  0  0  0  0  0
    7.7280   -0.5545    2.2059 O   0  0  0  0  0  0  0  0  0  0  0  0
    7.8254   -0.3546   -0.0501 N   0  0  0  0  0  0  0  0  0  0  0  0
    7.5067   -0.6609   -1.4828 C   0  0  2  0  0  0  0  0  0  0  0  0
    6.4489   -0.7953   -1.5555 H   0  0  0  0  0  0  0  0  0  0  0  0
    8.0598   -1.8926   -2.2663 C   0  0  0  0  0  0  0  0  0  0  0  0
    8.6136   -1.8488   -3.3644 O   0  0  0  0  0  0  0  0  0  0  0  0
    7.6639   -3.0955   -1.8207 O   0  0  0  0  0  0  0  0  0  0  0  0
    7.5710    0.5805   -2.3519 C   0  0  0  0  0  0  0  0  0  0  0  0
    7.9543   -3.3661    2.0793 N   0  0  0  0  0  0  0  0  0  0  0  0
    9.3078   -3.2627    2.3740 C   0  0  0  0  0  0  0  0  0  0  0  0
   10.1027   -2.5491    1.7750 O   0  0  0  0  0  0  0  0  0  0  0  0
    9.7278   -4.0616    3.5361 C   0  0  1  0  0  0  0  0  0  0  0  0
    8.9894   -4.1421    4.3219 H   0  0  0  0  0  0  0  0  0  0  0  0
   10.5196   -5.2228    3.2473 O   0  0  0  0  0  0  0  0  0  0  0  0
   11.1850   -4.1317    3.9158 C   0  0  2  0  0  0  0  0  0  0  0  0
   11.9017   -3.5614    3.3374 H   0  0  0  0  0  0  0  0  0  0  0  0
   11.5329   -4.3282    5.3340 C   0  0  0  0  0  0  0  0  0  0  0  0
   11.2813   -5.3514    5.9541 O   0  0  0  0  0  0  0  0  0  0  0  0
   12.1186   -3.2114    5.8453 O   0  0  0  0  0  0  0  0  0  0  0  0
   12.4975   -3.3255    7.2211 C   0  0  0  0  0  0  0  0  0  0  0  0
   13.1305   -2.0180    7.6574 C   0  0  0  0  0  0  0  0  0  0  0  0
    5.0055   -2.1902   -0.5276 C   0  0  0  0  0  0  0  0  0  0  0  0
    4.7656   -0.7101   -0.1543 C   0  0  0  0  0  0  0  0  0  0  0  0
    5.0629   -1.8131    2.1765 H   0  0  0  0  0  0  0  0  0  0  0  0
    5.3458   -3.5036    2.6230 H   0  0  0  0  0  0  0  0  0  0  0  0
    3.9743   -3.0833    1.5778 H   0  0  0  0  0  0  0  0  0  0  0  0
    7.7010    0.6187    0.2304 H   0  0  0  0  0  0  0  0  0  0  0  0
    7.0101   -2.9539   -1.1374 H   0  0  0  0  0  0  0  0  0  0  0  0
    7.0932    0.3578   -3.3165 H   0  0  0  0  0  0  0  0  0  0  0  0
    8.6080    0.8592   -2.5092 H   0  0  0  0  0  0  0  0  0  0  0  0
    7.0083    1.4136   -1.9124 H   0  0  0  0  0  0  0  0  0  0  0  0
    7.4881   -4.2153    2.3745 H   0  0  0  0  0  0  0  0  0  0  0  0
   13.2212   -4.1402    7.3338 H   0  0  0  0  0  0  0  0  0  0  0  0
   11.6122   -3.5280    7.8338 H   0  0  0  0  0  0  0  0  0  0  0  0
   14.0124   -1.7914    7.0490 H   0  0  0  0  0  0  0  0  0  0  0  0
   13.4304   -2.0654    8.7081 H   0  0  0  0  0  0  0  0  0  0  0  0
   12.4307   -1.1858    7.5271 H   0  0  0  0  0  0  0  0  0  0  0  0
    4.0228   -2.6605   -0.6844 H   0  0  0  0  0  0  0  0  0  0  0  0
    5.3921   -2.3069   -1.5500 H   0  0  0  0  0  0  0  0  0  0  0  0
    4.0088   -0.5600    0.6099 H   0  0  0  0  0  0  0  0  0  0  0  0
    4.5700   -0.0572   -1.0145 H   0  0  0  0  0  0  0  0  0  0  0  0
    5.6426   -0.2987    0.3185 H   0  0  0  0  0  0  0  0  0  0  0  0
  1 30  1  0  0  0  0
  1 31  1  0  0  0  0
  1 32  1  0  0  0  0
  2  4  1  0  0  0  0
  2 28  1  0  0  0  0
  2  3  1  6  0  0  0
  2  1  1  0  0  0  0
  4  5  1  6  0  0  0
  4  6  1  0  0  0  0
  4 15  1  0  0  0  0
  6  7  2  0  0  0  0
  6  8  1  0  0  0  0
  8 33  1  0  0  0  0
  9 11  1  0  0  0  0
  9 14  1  0  0  0  0
  9 10  1  1  0  0  0
  9  8  1  0  0  0  0
 11 12  2  0  0  0  0
 11 13  1  0  0  0  0
 13 34  1  0  0  0  0
 14 35  1  0  0  0  0
 14 36  1  0  0  0  0
 14 37  1  0  0  0  0
 15 16  1  0  0  0  0
 15 38  1  0  0  0  0
 16 17  2  0  0  0  0
 16 18  1  0  0  0  0
 18 19  1  1  0  0  0
 18 20  1  0  0  0  0
 18 21  1  0  0  0  0
 20 21  1  0  0  0  0
 21 22  1  6  0  0  0
 21 23  1  0  0  0  0
 23 24  2  0  0  0  0
 23 25  1  0  0  0  0
 25 26  1  0  0  0  0
 26 27  1  0  0  0  0
 26 39  1  0  0  0  0
 26 40  1  0  0  0  0
 27 41  1  0  0  0  0
 27 42  1  0  0  0  0
 27 43  1  0  0  0  0
 28 29  1  0  0  0  0
 28 44  1  0  0  0  0
 28 45  1  0  0  0  0
 29 46  1  0  0  0  0
 29 47  1  0  0  0  0
 29 48  1  0  0  0  0
M  END
$$$$
