762
 OpenBabel04121316063D

 41 44  0  0  0  0  0  0  0  0999 V2000
    0.8474    0.0863    0.1804 O   0  5  0  0  0  0  0  0  0  0  0  0
    2.1376    0.0629    0.1297 C   0  0  0  0  0  0  0  0  0  0  0  0
    2.9286    1.2664    0.1578 C   0  0  0  0  0  0  0  0  0  0  0  0
    4.3298    1.2409    0.2573 C   0  0  0  0  0  0  0  0  0  0  0  0
    4.9916    0.0445    0.4537 C   0  0  0  0  0  0  0  0  0  0  0  0
    4.2883   -1.1368    0.2850 C   0  0  0  0  0  0  0  0  0  0  0  0
    2.8896   -1.1542    0.0517 C   0  0  0  0  0  0  0  0  0  0  0  0
    2.2537   -2.4509   -0.3287 C   0  0  0  0  0  0  0  0  0  0  0  0
    2.7391   -3.6812    0.1359 C   0  0  0  0  0  0  0  0  0  0  0  0
    2.2441   -4.8843   -0.3679 C   0  0  0  0  0  0  0  0  0  0  0  0
    1.1619   -4.8833   -1.2448 C   0  0  0  0  0  0  0  0  0  0  0  0
    0.5871   -3.6826   -1.6335 C   0  0  0  0  0  0  0  0  0  0  0  0
    1.1784   -2.4891   -1.2382 C   0  0  0  0  0  0  0  0  0  0  0  0
    2.2662    2.5831    0.1571 C   0  0  0  0  0  0  0  0  0  0  0  0
    0.8966    2.6598    0.2638 N   0  0  0  0  0  0  0  0  0  0  0  0
    0.3364    1.8078    0.3120 H   0  0  0  0  0  0  0  0  0  0  0  0
    0.5195    3.9595    0.3071 C   0  0  0  0  0  0  0  0  0  0  0  0
    1.7141    4.6417    0.2090 C   0  0  0  0  0  0  0  0  0  0  0  0
    2.7881    3.7999    0.1167 N   0  0  0  0  0  0  0  0  0  0  0  0
    1.6922    6.0388    0.2183 C   0  0  0  0  0  0  0  0  0  0  0  0
    0.4623    6.7352    0.3231 C   0  0  0  0  0  0  0  0  0  0  0  0
   -0.7256    5.9630    0.4261 C   0  0  0  0  0  0  0  0  0  0  0  0
   -0.7219    4.5640    0.4204 C   0  0  0  0  0  0  0  0  0  0  0  0
   -2.3082    6.6638    0.5689 Cl  0  0  0  0  0  0  0  0  0  0  0  0
    0.4826    8.2199    0.3151 C   0  0  0  0  0  0  0  0  0  0  0  0
    1.6079    8.8910    0.2153 N   0  3  0  0  0  0  0  0  0  0  0  0
    1.6392    9.9005    0.2065 H   0  0  0  0  0  0  0  0  0  0  0  0
    2.5065    8.4254    0.1397 H   0  0  0  0  0  0  0  0  0  0  0  0
   -0.6317    8.9230    0.4049 N   0  0  0  0  0  0  0  0  0  0  0  0
    4.8934    2.1669    0.2240 H   0  0  0  0  0  0  0  0  0  0  0  0
    6.0459    0.0233    0.7025 H   0  0  0  0  0  0  0  0  0  0  0  0
    4.8542   -2.0634    0.3012 H   0  0  0  0  0  0  0  0  0  0  0  0
    3.5200   -3.7088    0.8899 H   0  0  0  0  0  0  0  0  0  0  0  0
    2.7029   -5.8180   -0.0628 H   0  0  0  0  0  0  0  0  0  0  0  0
    0.7604   -5.8164   -1.6206 H   0  0  0  0  0  0  0  0  0  0  0  0
   -0.3060   -3.6497   -2.2478 H   0  0  0  0  0  0  0  0  0  0  0  0
    0.7743   -1.5593   -1.6360 H   0  0  0  0  0  0  0  0  0  0  0  0
    2.6634    6.5040    0.1387 H   0  0  0  0  0  0  0  0  0  0  0  0
   -1.6280    3.9705    0.4964 H   0  0  0  0  0  0  0  0  0  0  0  0
   -1.5214    8.4406    0.4818 H   0  0  0  0  0  0  0  0  0  0  0  0
   -0.6587    9.9286    0.4012 H   0  0  0  0  0  0  0  0  0  0  0  0
  1  2  1  0  0  0  0
  2  3  2  0  0  0  0
  2  7  1  0  0  0  0
  3  4  1  0  0  0  0
  3 14  1  0  0  0  0
  4  5  2  0  0  0  0
  4 30  1  0  0  0  0
  5  6  1  0  0  0  0
  5 31  1  0  0  0  0
  6  7  2  0  0  0  0
  6 32  1  0  0  0  0
  7  8  1  0  0  0  0
  8  9  2  0  0  0  0
  8 13  1  0  0  0  0
  9 10  1  0  0  0  0
  9 33  1  0  0  0  0
 10 11  2  0  0  0  0
 10 34  1  0  0  0  0
 11 12  1  0  0  0  0
 11 35  1  0  0  0  0
 12 13  2  0  0  0  0
 12 36  1  0  0  0  0
 13 37  1  0  0  0  0
 14 15  1  0  0  0  0
 14 19  2  0  0  0  0
 15 16  1  0  0  0  0
 15 17  1  0  0  0  0
 17 18  2  0  0  0  0
 17 23  1  0  0  0  0
 18 19  1  0  0  0  0
 18 20  1  0  0  0  0
 20 21  2  0  0  0  0
 20 38  1  0  0  0  0
 21 22  1  0  0  0  0
 21 25  1  0  0  0  0
 22 23  2  0  0  0  0
 22 24  1  0  0  0  0
 23 39  1  0  0  0  0
 25 26  2  0  0  0  0
 25 29  1  0  0  0  0
 26 27  1  0  0  0  0
 26 28  1  0  0  0  0
 29 40  1  0  0  0  0
 29 41  1  0  0  0  0
M  CHG  2   1  -1  26   1
M  END
$$$$
