76V
 OpenBabel04121316063D

 57 57  0  0  1  0  0  0  0  0999 V2000
    0.2969    0.3726  -12.7420 C   0  0  0  0  0  0  0  0  0  0  0  0
    1.0647    0.9478  -13.9155 C   0  0  0  0  0  0  0  0  0  0  0  0
    2.4701    0.8632  -13.6254 O   0  0  0  0  0  0  0  0  0  0  0  0
    3.2612    1.3847  -14.6042 C   0  0  0  0  0  0  0  0  0  0  0  0
    2.8501    1.8829  -15.6488 O   0  0  0  0  0  0  0  0  0  0  0  0
    4.7068    1.1856  -14.3663 C   0  0  1  0  0  0  0  0  0  0  0  0
    5.2519    0.8732  -15.2481 H   0  0  0  0  0  0  0  0  0  0  0  0
    5.3680    2.1897  -13.5713 O   0  0  0  0  0  0  0  0  0  0  0  0
    5.2589    0.8850  -12.9904 C   0  0  2  0  0  0  0  0  0  0  0  0
    4.5889    0.8226  -12.1449 H   0  0  0  0  0  0  0  0  0  0  0  0
    6.4843    0.0651  -12.8617 C   0  0  0  0  0  0  0  0  0  0  0  0
    7.5905    0.4611  -13.2279 O   0  0  0  0  0  0  0  0  0  0  0  0
    6.3191   -1.2028  -12.3526 N   0  0  0  0  0  0  0  0  0  0  0  0
    5.0340   -1.8672  -12.1237 C   0  0  2  0  0  0  0  0  0  0  0  0
    4.2237   -1.1710  -12.3376 H   0  0  0  0  0  0  0  0  0  0  0  0
    4.9365   -2.2016  -10.6411 C   0  0  0  0  0  0  0  0  0  0  0  0
    4.5235   -3.2832  -10.2321 O   0  0  0  0  0  0  0  0  0  0  0  0
    5.2546   -1.1931   -9.7731 N   0  0  0  0  0  0  0  0  0  0  0  0
    5.2195   -1.4270   -8.3368 C   0  0  1  0  0  0  0  0  0  0  0  0
    4.2973   -1.9864   -8.1268 H   0  0  0  0  0  0  0  0  0  0  0  0
    6.4632   -2.2119   -7.8282 C   0  0  2  0  0  0  0  0  0  0  0  0
    6.2376   -2.5602   -6.8125 H   0  0  0  0  0  0  0  0  0  0  0  0
    7.7650   -1.3775   -7.7852 C   0  0  0  0  0  0  0  0  0  0  0  0
    7.7943   -0.2076   -6.8086 C   0  0  0  0  0  0  0  0  0  0  0  0
    6.7554   -3.4847   -8.6511 C   0  0  0  0  0  0  0  0  0  0  0  0
    5.0467   -0.0618   -7.6721 C   0  0  0  0  0  0  0  0  0  0  0  0
    5.0832    0.9966   -8.2913 O   0  0  0  0  0  0  0  0  0  0  0  0
    4.9280   -0.1062   -6.3242 O   0  0  0  0  0  0  0  0  0  0  0  0
    4.7645   -3.1314  -12.9715 C   0  0  2  0  0  0  0  0  0  0  0  0
    5.3912   -3.9620  -12.6161 H   0  0  0  0  0  0  0  0  0  0  0  0
    5.0197   -2.9326  -14.4755 C   0  0  0  0  0  0  0  0  0  0  0  0
    6.4749   -2.6854  -14.8412 C   0  0  0  0  0  0  0  0  0  0  0  0
    3.2767   -3.5258  -12.7861 C   0  0  0  0  0  0  0  0  0  0  0  0
   -0.7820    0.4158  -12.9194 H   0  0  0  0  0  0  0  0  0  0  0  0
    0.5273    0.9263  -11.8264 H   0  0  0  0  0  0  0  0  0  0  0  0
    0.5849   -0.6693  -12.5689 H   0  0  0  0  0  0  0  0  0  0  0  0
    0.7722    1.9931  -14.0705 H   0  0  0  0  0  0  0  0  0  0  0  0
    0.8403    0.3677  -14.8187 H   0  0  0  0  0  0  0  0  0  0  0  0
    7.1695   -1.7603  -12.3130 H   0  0  0  0  0  0  0  0  0  0  0  0
    5.5031   -0.2634  -10.1034 H   0  0  0  0  0  0  0  0  0  0  0  0
    7.9975   -1.0144   -8.7926 H   0  0  0  0  0  0  0  0  0  0  0  0
    8.5806   -2.0474   -7.4895 H   0  0  0  0  0  0  0  0  0  0  0  0
    7.1834    0.6329   -7.1340 H   0  0  0  0  0  0  0  0  0  0  0  0
    8.7959    0.2184   -6.7354 H   0  0  0  0  0  0  0  0  0  0  0  0
    7.4698   -0.5220   -5.8116 H   0  0  0  0  0  0  0  0  0  0  0  0
    7.5871   -4.0609   -8.2398 H   0  0  0  0  0  0  0  0  0  0  0  0
    7.0378   -3.2383   -9.6823 H   0  0  0  0  0  0  0  0  0  0  0  0
    5.8918   -4.1571   -8.6562 H   0  0  0  0  0  0  0  0  0  0  0  0
    5.1277   -0.9751   -5.9244 H   0  0  0  0  0  0  0  0  0  0  0  0
    4.3982   -2.1086  -14.8450 H   0  0  0  0  0  0  0  0  0  0  0  0
    4.6983   -3.8376  -15.0055 H   0  0  0  0  0  0  0  0  0  0  0  0
    6.8309   -1.7172  -14.5094 H   0  0  0  0  0  0  0  0  0  0  0  0
    6.6061   -2.6531  -15.9233 H   0  0  0  0  0  0  0  0  0  0  0  0
    7.1258   -3.4505  -14.4084 H   0  0  0  0  0  0  0  0  0  0  0  0
    3.0317   -4.4356  -13.3376 H   0  0  0  0  0  0  0  0  0  0  0  0
    2.6188   -2.7166  -13.1216 H   0  0  0  0  0  0  0  0  0  0  0  0
    3.0062   -3.7226  -11.7455 H   0  0  0  0  0  0  0  0  0  0  0  0
  1  2  1  0  0  0  0
  1 34  1  0  0  0  0
  1 35  1  0  0  0  0
  1 36  1  0  0  0  0
  2  3  1  0  0  0  0
  2 37  1  0  0  0  0
  2 38  1  0  0  0  0
  3  4  1  0  0  0  0
  4  5  2  0  0  0  0
  4  6  1  0  0  0  0
  6  7  1  6  0  0  0
  6  8  1  0  0  0  0
  6  9  1  0  0  0  0
  8  9  1  0  0  0  0
  9 10  1  1  0  0  0
  9 11  1  0  0  0  0
 11 12  2  0  0  0  0
 11 13  1  0  0  0  0
 13 39  1  0  0  0  0
 14 16  1  0  0  0  0
 14 15  1  6  0  0  0
 14 13  1  0  0  0  0
 16 17  2  0  0  0  0
 16 18  1  0  0  0  0
 18 19  1  0  0  0  0
 18 40  1  0  0  0  0
 19 20  1  1  0  0  0
 19 26  1  0  0  0  0
 21 23  1  0  0  0  0
 21 25  1  0  0  0  0
 21 22  1  1  0  0  0
 21 19  1  0  0  0  0
 23 24  1  0  0  0  0
 23 41  1  0  0  0  0
 23 42  1  0  0  0  0
 24 43  1  0  0  0  0
 24 44  1  0  0  0  0
 24 45  1  0  0  0  0
 25 46  1  0  0  0  0
 25 47  1  0  0  0  0
 25 48  1  0  0  0  0
 26 27  2  0  0  0  0
 26 28  1  0  0  0  0
 28 49  1  0  0  0  0
 29 31  1  0  0  0  0
 29 33  1  0  0  0  0
 29 30  1  1  0  0  0
 29 14  1  0  0  0  0
 31 32  1  0  0  0  0
 31 50  1  0  0  0  0
 31 51  1  0  0  0  0
 32 52  1  0  0  0  0
 32 53  1  0  0  0  0
 32 54  1  0  0  0  0
 33 55  1  0  0  0  0
 33 56  1  0  0  0  0
 33 57  1  0  0  0  0
M  END
$$$$
