770
 OpenBabel04121316063D

 40 44  0  0  0  0  0  0  0  0999 V2000
    0.9721    0.0832   -0.0511 O   0  0  0  0  0  0  0  0  0  0  0  0
    2.1940    0.0701    0.0032 C   0  0  0  0  0  0  0  0  0  0  0  0
    2.9127   -1.0328    0.3680 N   0  0  0  0  0  0  0  0  0  0  0  0
    4.3035   -1.0240    0.4100 C   0  0  0  0  0  0  0  0  0  0  0  0
    4.9809   -1.3383   -0.7619 C   0  0  0  0  0  0  0  0  0  0  0  0
    6.3552   -1.3287   -0.7291 C   0  0  0  0  0  0  0  0  0  0  0  0
    6.9798   -0.9689    0.4865 C   0  0  0  0  0  0  0  0  0  0  0  0
    6.3596   -0.5818    1.7175 C   0  0  0  0  0  0  0  0  0  0  0  0
    4.9517   -0.6704    1.6400 C   0  0  0  0  0  0  0  0  0  0  0  0
    7.4339   -0.2394    2.6511 C   0  0  0  0  0  0  0  0  0  0  0  0
    8.6131   -0.5259    1.9510 C   0  0  0  0  0  0  0  0  0  0  0  0
    8.3177   -0.9374    0.6845 N   0  0  0  0  0  0  0  0  0  0  0  0
    9.0111   -1.1839   -0.0123 H   0  0  0  0  0  0  0  0  0  0  0  0
    9.9019   -0.4388    2.3939 C   0  0  0  0  0  0  0  0  0  0  0  0
   10.0381   -0.1566    3.7100 C   0  0  0  0  0  0  0  0  0  0  0  0
    8.9300   -0.0154    4.5087 C   0  0  0  0  0  0  0  0  0  0  0  0
    7.6017    0.2358    4.1077 C   0  0  0  0  0  0  0  0  0  0  0  0
    7.0842    0.6623    5.5242 C   0  0  0  0  0  0  0  0  0  0  0  0
    7.0259    1.7137    6.2042 O   0  0  0  0  0  0  0  0  0  0  0  0
    7.6512   -0.2964    6.3050 N   0  0  0  0  0  0  0  0  0  0  0  0
    7.2132   -1.1452    5.9924 H   0  0  0  0  0  0  0  0  0  0  0  0
    8.9763   -0.1048    5.9584 C   0  0  0  0  0  0  0  0  0  0  0  0
    9.8730    0.1496    6.7247 O   0  0  0  0  0  0  0  0  0  0  0  0
   11.3170   -0.0138    4.3138 C   0  0  0  0  0  0  0  0  0  0  0  0
   11.7384    1.2890    4.6271 C   0  0  0  0  0  0  0  0  0  0  0  0
   12.9795    1.4780    5.1935 C   0  0  0  0  0  0  0  0  0  0  0  0
   13.7437    0.3635    5.5357 C   0  0  0  0  0  0  0  0  0  0  0  0
   13.2621   -0.9354    5.3426 C   0  0  0  0  0  0  0  0  0  0  0  0
   12.0688   -1.1304    4.6797 C   0  0  0  0  0  0  0  0  0  0  0  0
   11.5183   -2.7464    4.3813 Cl  0  0  0  0  0  0  0  0  0  0  0  0
    2.8143    0.9534   -0.2313 H   0  0  0  0  0  0  0  0  0  0  0  0
    2.4098   -1.9039    0.4794 H   0  0  0  0  0  0  0  0  0  0  0  0
    4.4654   -1.5803   -1.6929 H   0  0  0  0  0  0  0  0  0  0  0  0
    6.9276   -1.5776   -1.6267 H   0  0  0  0  0  0  0  0  0  0  0  0
    4.3461   -0.4732    2.5125 H   0  0  0  0  0  0  0  0  0  0  0  0
   10.7572   -0.6788    1.7670 H   0  0  0  0  0  0  0  0  0  0  0  0
   11.0642    2.1365    4.4867 H   0  0  0  0  0  0  0  0  0  0  0  0
   13.3199    2.4860    5.4037 H   0  0  0  0  0  0  0  0  0  0  0  0
   14.7161    0.5072    5.9891 H   0  0  0  0  0  0  0  0  0  0  0  0
   13.8072   -1.7906    5.7221 H   0  0  0  0  0  0  0  0  0  0  0  0
  1  2  2  0  0  0  0
  2  3  1  0  0  0  0
  2 31  1  0  0  0  0
  3  4  1  0  0  0  0
  3 32  1  0  0  0  0
  4  5  2  0  0  0  0
  4  9  1  0  0  0  0
  5  6  1  0  0  0  0
  5 33  1  0  0  0  0
  6  7  2  0  0  0  0
  6 34  1  0  0  0  0
  7  8  1  0  0  0  0
  7 12  1  0  0  0  0
  8  9  2  0  0  0  0
  8 10  1  0  0  0  0
  9 35  1  0  0  0  0
 10 11  2  0  0  0  0
 10 17  1  0  0  0  0
 11 12  1  0  0  0  0
 11 14  1  0  0  0  0
 12 13  1  0  0  0  0
 14 15  2  0  0  0  0
 14 36  1  0  0  0  0
 15 16  1  0  0  0  0
 15 24  1  0  0  0  0
 16 17  2  0  0  0  0
 16 22  1  0  0  0  0
 17 18  1  0  0  0  0
 18 19  2  0  0  0  0
 18 20  1  0  0  0  0
 20 21  1  0  0  0  0
 20 22  1  0  0  0  0
 22 23  2  0  0  0  0
 24 25  2  0  0  0  0
 24 29  1  0  0  0  0
 25 26  1  0  0  0  0
 25 37  1  0  0  0  0
 26 27  2  0  0  0  0
 26 38  1  0  0  0  0
 27 28  1  0  0  0  0
 27 39  1  0  0  0  0
 28 29  2  0  0  0  0
 28 40  1  0  0  0  0
 29 30  1  0  0  0  0
M  END
$$$$
