778
 OpenBabel04121316063D

 49 52  0  0  0  0  0  0  0  0999 V2000
    1.1352    0.1180   -0.0626 N   0  0  0  0  0  0  0  0  0  0  0  0
    2.1579    0.2573    0.4271 C   0  0  0  0  0  0  0  0  0  0  0  0
    3.5489    0.4021    0.9743 C   0  0  0  0  0  0  0  0  0  0  0  0
    4.2937    1.6447    0.8405 C   0  0  0  0  0  0  0  0  0  0  0  0
    5.8139    1.6992    0.7515 C   0  0  0  0  0  0  0  0  0  0  0  0
    6.6134    0.4762    0.8509 C   0  0  0  0  0  0  0  0  0  0  0  0
    5.8416   -0.6784    1.3053 C   0  0  0  0  0  0  0  0  0  0  0  0
    4.3417   -0.7640    1.1855 C   0  0  0  0  0  0  0  0  0  0  0  0
    7.9223    0.2228   -0.1843 C   0  0  0  0  0  0  0  0  0  0  0  0
    8.3371   -1.1768   -0.4847 N   0  0  0  0  0  0  0  0  0  0  0  0
    9.6489   -1.5745   -0.6653 C   0  0  0  0  0  0  0  0  0  0  0  0
    9.7655   -2.8847   -0.7045 N   0  0  0  0  0  0  0  0  0  0  0  0
    8.4860   -3.3441   -0.7225 C   0  0  0  0  0  0  0  0  0  0  0  0
    7.5816   -2.2989   -0.7554 C   0  0  0  0  0  0  0  0  0  0  0  0
    6.1156   -2.4229   -0.9471 C   0  0  0  0  0  0  0  0  0  0  0  0
    5.5472   -1.3317   -1.6799 N   0  0  0  0  0  0  0  0  0  0  0  0
    5.0371   -0.0222   -1.4153 C   0  0  0  0  0  0  0  0  0  0  0  0
    5.5668    1.1194   -2.1992 C   0  0  0  0  0  0  0  0  0  0  0  0
    5.1681    0.7139   -3.4885 N   0  0  0  0  0  0  0  0  0  0  0  0
    5.3213   -0.6702   -3.8010 C   0  0  0  0  0  0  0  0  0  0  0  0
    6.1742   -1.0468   -4.6021 O   0  0  0  0  0  0  0  0  0  0  0  0
    4.7252   -1.6777   -2.7773 C   0  0  0  0  0  0  0  0  0  0  0  0
    4.2491    1.5287   -4.1154 C   0  0  0  0  0  0  0  0  0  0  0  0
    3.4163    0.9131   -5.0211 C   0  0  0  0  0  0  0  0  0  0  0  0
    2.7678    1.7008   -5.9296 C   0  0  0  0  0  0  0  0  0  0  0  0
    3.0365    3.0705   -5.9619 C   0  0  0  0  0  0  0  0  0  0  0  0
    3.7661    3.6844   -4.9509 C   0  0  0  0  0  0  0  0  0  0  0  0
    4.2789    2.9191   -3.9369 C   0  0  0  0  0  0  0  0  0  0  0  0
    4.1417    5.3587   -5.0045 Cl  0  0  0  0  0  0  0  0  0  0  0  0
    3.7328    2.5059    0.4375 H   0  0  0  0  0  0  0  0  0  0  0  0
    6.2369    2.5611    0.1985 H   0  0  0  0  0  0  0  0  0  0  0  0
    6.3886   -1.6223    1.3377 H   0  0  0  0  0  0  0  0  0  0  0  0
    3.9185   -1.7146    0.7520 H   0  0  0  0  0  0  0  0  0  0  0  0
    8.7936    0.7470    0.2127 H   0  0  0  0  0  0  0  0  0  0  0  0
    7.8624    0.6284   -1.2084 H   0  0  0  0  0  0  0  0  0  0  0  0
   10.4829   -0.8867   -0.7273 H   0  0  0  0  0  0  0  0  0  0  0  0
    8.2440   -4.4010   -0.7398 H   0  0  0  0  0  0  0  0  0  0  0  0
    5.6196   -2.7933   -0.0441 H   0  0  0  0  0  0  0  0  0  0  0  0
    6.0150   -3.3273   -1.5615 H   0  0  0  0  0  0  0  0  0  0  0  0
    5.2037    0.2101   -0.4704 H   0  0  0  0  0  0  0  0  0  0  0  0
    3.9428    0.0888   -1.4739 H   0  0  0  0  0  0  0  0  0  0  0  0
    6.6263    1.3343   -2.2154 H   0  0  0  0  0  0  0  0  0  0  0  0
    5.1124    2.0486   -1.8151 H   0  0  0  0  0  0  0  0  0  0  0  0
    4.8664   -2.7076   -3.0701 H   0  0  0  0  0  0  0  0  0  0  0  0
    3.6742   -1.5611   -2.4577 H   0  0  0  0  0  0  0  0  0  0  0  0
    3.3320   -0.1693   -5.0545 H   0  0  0  0  0  0  0  0  0  0  0  0
    2.1260    1.2178   -6.6509 H   0  0  0  0  0  0  0  0  0  0  0  0
    2.6777    3.6569   -6.7934 H   0  0  0  0  0  0  0  0  0  0  0  0
    4.7979    3.4276   -3.1280 H   0  0  0  0  0  0  0  0  0  0  0  0
  1  2  3  0  0  0  0
  2  3  1  0  0  0  0
  3  4  2  0  0  0  0
  3  8  1  0  0  0  0
  4  5  1  0  0  0  0
  4 30  1  0  0  0  0
  5  6  2  0  0  0  0
  5 31  1  0  0  0  0
  6  7  1  0  0  0  0
  6  9  1  0  0  0  0
  7  8  2  0  0  0  0
  7 32  1  0  0  0  0
  8 33  1  0  0  0  0
  9 10  1  0  0  0  0
  9 34  1  0  0  0  0
  9 35  1  0  0  0  0
 10 11  1  0  0  0  0
 10 14  1  0  0  0  0
 11 12  2  0  0  0  0
 11 36  1  0  0  0  0
 12 13  1  0  0  0  0
 13 14  2  0  0  0  0
 13 37  1  0  0  0  0
 14 15  1  0  0  0  0
 15 16  1  0  0  0  0
 15 38  1  0  0  0  0
 15 39  1  0  0  0  0
 16 17  1  0  0  0  0
 16 22  1  0  0  0  0
 17 18  1  0  0  0  0
 17 40  1  0  0  0  0
 17 41  1  0  0  0  0
 18 19  1  0  0  0  0
 18 42  1  0  0  0  0
 18 43  1  0  0  0  0
 19 20  1  0  0  0  0
 19 23  1  0  0  0  0
 20 21  2  0  0  0  0
 20 22  1  0  0  0  0
 22 44  1  0  0  0  0
 22 45  1  0  0  0  0
 23 24  2  0  0  0  0
 23 28  1  0  0  0  0
 24 25  1  0  0  0  0
 24 46  1  0  0  0  0
 25 26  2  0  0  0  0
 25 47  1  0  0  0  0
 26 27  1  0  0  0  0
 26 48  1  0  0  0  0
 27 28  2  0  0  0  0
 27 29  1  0  0  0  0
 28 49  1  0  0  0  0
M  END
$$$$
