780
 OpenBabel04121316063D

 41 44  0  0  0  0  0  0  0  0999 V2000
    0.8604   -0.2660    0.0663 O   0  5  0  0  0  0  0  0  0  0  0  0
    2.1407   -0.1483   -0.0116 C   0  0  0  0  0  0  0  0  0  0  0  0
    2.8475    1.1059    0.0578 C   0  0  0  0  0  0  0  0  0  0  0  0
    4.2676    1.0699    0.1475 C   0  0  0  0  0  0  0  0  0  0  0  0
    4.9684   -0.1110    0.3398 C   0  0  0  0  0  0  0  0  0  0  0  0
    4.3140   -1.3067    0.1392 C   0  0  0  0  0  0  0  0  0  0  0  0
    2.9335   -1.3229   -0.1378 C   0  0  0  0  0  0  0  0  0  0  0  0
    2.2842   -2.5826   -0.5440 C   0  0  0  0  0  0  0  0  0  0  0  0
    1.1583   -2.7199   -1.2362 N   0  0  0  0  0  0  0  0  0  0  0  0
    0.8804   -4.0305   -1.2640 C   0  0  0  0  0  0  0  0  0  0  0  0
    1.9190   -4.7617   -0.7236 C   0  0  0  0  0  0  0  0  0  0  0  0
    2.7873   -3.8181   -0.2632 N   0  0  0  0  0  0  0  0  0  0  0  0
    3.6516   -3.9799    0.2339 H   0  0  0  0  0  0  0  0  0  0  0  0
    1.9463   -6.1390   -0.7152 C   0  0  0  0  0  0  0  0  0  0  0  0
    0.8312   -6.7686   -1.2796 C   0  0  0  0  0  0  0  0  0  0  0  0
   -0.2804   -6.0670   -1.8100 C   0  0  0  0  0  0  0  0  0  0  0  0
   -0.2482   -4.6649   -1.7830 C   0  0  0  0  0  0  0  0  0  0  0  0
   -1.4365   -6.7762   -2.4005 C   0  0  0  0  0  0  0  0  0  0  0  0
   -2.4638   -6.1203   -2.8929 N   0  3  0  0  0  0  0  0  0  0  0  0
   -3.2630   -6.5794   -3.3039 H   0  0  0  0  0  0  0  0  0  0  0  0
   -2.4960   -5.1051   -2.8764 H   0  0  0  0  0  0  0  0  0  0  0  0
   -1.4516   -8.0966   -2.4509 N   0  0  0  0  0  0  0  0  0  0  0  0
    2.1433    2.4502    0.0545 C   0  0  0  0  0  0  0  0  0  0  0  0
    0.7428    2.5692   -0.0532 C   0  0  0  0  0  0  0  0  0  0  0  0
    0.0685    3.7727   -0.2006 C   0  0  0  0  0  0  0  0  0  0  0  0
    0.7770    4.9492   -0.1134 C   0  0  0  0  0  0  0  0  0  0  0  0
    2.1449    4.9012    0.1329 C   0  0  0  0  0  0  0  0  0  0  0  0
    2.8228    3.6742    0.1697 C   0  0  0  0  0  0  0  0  0  0  0  0
    4.8631    1.9725    0.0918 H   0  0  0  0  0  0  0  0  0  0  0  0
    6.0201   -0.0893    0.6045 H   0  0  0  0  0  0  0  0  0  0  0  0
    4.8945   -2.2175    0.1789 H   0  0  0  0  0  0  0  0  0  0  0  0
    2.7890   -6.6851   -0.3106 H   0  0  0  0  0  0  0  0  0  0  0  0
    0.8801   -7.8506   -1.2811 H   0  0  0  0  0  0  0  0  0  0  0  0
   -1.0274   -4.0079   -2.1486 H   0  0  0  0  0  0  0  0  0  0  0  0
   -0.6854   -8.6425   -2.0878 H   0  0  0  0  0  0  0  0  0  0  0  0
   -2.2216   -8.6095   -2.8492 H   0  0  0  0  0  0  0  0  0  0  0  0
    0.0910    1.7077   -0.0196 H   0  0  0  0  0  0  0  0  0  0  0  0
   -1.0029    3.7395   -0.3651 H   0  0  0  0  0  0  0  0  0  0  0  0
    0.2555    5.8910   -0.2143 H   0  0  0  0  0  0  0  0  0  0  0  0
    2.6972    5.8192    0.2958 H   0  0  0  0  0  0  0  0  0  0  0  0
    3.8971    3.7133    0.3060 H   0  0  0  0  0  0  0  0  0  0  0  0
  1  2  1  0  0  0  0
  2  3  2  0  0  0  0
  2  7  1  0  0  0  0
  3  4  1  0  0  0  0
  3 23  1  0  0  0  0
  4  5  2  0  0  0  0
  4 29  1  0  0  0  0
  5  6  1  0  0  0  0
  5 30  1  0  0  0  0
  6  7  2  0  0  0  0
  6 31  1  0  0  0  0
  7  8  1  0  0  0  0
  8  9  2  0  0  0  0
  8 12  1  0  0  0  0
  9 10  1  0  0  0  0
 10 11  2  0  0  0  0
 10 17  1  0  0  0  0
 11 12  1  0  0  0  0
 11 14  1  0  0  0  0
 12 13  1  0  0  0  0
 14 15  2  0  0  0  0
 14 32  1  0  0  0  0
 15 16  1  0  0  0  0
 15 33  1  0  0  0  0
 16 17  2  0  0  0  0
 16 18  1  0  0  0  0
 17 34  1  0  0  0  0
 18 19  2  0  0  0  0
 18 22  1  0  0  0  0
 19 20  1  0  0  0  0
 19 21  1  0  0  0  0
 22 35  1  0  0  0  0
 22 36  1  0  0  0  0
 23 24  2  0  0  0  0
 23 28  1  0  0  0  0
 24 25  1  0  0  0  0
 24 37  1  0  0  0  0
 25 26  2  0  0  0  0
 25 38  1  0  0  0  0
 26 27  1  0  0  0  0
 26 39  1  0  0  0  0
 27 28  2  0  0  0  0
 27 40  1  0  0  0  0
 28 41  1  0  0  0  0
M  CHG  2   1  -1  19   1
M  END
$$$$
