78H
 OpenBabel04121316063D

 37 39  0  0  0  0  0  0  0  0999 V2000
    1.0781   -0.2151   -0.1120 O   0  0  0  0  0  0  0  0  0  0  0  0
    2.4026   -0.0217    0.0288 C   0  0  0  0  0  0  0  0  0  0  0  0
    2.8987    1.0849    0.1604 O   0  0  0  0  0  0  0  0  0  0  0  0
    3.1249   -1.2761   -0.2275 C   0  0  0  0  0  0  0  0  0  0  0  0
    4.3455   -1.2295   -0.9053 C   0  0  0  0  0  0  0  0  0  0  0  0
    4.9235   -2.4133   -1.3636 C   0  0  0  0  0  0  0  0  0  0  0  0
    4.3592   -3.6498   -1.0474 C   0  0  0  0  0  0  0  0  0  0  0  0
    3.2302   -3.6712   -0.2133 C   0  0  0  0  0  0  0  0  0  0  0  0
    2.5674   -2.4998    0.1311 C   0  0  0  0  0  0  0  0  0  0  0  0
    4.9968   -4.8037   -1.4641 N   0  0  0  0  0  0  0  0  0  0  0  0
    4.3582   -6.0788   -1.2454 C   0  0  0  0  0  0  0  0  0  0  0  0
    5.0510   -7.2005   -1.9769 C   0  0  0  0  0  0  0  0  0  0  0  0
    6.0017   -6.9640   -2.8378 N   0  0  0  0  0  0  0  0  0  0  0  0
    6.5399   -8.0712   -3.4793 C   0  0  0  0  0  0  0  0  0  0  0  0
    6.1632   -9.3617   -3.2781 C   0  0  0  0  0  0  0  0  0  0  0  0
    5.1793   -9.6088   -2.3414 N   0  0  0  0  0  0  0  0  0  0  0  0
    4.4900   -8.5672   -1.6349 C   0  0  0  0  0  0  0  0  0  0  0  0
    6.7042  -10.4321   -3.9507 N   0  0  0  0  0  0  0  0  0  0  0  0
    7.6396  -10.2126   -4.8159 C   0  0  0  0  0  0  0  0  0  0  0  0
    8.1066   -8.9697   -5.0889 N   0  0  0  0  0  0  0  0  0  0  0  0
    8.8354   -8.8197   -5.7640 H   0  0  0  0  0  0  0  0  0  0  0  0
    7.6211   -7.8494   -4.4844 C   0  0  0  0  0  0  0  0  0  0  0  0
    8.0637   -6.7392   -4.7711 O   0  0  0  0  0  0  0  0  0  0  0  0
    8.2066  -11.2279   -5.5024 N   0  0  0  0  0  0  0  0  0  0  0  0
    0.6985    0.6735   -0.2654 H   0  0  0  0  0  0  0  0  0  0  0  0
    4.8305   -0.2797   -1.1117 H   0  0  0  0  0  0  0  0  0  0  0  0
    5.8207   -2.3705   -1.9771 H   0  0  0  0  0  0  0  0  0  0  0  0
    2.8244   -4.6034    0.1664 H   0  0  0  0  0  0  0  0  0  0  0  0
    1.6258   -2.5525    0.6704 H   0  0  0  0  0  0  0  0  0  0  0  0
    5.6375   -4.7653   -2.2584 H   0  0  0  0  0  0  0  0  0  0  0  0
    3.3112   -6.0848   -1.5779 H   0  0  0  0  0  0  0  0  0  0  0  0
    4.3930   -6.3104   -0.1755 H   0  0  0  0  0  0  0  0  0  0  0  0
    4.8827  -10.5716   -2.2539 H   0  0  0  0  0  0  0  0  0  0  0  0
    4.5875   -8.7068   -0.5536 H   0  0  0  0  0  0  0  0  0  0  0  0
    3.4274   -8.5584   -1.8984 H   0  0  0  0  0  0  0  0  0  0  0  0
    7.8797  -12.1681   -5.3195 H   0  0  0  0  0  0  0  0  0  0  0  0
    8.9399  -11.1023   -6.1825 H   0  0  0  0  0  0  0  0  0  0  0  0
  1  2  1  0  0  0  0
  1 25  1  0  0  0  0
  2  3  2  0  0  0  0
  2  4  1  0  0  0  0
  4  5  2  0  0  0  0
  4  9  1  0  0  0  0
  5  6  1  0  0  0  0
  5 26  1  0  0  0  0
  6  7  2  0  0  0  0
  6 27  1  0  0  0  0
  7  8  1  0  0  0  0
  7 10  1  0  0  0  0
  8  9  2  0  0  0  0
  8 28  1  0  0  0  0
  9 29  1  0  0  0  0
 10 11  1  0  0  0  0
 10 30  1  0  0  0  0
 11 12  1  0  0  0  0
 11 31  1  0  0  0  0
 11 32  1  0  0  0  0
 12 13  2  0  0  0  0
 12 17  1  0  0  0  0
 13 14  1  0  0  0  0
 14 15  2  0  0  0  0
 14 22  1  0  0  0  0
 15 16  1  0  0  0  0
 15 18  1  0  0  0  0
 16 17  1  0  0  0  0
 16 33  1  0  0  0  0
 17 34  1  0  0  0  0
 17 35  1  0  0  0  0
 18 19  2  0  0  0  0
 19 20  1  0  0  0  0
 19 24  1  0  0  0  0
 20 21  1  0  0  0  0
 20 22  1  0  0  0  0
 22 23  2  0  0  0  0
 24 36  1  0  0  0  0
 24 37  1  0  0  0  0
M  END
$$$$
