78P
 OpenBabel04121316063D

 34 36  0  0  1  0  0  0  0  0999 V2000
    1.0914    0.0259   -0.0459 N   0  0  0  0  0  0  0  0  0  0  0  0
    2.4567   -0.0047   -0.0190 C   0  0  0  0  0  0  0  0  0  0  0  0
    3.0756   -1.0578   -0.1416 O   0  0  0  0  0  0  0  0  0  0  0  0
    3.1615    1.2777    0.2008 C   0  0  0  0  0  0  0  0  0  0  0  0
    2.5433    2.5277    0.0218 C   0  0  0  0  0  0  0  0  0  0  0  0
    3.2386    3.7181    0.2349 C   0  0  0  0  0  0  0  0  0  0  0  0
    4.5792    3.6982    0.6355 C   0  0  0  0  0  0  0  0  0  0  0  0
    5.2130    2.4601    0.8265 C   0  0  0  0  0  0  0  0  0  0  0  0
    4.5054    1.2897    0.5969 C   0  0  0  0  0  0  0  0  0  0  0  0
    5.4151    0.2886    0.8433 N   0  0  0  0  0  0  0  0  0  0  0  0
    5.2331   -0.6998    0.7224 H   0  0  0  0  0  0  0  0  0  0  0  0
    6.5983    0.8613    1.2459 C   0  0  0  0  0  0  0  0  0  0  0  0
    6.4923    2.1810    1.2337 N   0  0  0  0  0  0  0  0  0  0  0  0
    7.8576    0.0870    1.5723 C   0  0  1  0  0  0  0  0  0  0  0  0
    8.8860    0.4046    0.4696 C   0  0  0  0  0  0  0  0  0  0  0  0
    8.3768    0.4655    2.9634 C   0  0  0  0  0  0  0  0  0  0  0  0
    9.2633   -0.6998    3.3488 C   0  0  0  0  0  0  0  0  0  0  0  0
    8.5578   -1.8914    2.7323 C   0  0  0  0  0  0  0  0  0  0  0  0
    7.6882   -1.3889    1.6487 N   0  0  0  0  0  0  0  0  0  0  0  0
    0.6020   -0.8507   -0.1643 H   0  0  0  0  0  0  0  0  0  0  0  0
    0.5410    0.8431    0.1731 H   0  0  0  0  0  0  0  0  0  0  0  0
    1.5118    2.5962   -0.3096 H   0  0  0  0  0  0  0  0  0  0  0  0
    2.7329    4.6690    0.0843 H   0  0  0  0  0  0  0  0  0  0  0  0
    5.1240    4.6220    0.7970 H   0  0  0  0  0  0  0  0  0  0  0  0
    9.0621    1.4858    0.4009 H   0  0  0  0  0  0  0  0  0  0  0  0
    8.5198    0.0780   -0.5119 H   0  0  0  0  0  0  0  0  0  0  0  0
    9.8556   -0.0735    0.6396 H   0  0  0  0  0  0  0  0  0  0  0  0
    7.5507    0.5415    3.6838 H   0  0  0  0  0  0  0  0  0  0  0  0
    8.9215    1.4152    2.9814 H   0  0  0  0  0  0  0  0  0  0  0  0
    9.3741   -0.7937    4.4338 H   0  0  0  0  0  0  0  0  0  0  0  0
   10.2641   -0.5825    2.9176 H   0  0  0  0  0  0  0  0  0  0  0  0
    7.9381   -2.3875    3.4896 H   0  0  0  0  0  0  0  0  0  0  0  0
    9.2710   -2.6332    2.3587 H   0  0  0  0  0  0  0  0  0  0  0  0
    6.7363   -1.6212    1.9193 H   0  0  0  0  0  0  0  0  0  0  0  0
  1  2  1  0  0  0  0
  1 20  1  0  0  0  0
  1 21  1  0  0  0  0
  2  3  2  0  0  0  0
  2  4  1  0  0  0  0
  4  5  2  0  0  0  0
  4  9  1  0  0  0  0
  5  6  1  0  0  0  0
  5 22  1  0  0  0  0
  6  7  2  0  0  0  0
  6 23  1  0  0  0  0
  7  8  1  0  0  0  0
  7 24  1  0  0  0  0
  8  9  2  0  0  0  0
  8 13  1  0  0  0  0
  9 10  1  0  0  0  0
 10 11  1  0  0  0  0
 10 12  1  0  0  0  0
 12 13  2  0  0  0  0
 14 12  1  6  0  0  0
 14 15  1  0  0  0  0
 14 16  1  0  0  0  0
 14 19  1  0  0  0  0
 15 25  1  0  0  0  0
 15 26  1  0  0  0  0
 15 27  1  0  0  0  0
 16 17  1  0  0  0  0
 16 28  1  0  0  0  0
 16 29  1  0  0  0  0
 17 18  1  0  0  0  0
 17 30  1  0  0  0  0
 17 31  1  0  0  0  0
 18 19  1  0  0  0  0
 18 32  1  0  0  0  0
 18 33  1  0  0  0  0
 19 34  1  0  0  0  0
M  END
$$$$
