795
 OpenBabel04121316063D

 19 20  0  0  0  0  0  0  0  0999 V2000
    1.0482   -0.1200   -0.1546 O   0  0  0  0  0  0  0  0  0  0  0  0
    2.2695   -0.1077    0.0208 C   0  0  0  0  0  0  0  0  0  0  0  0
    2.9261    0.9081    0.8163 C   0  0  0  0  0  0  0  0  0  0  0  0
    2.6218    2.2438    0.6735 C   0  0  0  0  0  0  0  0  0  0  0  0
    3.4458    3.1624    1.8261 S   0  0  0  0  0  0  0  0  0  0  0  0
    4.1977    1.7296    2.4443 C   0  0  0  0  0  0  0  0  0  0  0  0
    3.8780    0.6207    1.7963 N   0  0  0  0  0  0  0  0  0  0  0  0
    5.1229    1.8415    3.5793 C   0  0  0  0  0  0  0  0  0  0  0  0
    5.5213    3.0843    4.0959 C   0  0  0  0  0  0  0  0  0  0  0  0
    6.4321    3.1660    5.1375 C   0  0  0  0  0  0  0  0  0  0  0  0
    6.9942    1.9910    5.5903 C   0  0  0  0  0  0  0  0  0  0  0  0
    6.6143    0.7659    5.1648 N   0  0  0  0  0  0  0  0  0  0  0  0
    5.6604    0.7180    4.1973 C   0  0  0  0  0  0  0  0  0  0  0  0
    2.9230   -0.8484   -0.4593 H   0  0  0  0  0  0  0  0  0  0  0  0
    1.9472    2.7063   -0.0296 H   0  0  0  0  0  0  0  0  0  0  0  0
    5.1401    4.0183    3.6935 H   0  0  0  0  0  0  0  0  0  0  0  0
    6.6983    4.1284    5.5583 H   0  0  0  0  0  0  0  0  0  0  0  0
    7.7912    2.0099    6.3264 H   0  0  0  0  0  0  0  0  0  0  0  0
    5.3304   -0.2862    3.9381 H   0  0  0  0  0  0  0  0  0  0  0  0
  1  2  2  0  0  0  0
  2  3  1  0  0  0  0
  2 14  1  0  0  0  0
  3  4  2  0  0  0  0
  3  7  1  0  0  0  0
  4  5  1  0  0  0  0
  4 15  1  0  0  0  0
  5  6  1  0  0  0  0
  6  7  2  0  0  0  0
  6  8  1  0  0  0  0
  8  9  2  0  0  0  0
  8 13  1  0  0  0  0
  9 10  1  0  0  0  0
  9 16  1  0  0  0  0
 10 11  2  0  0  0  0
 10 17  1  0  0  0  0
 11 12  1  0  0  0  0
 11 18  1  0  0  0  0
 12 13  2  0  0  0  0
 13 19  1  0  0  0  0
M  END
$$$$
