796
 OpenBabel04121316063D

 47 49  0  0  1  0  0  0  0  0999 V2000
    1.4747   -2.7280    0.0894 N   0  0  0  0  0  0  0  0  0  0  0  0
    2.6274   -2.3720   -0.7305 C   0  0  0  0  0  0  0  0  0  0  0  0
    3.0004   -0.8861   -1.0273 C   0  0  2  0  0  0  0  0  0  0  0  0
    2.7026   -0.2280   -0.1997 H   0  0  0  0  0  0  0  0  0  0  0  0
    2.4512   -0.3231   -2.3619 C   0  0  0  0  0  0  0  0  0  0  0  0
    0.9558   -0.2692   -2.4431 C   0  0  0  0  0  0  0  0  0  0  0  0
    0.2453   -1.4797   -2.5461 C   0  0  0  0  0  0  0  0  0  0  0  0
   -1.1323   -1.5028   -2.6737 C   0  0  0  0  0  0  0  0  0  0  0  0
   -1.8207   -0.3017   -2.6927 C   0  0  0  0  0  0  0  0  0  0  0  0
   -1.1480    0.9095   -2.5378 C   0  0  0  0  0  0  0  0  0  0  0  0
    0.2423    0.9314   -2.4595 C   0  0  0  0  0  0  0  0  0  0  0  0
    1.0238    2.4726   -2.4512 Cl  0  0  0  0  0  0  0  0  0  0  0  0
   -3.5123   -0.3174   -2.9811 Cl  0  0  0  0  0  0  0  0  0  0  0  0
    4.4568   -0.8428   -1.0959 N   0  0  0  0  0  0  0  0  0  0  0  0
    5.0866   -1.6866   -1.9967 C   0  0  0  0  0  0  0  0  0  0  0  0
    4.5042   -2.3832   -2.8099 O   0  0  0  0  0  0  0  0  0  0  0  0
    6.4994   -1.6324   -1.9420 C   0  0  0  0  0  0  0  0  0  0  0  0
    7.4002   -2.3619   -1.2093 C   0  0  0  0  0  0  0  0  0  0  0  0
    8.7307   -2.0344   -1.6013 C   0  0  0  0  0  0  0  0  0  0  0  0
    8.7498   -1.0606   -2.5857 C   0  0  0  0  0  0  0  0  0  0  0  0
    7.1900   -0.6086   -3.0816 S   0  0  0  0  0  0  0  0  0  0  0  0
    9.8546   -0.3767   -3.2173 C   0  0  0  0  0  0  0  0  0  0  0  0
    9.8230    0.9831   -3.4098 C   0  0  0  0  0  0  0  0  0  0  0  0
   11.0210    1.5294   -3.7466 C   0  0  0  0  0  0  0  0  0  0  0  0
   12.0782    0.7930   -4.1273 N   0  0  0  0  0  0  0  0  0  0  0  0
   11.9415   -0.5399   -4.0769 C   0  0  0  0  0  0  0  0  0  0  0  0
   10.8946   -1.1523   -3.5292 N   0  0  0  0  0  0  0  0  0  0  0  0
   12.9271   -1.2937   -4.6436 N   0  0  0  0  0  0  0  0  0  0  0  0
   12.8542   -2.7280   -4.6599 C   0  0  0  0  0  0  0  0  0  0  0  0
    1.3546   -3.7394   -0.0204 H   0  0  0  0  0  0  0  0  0  0  0  0
    0.6102   -2.3185   -0.2547 H   0  0  0  0  0  0  0  0  0  0  0  0
    2.5399   -2.8986   -1.6851 H   0  0  0  0  0  0  0  0  0  0  0  0
    3.4761   -2.8377   -0.2198 H   0  0  0  0  0  0  0  0  0  0  0  0
    2.7917   -0.9005   -3.2302 H   0  0  0  0  0  0  0  0  0  0  0  0
    2.9097    0.6602   -2.5380 H   0  0  0  0  0  0  0  0  0  0  0  0
    0.7512   -2.4406   -2.5333 H   0  0  0  0  0  0  0  0  0  0  0  0
   -1.6395   -2.4582   -2.7742 H   0  0  0  0  0  0  0  0  0  0  0  0
   -1.7025    1.8406   -2.5003 H   0  0  0  0  0  0  0  0  0  0  0  0
    4.9905   -0.3116   -0.4189 H   0  0  0  0  0  0  0  0  0  0  0  0
    7.1251   -3.1053   -0.4688 H   0  0  0  0  0  0  0  0  0  0  0  0
    9.6242   -2.4748   -1.1724 H   0  0  0  0  0  0  0  0  0  0  0  0
    8.9448    1.5865   -3.2303 H   0  0  0  0  0  0  0  0  0  0  0  0
   11.1624    2.6022   -3.6857 H   0  0  0  0  0  0  0  0  0  0  0  0
   13.6282   -0.7840   -5.1562 H   0  0  0  0  0  0  0  0  0  0  0  0
   11.9817   -3.1408   -4.1404 H   0  0  0  0  0  0  0  0  0  0  0  0
   13.7410   -3.1287   -4.1634 H   0  0  0  0  0  0  0  0  0  0  0  0
   12.8270   -3.1054   -5.6865 H   0  0  0  0  0  0  0  0  0  0  0  0
  1  2  1  0  0  0  0
  1 30  1  0  0  0  0
  1 31  1  0  0  0  0
  2 32  1  0  0  0  0
  2 33  1  0  0  0  0
  3  5  1  0  0  0  0
  3 14  1  0  0  0  0
  3  4  1  1  0  0  0
  3  2  1  0  0  0  0
  5  6  1  0  0  0  0
  5 34  1  0  0  0  0
  5 35  1  0  0  0  0
  6  7  2  0  0  0  0
  6 11  1  0  0  0  0
  7  8  1  0  0  0  0
  7 36  1  0  0  0  0
  8  9  2  0  0  0  0
  8 37  1  0  0  0  0
  9 10  1  0  0  0  0
  9 13  1  0  0  0  0
 10 11  2  0  0  0  0
 10 38  1  0  0  0  0
 11 12  1  0  0  0  0
 14 15  1  0  0  0  0
 14 39  1  0  0  0  0
 15 16  2  0  0  0  0
 15 17  1  0  0  0  0
 17 18  2  0  0  0  0
 17 21  1  0  0  0  0
 18 19  1  0  0  0  0
 18 40  1  0  0  0  0
 19 20  2  0  0  0  0
 19 41  1  0  0  0  0
 20 21  1  0  0  0  0
 20 22  1  0  0  0  0
 22 23  2  0  0  0  0
 22 27  1  0  0  0  0
 23 24  1  0  0  0  0
 23 42  1  0  0  0  0
 24 25  2  0  0  0  0
 24 43  1  0  0  0  0
 25 26  1  0  0  0  0
 26 27  2  0  0  0  0
 26 28  1  0  0  0  0
 28 29  1  0  0  0  0
 28 44  1  0  0  0  0
 29 45  1  0  0  0  0
 29 46  1  0  0  0  0
 29 47  1  0  0  0  0
M  END
$$$$
