79X
 OpenBabel04121316063D

 35 38  0  0  0  0  0  0  0  0999 V2000
    1.0588    0.0290   -0.0629 C   0  0  0  0  0  0  0  0  0  0  0  0
    2.4797    0.1141   -0.1797 O   0  0  0  0  0  0  0  0  0  0  0  0
    3.0377    0.8258    0.8562 C   0  0  0  0  0  0  0  0  0  0  0  0
    2.8235    2.2309    0.8690 C   0  0  0  0  0  0  0  0  0  0  0  0
    3.4000    2.9924    1.8657 C   0  0  0  0  0  0  0  0  0  0  0  0
    3.3626    4.4296    2.1798 C   0  0  0  0  0  0  0  0  0  0  0  0
    2.8732    5.6703    1.8182 C   0  0  0  0  0  0  0  0  0  0  0  0
    3.3756    6.6435    2.7852 C   0  0  0  0  0  0  0  0  0  0  0  0
    4.1619    5.9290    3.7037 C   0  0  0  0  0  0  0  0  0  0  0  0
    4.1309    4.6156    3.3086 N   0  0  0  0  0  0  0  0  0  0  0  0
    4.6678    3.4015    3.7476 C   0  0  0  0  0  0  0  0  0  0  0  0
    5.3806    3.3161    4.7349 O   0  0  0  0  0  0  0  0  0  0  0  0
    4.2069    2.3330    2.8249 C   0  0  0  0  0  0  0  0  0  0  0  0
    4.4594    0.9601    2.8180 C   0  0  0  0  0  0  0  0  0  0  0  0
    3.8721    0.1807    1.8040 C   0  0  0  0  0  0  0  0  0  0  0  0
    4.1846   -1.1603    1.8607 O   0  0  0  0  0  0  0  0  0  0  0  0
    3.6607   -2.0223    0.8487 C   0  0  0  0  0  0  0  0  0  0  0  0
    4.8096    6.5498    4.7845 C   0  0  0  0  0  0  0  0  0  0  0  0
    4.6724    7.9307    4.9578 C   0  0  0  0  0  0  0  0  0  0  0  0
    3.9044    8.6693    4.0706 C   0  0  0  0  0  0  0  0  0  0  0  0
    3.2511    8.0530    2.9857 C   0  0  0  0  0  0  0  0  0  0  0  0
    3.7685   10.0229    4.2380 O   0  0  0  0  0  0  0  0  0  0  0  0
    0.7031   -0.6467   -0.8474 H   0  0  0  0  0  0  0  0  0  0  0  0
    0.5972    1.0059   -0.2229 H   0  0  0  0  0  0  0  0  0  0  0  0
    0.7546   -0.3895    0.9039 H   0  0  0  0  0  0  0  0  0  0  0  0
    2.2248    2.6828    0.0880 H   0  0  0  0  0  0  0  0  0  0  0  0
    2.2308    5.8933    0.9745 H   0  0  0  0  0  0  0  0  0  0  0  0
    5.0953    0.5038    3.5732 H   0  0  0  0  0  0  0  0  0  0  0  0
    4.0081   -3.0467    1.0240 H   0  0  0  0  0  0  0  0  0  0  0  0
    4.0196   -1.7338   -0.1454 H   0  0  0  0  0  0  0  0  0  0  0  0
    2.5682   -2.0620    0.8965 H   0  0  0  0  0  0  0  0  0  0  0  0
    5.4094    5.9666    5.4760 H   0  0  0  0  0  0  0  0  0  0  0  0
    5.1782    8.4035    5.7959 H   0  0  0  0  0  0  0  0  0  0  0  0
    2.6605    8.6789    2.3194 H   0  0  0  0  0  0  0  0  0  0  0  0
    4.2740   10.3038    5.0222 H   0  0  0  0  0  0  0  0  0  0  0  0
  1  2  1  0  0  0  0
  1 23  1  0  0  0  0
  1 24  1  0  0  0  0
  1 25  1  0  0  0  0
  2  3  1  0  0  0  0
  3  4  2  0  0  0  0
  3 15  1  0  0  0  0
  4  5  1  0  0  0  0
  4 26  1  0  0  0  0
  5  6  1  0  0  0  0
  5 13  2  0  0  0  0
  6  7  2  0  0  0  0
  6 10  1  0  0  0  0
  7  8  1  0  0  0  0
  7 27  1  0  0  0  0
  8  9  2  0  0  0  0
  8 21  1  0  0  0  0
  9 10  1  0  0  0  0
  9 18  1  0  0  0  0
 10 11  1  0  0  0  0
 11 12  2  0  0  0  0
 11 13  1  0  0  0  0
 13 14  1  0  0  0  0
 14 15  2  0  0  0  0
 14 28  1  0  0  0  0
 15 16  1  0  0  0  0
 16 17  1  0  0  0  0
 17 29  1  0  0  0  0
 17 30  1  0  0  0  0
 17 31  1  0  0  0  0
 18 19  2  0  0  0  0
 18 32  1  0  0  0  0
 19 20  1  0  0  0  0
 19 33  1  0  0  0  0
 20 21  2  0  0  0  0
 20 22  1  0  0  0  0
 21 34  1  0  0  0  0
 22 35  1  0  0  0  0
M  END
$$$$
