79Z
 OpenBabel04121316063D

 54 57  0  0  0  0  0  0  0  0999 V2000
    0.6697   -0.0860   -0.0294 O   0  0  0  0  0  0  0  0  0  0  0  0
    2.0752   -0.0719    0.0015 C   0  0  0  0  0  0  0  0  0  0  0  0
    2.8197   -1.0232   -0.8829 C   0  0  0  0  0  0  0  0  0  0  0  0
    4.3112   -0.8509   -0.7947 N   0  0  0  0  0  0  0  0  0  0  0  0
    5.2292   -0.2054    0.5218 S   0  0  0  0  0  0  0  0  0  0  0  0
    5.4751   -1.2534    1.4707 O   0  0  0  0  0  0  0  0  0  0  0  0
    6.3867    0.5377    0.0354 O   0  0  0  0  0  0  0  0  0  0  0  0
    4.2579    1.0757    1.3367 C   0  0  0  0  0  0  0  0  0  0  0  0
    4.9810   -1.7740   -1.7030 C   0  0  0  0  0  0  0  0  0  0  0  0
    4.7147   -3.2001   -1.6380 C   0  0  0  0  0  0  0  0  0  0  0  0
    5.3124   -4.0369   -2.6070 C   0  0  0  0  0  0  0  0  0  0  0  0
    5.2252   -5.4050   -2.7596 O   0  0  0  0  0  0  0  0  0  0  0  0
    6.0083   -5.7366   -3.8448 C   0  0  0  0  0  0  0  0  0  0  0  0
    6.6333   -4.6175   -4.3678 C   0  0  0  0  0  0  0  0  0  0  0  0
    6.1214   -3.5284   -3.6091 C   0  0  0  0  0  0  0  0  0  0  0  0
    6.2868   -2.1416   -3.6446 C   0  0  0  0  0  0  0  0  0  0  0  0
    5.7723   -1.2253   -2.7187 C   0  0  0  0  0  0  0  0  0  0  0  0
    6.4214    0.1313   -2.8669 C   0  0  0  0  0  0  0  0  0  0  0  0
    5.9842    1.2801   -3.7493 C   0  0  0  0  0  0  0  0  0  0  0  0
    6.1107    1.4629   -2.2809 C   0  0  0  0  0  0  0  0  0  0  0  0
    7.5768   -4.6650   -5.4819 C   0  0  0  0  0  0  0  0  0  0  0  0
    7.9168   -5.7102   -6.0273 O   0  0  0  0  0  0  0  0  0  0  0  0
    8.0875   -3.4676   -5.9103 N   0  0  0  0  0  0  0  0  0  0  0  0
    9.0059   -3.3723   -7.0035 C   0  0  0  0  0  0  0  0  0  0  0  0
    6.0030   -7.1159   -4.3159 C   0  0  0  0  0  0  0  0  0  0  0  0
    5.6451   -7.3740   -5.6556 C   0  0  0  0  0  0  0  0  0  0  0  0
    5.5947   -8.6732   -6.1474 C   0  0  0  0  0  0  0  0  0  0  0  0
    6.0106   -9.7101   -5.3291 C   0  0  0  0  0  0  0  0  0  0  0  0
    6.5142   -9.4621   -4.0539 C   0  0  0  0  0  0  0  0  0  0  0  0
    6.4675   -8.1682   -3.5255 C   0  0  0  0  0  0  0  0  0  0  0  0
    5.9203  -10.9700   -5.7729 F   0  0  0  0  0  0  0  0  0  0  0  0
    0.4196    0.5822    0.6406 H   0  0  0  0  0  0  0  0  0  0  0  0
    2.3352   -0.3538    1.0158 H   0  0  0  0  0  0  0  0  0  0  0  0
    2.3629    0.9324   -0.3004 H   0  0  0  0  0  0  0  0  0  0  0  0
    2.5199   -0.8255   -1.9245 H   0  0  0  0  0  0  0  0  0  0  0  0
    2.5003   -2.0472   -0.6646 H   0  0  0  0  0  0  0  0  0  0  0  0
    3.5679    0.6110    2.0401 H   0  0  0  0  0  0  0  0  0  0  0  0
    3.7825    1.7435    0.6179 H   0  0  0  0  0  0  0  0  0  0  0  0
    4.9145    1.7169    1.9241 H   0  0  0  0  0  0  0  0  0  0  0  0
    4.0770   -3.6410   -0.8755 H   0  0  0  0  0  0  0  0  0  0  0  0
    6.9344   -1.6955   -4.3777 H   0  0  0  0  0  0  0  0  0  0  0  0
    7.4991   -0.0440   -2.9175 H   0  0  0  0  0  0  0  0  0  0  0  0
    4.9745    1.4851   -4.0822 H   0  0  0  0  0  0  0  0  0  0  0  0
    6.7521    1.7740   -4.3370 H   0  0  0  0  0  0  0  0  0  0  0  0
    5.1937    1.6952   -1.7630 H   0  0  0  0  0  0  0  0  0  0  0  0
    6.9969    1.9247   -1.8498 H   0  0  0  0  0  0  0  0  0  0  0  0
    7.8951   -2.6158   -5.4331 H   0  0  0  0  0  0  0  0  0  0  0  0
    9.1952   -4.3462   -7.4541 H   0  0  0  0  0  0  0  0  0  0  0  0
    9.9326   -2.9464   -6.6150 H   0  0  0  0  0  0  0  0  0  0  0  0
    8.5651   -2.6954   -7.7377 H   0  0  0  0  0  0  0  0  0  0  0  0
    5.4505   -6.5518   -6.3433 H   0  0  0  0  0  0  0  0  0  0  0  0
    5.2526   -8.8679   -7.1580 H   0  0  0  0  0  0  0  0  0  0  0  0
    6.9373  -10.2794   -3.4799 H   0  0  0  0  0  0  0  0  0  0  0  0
    6.8258   -7.9798   -2.5171 H   0  0  0  0  0  0  0  0  0  0  0  0
  1  2  1  0  0  0  0
  1 32  1  0  0  0  0
  2  3  1  0  0  0  0
  2 33  1  0  0  0  0
  2 34  1  0  0  0  0
  3  4  1  0  0  0  0
  3 35  1  0  0  0  0
  3 36  1  0  0  0  0
  4  5  1  0  0  0  0
  4  9  1  0  0  0  0
  5  6  2  0  0  0  0
  5  7  2  0  0  0  0
  5  8  1  0  0  0  0
  8 37  1  0  0  0  0
  8 38  1  0  0  0  0
  8 39  1  0  0  0  0
  9 10  2  0  0  0  0
  9 17  1  0  0  0  0
 10 11  1  0  0  0  0
 10 40  1  0  0  0  0
 11 12  1  0  0  0  0
 11 15  2  0  0  0  0
 12 13  1  0  0  0  0
 13 14  2  0  0  0  0
 13 25  1  0  0  0  0
 14 15  1  0  0  0  0
 14 21  1  0  0  0  0
 15 16  1  0  0  0  0
 16 17  2  0  0  0  0
 16 41  1  0  0  0  0
 17 18  1  0  0  0  0
 18 19  1  0  0  0  0
 18 20  1  0  0  0  0
 18 42  1  0  0  0  0
 19 20  1  0  0  0  0
 19 43  1  0  0  0  0
 19 44  1  0  0  0  0
 20 45  1  0  0  0  0
 20 46  1  0  0  0  0
 21 22  2  0  0  0  0
 21 23  1  0  0  0  0
 23 24  1  0  0  0  0
 23 47  1  0  0  0  0
 24 48  1  0  0  0  0
 24 49  1  0  0  0  0
 24 50  1  0  0  0  0
 25 26  2  0  0  0  0
 25 30  1  0  0  0  0
 26 27  1  0  0  0  0
 26 51  1  0  0  0  0
 27 28  2  0  0  0  0
 27 52  1  0  0  0  0
 28 29  1  0  0  0  0
 28 31  1  0  0  0  0
 29 30  2  0  0  0  0
 29 53  1  0  0  0  0
 30 54  1  0  0  0  0
M  END
$$$$
