7CK
 OpenBabel04121316063D

 40 45  0  0  0  0  0  0  0  0999 V2000
    1.7260   -0.5680   -1.5037 O   0  0  0  0  0  0  0  0  0  0  0  0
    2.9670   -0.1090   -1.0374 C   0  0  0  0  0  0  0  0  0  0  0  0
    3.3417   -0.5806   -0.0437 O   0  0  0  0  0  0  0  0  0  0  0  0
    3.8186    1.1028   -1.9512 C   0  0  0  0  0  0  0  0  0  0  0  0
    4.8014    1.0859   -0.8860 N   0  0  0  0  0  0  0  0  0  0  0  0
    4.9077    0.3304   -0.2034 H   0  0  0  0  0  0  0  0  0  0  0  0
    5.2354    2.3346   -0.6581 C   0  0  0  0  0  0  0  0  0  0  0  0
    4.1884    3.1683   -1.0582 C   0  0  0  0  0  0  0  0  0  0  0  0
    4.3254    2.6839   -2.3338 C   0  0  0  0  0  0  0  0  0  0  0  0
    4.1873    4.3292   -3.0980 C   0  0  0  0  0  0  0  0  0  0  0  0
    4.9789    5.7874   -3.1761 C   0  0  0  0  0  0  0  0  0  0  0  0
    4.7720    7.3388   -2.7532 C   0  0  0  0  0  0  0  0  0  0  0  0
    4.8716    8.5279   -3.6599 C   0  0  0  0  0  0  0  0  0  0  0  0
    5.3321    8.3368   -4.9309 C   0  0  0  0  0  0  0  0  0  0  0  0
    5.3366    6.9958   -5.3053 C   0  0  0  0  0  0  0  0  0  0  0  0
    4.6003    5.9513   -4.5445 C   0  0  0  0  0  0  0  0  0  0  0  0
    3.0927    5.9081   -4.0708 N   0  0  0  0  0  0  0  0  0  0  0  0
    2.5897    6.7897   -4.0496 H   0  0  0  0  0  0  0  0  0  0  0  0
    2.9306    4.8576   -3.1054 C   0  0  0  0  0  0  0  0  0  0  0  0
    2.0599    4.2585   -2.1789 C   0  0  0  0  0  0  0  0  0  0  0  0
    2.6175    3.4860   -1.1372 C   0  0  0  0  0  0  0  0  0  0  0  0
    1.6177    2.6988   -0.5840 C   0  0  0  0  0  0  0  0  0  0  0  0
    1.6595    1.7112    0.3892 C   0  0  0  0  0  0  0  0  0  0  0  0
    0.5595    0.9140    0.6370 C   0  0  0  0  0  0  0  0  0  0  0  0
   -0.6234    1.1575   -0.0423 C   0  0  0  0  0  0  0  0  0  0  0  0
   -0.7501    2.2655   -0.9132 C   0  0  0  0  0  0  0  0  0  0  0  0
    0.4163    3.0026   -1.2299 C   0  0  0  0  0  0  0  0  0  0  0  0
    0.6861    4.1249   -2.0348 N   0  0  0  0  0  0  0  0  0  0  0  0
   -0.0326    4.6838   -2.4751 H   0  0  0  0  0  0  0  0  0  0  0  0
    6.5725    2.4335   -0.8037 O   0  0  0  0  0  0  0  0  0  0  0  0
    1.2634   -0.9760   -0.7079 H   0  0  0  0  0  0  0  0  0  0  0  0
    4.2185    7.5883   -1.8423 H   0  0  0  0  0  0  0  0  0  0  0  0
    4.5718    9.5553   -3.4019 H   0  0  0  0  0  0  0  0  0  0  0  0
    5.7596    9.1462   -5.5426 H   0  0  0  0  0  0  0  0  0  0  0  0
    6.2368    6.7282   -5.8870 H   0  0  0  0  0  0  0  0  0  0  0  0
    2.6291    1.4963    0.8185 H   0  0  0  0  0  0  0  0  0  0  0  0
    0.6923    0.0778    1.3157 H   0  0  0  0  0  0  0  0  0  0  0  0
   -1.4625    0.4929    0.1529 H   0  0  0  0  0  0  0  0  0  0  0  0
   -1.7380    2.5497   -1.2623 H   0  0  0  0  0  0  0  0  0  0  0  0
    6.9551    1.5262   -0.8180 H   0  0  0  0  0  0  0  0  0  0  0  0
  1  2  1  0  0  0  0
  1 31  1  0  0  0  0
  2  3  2  0  0  0  0
  2  4  1  0  0  0  0
  4  5  1  0  0  0  0
  4  9  2  0  0  0  0
  5  6  1  0  0  0  0
  5  7  1  0  0  0  0
  7  8  2  0  0  0  0
  7 30  1  0  0  0  0
  8  9  1  0  0  0  0
  8 21  1  0  0  0  0
  9 10  1  0  0  0  0
 10 11  1  0  0  0  0
 10 19  2  0  0  0  0
 11 12  2  0  0  0  0
 11 16  1  0  0  0  0
 12 13  1  0  0  0  0
 12 32  1  0  0  0  0
 13 14  2  0  0  0  0
 13 33  1  0  0  0  0
 14 15  1  0  0  0  0
 14 34  1  0  0  0  0
 15 16  2  0  0  0  0
 15 35  1  0  0  0  0
 16 17  1  0  0  0  0
 17 18  1  0  0  0  0
 17 19  1  0  0  0  0
 19 20  1  0  0  0  0
 20 21  2  0  0  0  0
 20 28  1  0  0  0  0
 21 22  1  0  0  0  0
 22 23  2  0  0  0  0
 22 27  1  0  0  0  0
 23 24  1  0  0  0  0
 23 36  1  0  0  0  0
 24 25  2  0  0  0  0
 24 37  1  0  0  0  0
 25 26  1  0  0  0  0
 25 38  1  0  0  0  0
 26 27  2  0  0  0  0
 26 39  1  0  0  0  0
 27 28  1  0  0  0  0
 28 29  1  0  0  0  0
 30 40  1  0  0  0  0
M  END
$$$$
