7CP
 OpenBabel04121316063D

 43 46  0  0  1  0  0  0  0  0999 V2000
    1.0615   -0.0327   -0.0909 C   0  0  0  0  0  0  0  0  0  0  0  0
    2.5294   -0.0782   -0.0310 N   0  0  0  0  0  0  0  0  0  0  0  0
    3.0065    0.1085    1.3404 C   0  0  0  0  0  0  0  0  0  0  0  0
    2.5114   -0.9933    2.2714 C   0  0  0  0  0  0  0  0  0  0  0  0
    2.8940   -2.3992    1.7853 C   0  0  0  0  0  0  0  0  0  0  0  0
    2.6952   -2.5285    0.2382 C   0  0  0  0  0  0  0  0  0  0  0  0
    3.0671   -1.3190   -0.5974 C   0  0  0  0  0  0  0  0  0  0  0  0
    1.9047   -3.3826    2.3371 N   0  0  0  0  0  0  0  0  0  0  0  0
    2.1102   -4.7023    1.9327 C   0  0  0  0  0  0  0  0  0  0  0  0
    1.2405   -5.3624    1.3827 O   0  0  0  0  0  0  0  0  0  0  0  0
    3.4689   -5.1155    2.2084 C   0  0  0  0  0  0  0  0  0  0  0  0
    4.4801   -4.2189    2.4831 C   0  0  0  0  0  0  0  0  0  0  0  0
    4.2814   -2.7388    2.4316 C   0  0  1  0  0  0  0  0  0  0  0  0
    4.2158   -2.4449    3.4937 H   0  0  0  0  0  0  0  0  0  0  0  0
    5.4699   -2.0593    1.8857 C   0  0  0  0  0  0  0  0  0  0  0  0
    6.4629   -1.5578    1.5800 N   0  0  0  0  0  0  0  0  0  0  0  0
    5.6021   -4.9423    2.9249 C   0  0  0  0  0  0  0  0  0  0  0  0
    6.8445   -4.5131    3.4242 C   0  0  0  0  0  0  0  0  0  0  0  0
    7.8150   -5.4463    3.7398 C   0  0  0  0  0  0  0  0  0  0  0  0
    7.5480   -6.8006    3.5928 C   0  0  0  0  0  0  0  0  0  0  0  0
    6.2992   -7.2667    3.1265 C   0  0  0  0  0  0  0  0  0  0  0  0
    5.3095   -6.3098    2.7880 C   0  0  0  0  0  0  0  0  0  0  0  0
    4.0000   -6.3825    2.3130 N   0  0  0  0  0  0  0  0  0  0  0  0
    3.2227   -7.5656    2.0177 C   0  0  0  0  0  0  0  0  0  0  0  0
    6.0366   -8.9670    2.9814 Cl  0  0  0  0  0  0  0  0  0  0  0  0
    8.8308   -7.8842    4.0157 Cl  0  0  0  0  0  0  0  0  0  0  0  0
    0.6935    0.9094    0.3279 H   0  0  0  0  0  0  0  0  0  0  0  0
    0.5743   -0.8397    0.4676 H   0  0  0  0  0  0  0  0  0  0  0  0
    0.7059   -0.1048   -1.1219 H   0  0  0  0  0  0  0  0  0  0  0  0
    2.6657    1.0714    1.7338 H   0  0  0  0  0  0  0  0  0  0  0  0
    4.1016    0.1686    1.3417 H   0  0  0  0  0  0  0  0  0  0  0  0
    1.4243   -0.9300    2.3692 H   0  0  0  0  0  0  0  0  0  0  0  0
    2.8892   -0.8088    3.2827 H   0  0  0  0  0  0  0  0  0  0  0  0
    1.6152   -2.6781    0.0669 H   0  0  0  0  0  0  0  0  0  0  0  0
    3.1451   -3.4363   -0.1821 H   0  0  0  0  0  0  0  0  0  0  0  0
    2.6811   -1.4572   -1.6180 H   0  0  0  0  0  0  0  0  0  0  0  0
    4.1562   -1.2652   -0.7017 H   0  0  0  0  0  0  0  0  0  0  0  0
    0.9367   -3.0911    2.3184 H   0  0  0  0  0  0  0  0  0  0  0  0
    7.0702   -3.4559    3.5492 H   0  0  0  0  0  0  0  0  0  0  0  0
    8.7805   -5.0948    4.0913 H   0  0  0  0  0  0  0  0  0  0  0  0
    3.7870   -8.4679    2.1982 H   0  0  0  0  0  0  0  0  0  0  0  0
    2.9457   -7.5427    0.9613 H   0  0  0  0  0  0  0  0  0  0  0  0
    2.3423   -7.5806    2.6645 H   0  0  0  0  0  0  0  0  0  0  0  0
  1  2  1  0  0  0  0
  1 27  1  0  0  0  0
  1 28  1  0  0  0  0
  1 29  1  0  0  0  0
  2  3  1  0  0  0  0
  2  7  1  0  0  0  0
  3  4  1  0  0  0  0
  3 30  1  0  0  0  0
  3 31  1  0  0  0  0
  4  5  1  0  0  0  0
  4 32  1  0  0  0  0
  4 33  1  0  0  0  0
  5  6  1  0  0  0  0
  5  8  1  0  0  0  0
  5 13  1  0  0  0  0
  6  7  1  0  0  0  0
  6 34  1  0  0  0  0
  6 35  1  0  0  0  0
  7 36  1  0  0  0  0
  7 37  1  0  0  0  0
  8  9  1  0  0  0  0
  8 38  1  0  0  0  0
  9 10  2  0  0  0  0
  9 11  1  0  0  0  0
 11 12  2  0  0  0  0
 11 23  1  0  0  0  0
 12 13  1  0  0  0  0
 12 17  1  0  0  0  0
 13 15  1  0  0  0  0
 13 14  1  1  0  0  0
 15 16  3  0  0  0  0
 17 18  2  0  0  0  0
 17 22  1  0  0  0  0
 18 19  1  0  0  0  0
 18 39  1  0  0  0  0
 19 20  2  0  0  0  0
 19 40  1  0  0  0  0
 20 21  1  0  0  0  0
 20 26  1  0  0  0  0
 21 22  2  0  0  0  0
 21 25  1  0  0  0  0
 22 23  1  0  0  0  0
 23 24  1  0  0  0  0
 24 41  1  0  0  0  0
 24 42  1  0  0  0  0
 24 43  1  0  0  0  0
M  END
$$$$
