7IG
 OpenBabel04121316063D

 45 47  0  0  0  0  0  0  0  0999 V2000
    0.8840    0.1231   -0.0022 C   0  0  0  0  0  0  0  0  0  0  0  0
    2.3968    0.1612   -0.1003 C   0  0  0  0  0  0  0  0  0  0  0  0
    3.0472    1.4876   -0.4345 C   0  0  0  0  0  0  0  0  0  0  0  0
    2.3192    2.5356    0.0220 N   0  0  0  0  0  0  0  0  0  0  0  0
    2.7342    3.7526   -0.2764 C   0  0  0  0  0  0  0  0  0  0  0  0
    1.9673    4.7915    0.1771 N   0  0  0  0  0  0  0  0  0  0  0  0
    3.8152    4.0329   -0.9861 N   0  0  0  0  0  0  0  0  0  0  0  0
    4.5762    2.9951   -1.3875 C   0  0  0  0  0  0  0  0  0  0  0  0
    4.2798    1.6419   -1.1184 C   0  0  0  0  0  0  0  0  0  0  0  0
    5.1181    0.4869   -1.6035 C   0  0  0  0  0  0  0  0  0  0  0  0
    6.1910    0.6035   -2.4978 C   0  0  0  0  0  0  0  0  0  0  0  0
    6.6999   -0.4732   -3.2103 C   0  0  0  0  0  0  0  0  0  0  0  0
    6.2737   -1.7522   -2.9192 C   0  0  0  0  0  0  0  0  0  0  0  0
    5.4012   -1.9269   -1.8673 C   0  0  0  0  0  0  0  0  0  0  0  0
    4.8759   -0.8312   -1.2126 C   0  0  0  0  0  0  0  0  0  0  0  0
    6.9125   -2.8043   -3.5357 N   0  0  0  0  0  0  0  0  0  0  0  0
    6.3566   -4.1208   -3.3485 C   0  0  0  0  0  0  0  0  0  0  0  0
    6.9597   -5.1043   -4.2972 C   0  0  0  0  0  0  0  0  0  0  0  0
    7.8051   -4.7372   -5.3550 C   0  0  0  0  0  0  0  0  0  0  0  0
    8.2720   -5.6907   -6.2357 C   0  0  0  0  0  0  0  0  0  0  0  0
    9.0571   -5.3013   -7.2468 F   0  0  0  0  0  0  0  0  0  0  0  0
    7.9246   -7.0197   -6.0844 C   0  0  0  0  0  0  0  0  0  0  0  0
    7.1040   -7.3891   -5.0266 C   0  0  0  0  0  0  0  0  0  0  0  0
    6.6172   -6.4493   -4.1324 C   0  0  0  0  0  0  0  0  0  0  0  0
    6.7608   -8.6720   -4.8688 F   0  0  0  0  0  0  0  0  0  0  0  0
    5.7209    3.4329   -2.0629 N   0  0  0  0  0  0  0  0  0  0  0  0
    0.5695   -0.9010    0.2332 H   0  0  0  0  0  0  0  0  0  0  0  0
    0.4535    0.3889   -0.9724 H   0  0  0  0  0  0  0  0  0  0  0  0
    0.4951    0.7924    0.7659 H   0  0  0  0  0  0  0  0  0  0  0  0
    2.5598   -0.5424   -0.9170 H   0  0  0  0  0  0  0  0  0  0  0  0
    2.8290   -0.2157    0.8372 H   0  0  0  0  0  0  0  0  0  0  0  0
    1.1669    4.5611    0.7361 H   0  0  0  0  0  0  0  0  0  0  0  0
    2.2593    5.7233   -0.0409 H   0  0  0  0  0  0  0  0  0  0  0  0
    6.7630    1.5072   -2.6323 H   0  0  0  0  0  0  0  0  0  0  0  0
    7.4745   -0.3016   -3.9531 H   0  0  0  0  0  0  0  0  0  0  0  0
    5.1137   -2.9074   -1.5051 H   0  0  0  0  0  0  0  0  0  0  0  0
    4.2846   -1.1033   -0.3539 H   0  0  0  0  0  0  0  0  0  0  0  0
    7.2259   -2.5446   -4.4592 H   0  0  0  0  0  0  0  0  0  0  0  0
    5.2658   -4.1312   -3.4945 H   0  0  0  0  0  0  0  0  0  0  0  0
    6.5755   -4.4427   -2.3219 H   0  0  0  0  0  0  0  0  0  0  0  0
    8.1280   -3.7194   -5.5380 H   0  0  0  0  0  0  0  0  0  0  0  0
    8.2890   -7.7549   -6.7860 H   0  0  0  0  0  0  0  0  0  0  0  0
    5.9672   -6.7642   -3.3185 H   0  0  0  0  0  0  0  0  0  0  0  0
    5.6554    4.4386   -2.1851 H   0  0  0  0  0  0  0  0  0  0  0  0
    5.8290    2.9924   -2.9655 H   0  0  0  0  0  0  0  0  0  0  0  0
  1  2  1  0  0  0  0
  1 27  1  0  0  0  0
  1 28  1  0  0  0  0
  1 29  1  0  0  0  0
  2  3  1  0  0  0  0
  2 30  1  0  0  0  0
  2 31  1  0  0  0  0
  3  4  2  0  0  0  0
  3  9  1  0  0  0  0
  4  5  1  0  0  0  0
  5  6  1  0  0  0  0
  5  7  2  0  0  0  0
  6 32  1  0  0  0  0
  6 33  1  0  0  0  0
  7  8  1  0  0  0  0
  8  9  2  0  0  0  0
  8 26  1  0  0  0  0
  9 10  1  0  0  0  0
 10 11  2  0  0  0  0
 10 15  1  0  0  0  0
 11 12  1  0  0  0  0
 11 34  1  0  0  0  0
 12 13  2  0  0  0  0
 12 35  1  0  0  0  0
 13 14  1  0  0  0  0
 13 16  1  0  0  0  0
 14 15  2  0  0  0  0
 14 36  1  0  0  0  0
 15 37  1  0  0  0  0
 16 17  1  0  0  0  0
 16 38  1  0  0  0  0
 17 18  1  0  0  0  0
 17 39  1  0  0  0  0
 17 40  1  0  0  0  0
 18 19  2  0  0  0  0
 18 24  1  0  0  0  0
 19 20  1  0  0  0  0
 19 41  1  0  0  0  0
 20 21  1  0  0  0  0
 20 22  2  0  0  0  0
 22 23  1  0  0  0  0
 22 42  1  0  0  0  0
 23 24  2  0  0  0  0
 23 25  1  0  0  0  0
 24 43  1  0  0  0  0
 26 44  1  0  0  0  0
 26 45  1  0  0  0  0
M  END
$$$$
