7IP
 OpenBabel04121316063D

 43 45  0  0  0  0  0  0  0  0999 V2000
    0.9340    0.0439    0.0600 C   0  0  0  0  0  0  0  0  0  0  0  0
    2.3575   -0.0027    0.0846 O   0  0  0  0  0  0  0  0  0  0  0  0
    2.9138    0.9498    0.8943 C   0  0  0  0  0  0  0  0  0  0  0  0
    2.5674    2.2933    0.8496 C   0  0  0  0  0  0  0  0  0  0  0  0
    3.2060    3.2021    1.6860 C   0  0  0  0  0  0  0  0  0  0  0  0
    4.2590    2.7880    2.4977 C   0  0  0  0  0  0  0  0  0  0  0  0
    4.6772    1.4529    2.5234 C   0  0  0  0  0  0  0  0  0  0  0  0
    3.9495    0.5342    1.7291 C   0  0  0  0  0  0  0  0  0  0  0  0
    5.8712    1.0448    3.2967 C   0  0  0  0  0  0  0  0  0  0  0  0
    6.8840    1.9349    3.6959 C   0  0  0  0  0  0  0  0  0  0  0  0
    8.0440    1.4906    4.3375 C   0  0  0  0  0  0  0  0  0  0  0  0
    8.2710    0.1306    4.4780 C   0  0  0  0  0  0  0  0  0  0  0  0
    7.2917   -0.7749    4.0707 C   0  0  0  0  0  0  0  0  0  0  0  0
    6.0731   -0.2986    3.5931 C   0  0  0  0  0  0  0  0  0  0  0  0
    7.5777   -2.2429    4.1087 C   0  0  0  0  0  0  0  0  0  0  0  0
    6.4596   -3.1566    3.5779 C   0  0  0  0  0  0  0  0  0  0  0  0
    6.8023   -4.6210    3.6334 C   0  0  0  0  0  0  0  0  0  0  0  0
    7.7780   -5.0740    4.5049 C   0  0  0  0  0  0  0  0  0  0  0  0
    7.8862   -6.4260    4.7481 C   0  0  0  0  0  0  0  0  0  0  0  0
    7.1042   -7.2927    3.9975 C   0  0  0  0  0  0  0  0  0  0  0  0
    6.2247   -6.7845    3.0624 C   0  0  0  0  0  0  0  0  0  0  0  0
    6.0239   -5.4639    2.8978 N   0  0  0  0  0  0  0  0  0  0  0  0
    5.4155   -7.6629    2.3350 N   0  0  0  0  0  0  0  0  0  0  0  0
    0.5843   -0.7126   -0.6482 H   0  0  0  0  0  0  0  0  0  0  0  0
    0.5515    1.0083   -0.2852 H   0  0  0  0  0  0  0  0  0  0  0  0
    0.5323   -0.1970    1.0495 H   0  0  0  0  0  0  0  0  0  0  0  0
    1.8235    2.6593    0.1530 H   0  0  0  0  0  0  0  0  0  0  0  0
    2.9071    4.2447    1.6910 H   0  0  0  0  0  0  0  0  0  0  0  0
    4.7638    3.5378    3.0984 H   0  0  0  0  0  0  0  0  0  0  0  0
    4.1856   -0.5279    1.7170 H   0  0  0  0  0  0  0  0  0  0  0  0
    6.8077    2.9974    3.4903 H   0  0  0  0  0  0  0  0  0  0  0  0
    8.7852    2.2058    4.6814 H   0  0  0  0  0  0  0  0  0  0  0  0
    9.2136   -0.2222    4.8897 H   0  0  0  0  0  0  0  0  0  0  0  0
    5.2704   -1.0002    3.3976 H   0  0  0  0  0  0  0  0  0  0  0  0
    7.7958   -2.4768    5.1563 H   0  0  0  0  0  0  0  0  0  0  0  0
    8.4833   -2.4256    3.5137 H   0  0  0  0  0  0  0  0  0  0  0  0
    6.1993   -2.8884    2.5455 H   0  0  0  0  0  0  0  0  0  0  0  0
    5.5581   -3.0155    4.1912 H   0  0  0  0  0  0  0  0  0  0  0  0
    8.4493   -4.4050    5.0321 H   0  0  0  0  0  0  0  0  0  0  0  0
    8.5577   -6.7819    5.5149 H   0  0  0  0  0  0  0  0  0  0  0  0
    7.2134   -8.3610    4.1391 H   0  0  0  0  0  0  0  0  0  0  0  0
    5.8958   -8.5049    2.0459 H   0  0  0  0  0  0  0  0  0  0  0  0
    4.9619   -7.1627    1.5812 H   0  0  0  0  0  0  0  0  0  0  0  0
  1  2  1  0  0  0  0
  1 24  1  0  0  0  0
  1 25  1  0  0  0  0
  1 26  1  0  0  0  0
  2  3  1  0  0  0  0
  3  4  2  0  0  0  0
  3  8  1  0  0  0  0
  4  5  1  0  0  0  0
  4 27  1  0  0  0  0
  5  6  2  0  0  0  0
  5 28  1  0  0  0  0
  6  7  1  0  0  0  0
  6 29  1  0  0  0  0
  7  8  2  0  0  0  0
  7  9  1  0  0  0  0
  8 30  1  0  0  0  0
  9 10  2  0  0  0  0
  9 14  1  0  0  0  0
 10 11  1  0  0  0  0
 10 31  1  0  0  0  0
 11 12  2  0  0  0  0
 11 32  1  0  0  0  0
 12 13  1  0  0  0  0
 12 33  1  0  0  0  0
 13 14  2  0  0  0  0
 13 15  1  0  0  0  0
 14 34  1  0  0  0  0
 15 16  1  0  0  0  0
 15 35  1  0  0  0  0
 15 36  1  0  0  0  0
 16 17  1  0  0  0  0
 16 37  1  0  0  0  0
 16 38  1  0  0  0  0
 17 18  2  0  0  0  0
 17 22  1  0  0  0  0
 18 19  1  0  0  0  0
 18 39  1  0  0  0  0
 19 20  2  0  0  0  0
 19 40  1  0  0  0  0
 20 21  1  0  0  0  0
 20 41  1  0  0  0  0
 21 22  2  0  0  0  0
 21 23  1  0  0  0  0
 23 42  1  0  0  0  0
 23 43  1  0  0  0  0
M  END
$$$$
