7MC
 OpenBabel04121316063D

 67 69  0  0  1  0  0  0  0  0999 V2000
    7.3139    2.1843    4.0442 N   0  0  0  0  0  0  0  0  0  0  0  0
    7.2936    1.4137    2.8135 C   0  0  0  0  0  0  0  0  0  0  0  0
    7.0003    2.2968    1.6153 C   0  0  0  0  0  0  0  0  0  0  0  0
    6.9355    1.4000    0.3828 C   0  0  0  0  0  0  0  0  0  0  0  0
    6.7974    2.2160   -0.7507 O   0  0  0  0  0  0  0  0  0  0  0  0
    6.7974    1.5847   -2.2683 P   0  0  2  0  0  0  0  0  0  0  0  0
    5.2531    1.5847   -2.2683 O   0  0  0  0  0  0  0  0  0  0  0  0
    6.7197   -0.1446   -2.1324 N   0  0  0  0  0  0  0  0  0  0  0  0
    5.5274   -0.8802   -2.2128 C   0  0  0  0  0  0  0  0  0  0  0  0
    4.3723   -0.4641   -2.3361 O   0  0  0  0  0  0  0  0  0  0  0  0
    5.6510   -2.3954   -2.1685 C   0  0  1  0  0  0  0  0  0  0  0  0
    6.2137   -2.7275   -3.0479 H   0  0  0  0  0  0  0  0  0  0  0  0
    6.3606   -2.7299   -0.9389 N   0  0  0  0  0  0  0  0  0  0  0  0
    7.7148   -2.5470   -0.8299 C   0  0  0  0  0  0  0  0  0  0  0  0
    8.3987   -1.9917   -1.6872 O   0  0  0  0  0  0  0  0  0  0  0  0
    8.3019   -2.9969    0.4648 C   0  0  0  0  0  0  0  0  0  0  0  0
    4.2023   -2.9577   -2.1930 C   0  0  0  0  0  0  0  0  0  0  0  0
    4.1983   -4.4475   -2.2001 C   0  0  0  0  0  0  0  0  0  0  0  0
    5.2170   -5.1355   -2.1774 O   0  0  0  0  0  0  0  0  0  0  0  0
    2.9675   -4.9960   -2.1833 O   0  0  0  0  0  0  0  0  0  0  0  0
    8.5274    1.5847   -2.2683 O   0  0  0  0  0  0  0  0  0  0  0  0
    9.1515    2.6111   -1.4608 C   0  0  0  0  0  0  0  0  0  0  0  0
   10.6624    2.5197   -1.4317 C   0  0  1  0  0  0  0  0  0  0  0  0
   11.0548    3.5444   -1.4484 H   0  0  0  0  0  0  0  0  0  0  0  0
   11.1407    1.9186   -0.2004 O   0  0  0  0  0  0  0  0  0  0  0  0
   12.4694    1.4575   -0.5089 C   0  0  2  0  0  0  0  0  0  0  0  0
   13.1576    2.3055   -0.3883 H   0  0  0  0  0  0  0  0  0  0  0  0
   12.4375    1.0095   -1.9793 C   0  0  1  0  0  0  0  0  0  0  0  0
   12.3020   -0.0624   -2.1036 H   0  0  0  0  0  0  0  0  0  0  0  0
   11.1912    1.6586   -2.5503 C   0  0  2  0  0  0  0  0  0  0  0  0
   10.5060    0.8406   -2.7960 H   0  0  0  0  0  0  0  0  0  0  0  0
   11.3806    2.4305   -3.7220 O   0  0  0  0  0  0  0  0  0  0  0  0
   13.6105    1.3487   -2.7062 O   0  0  0  0  0  0  0  0  0  0  0  0
   12.8730    0.4444    0.4493 N   0  0  0  0  0  0  0  0  0  0  0  0
   13.7024    0.6365    1.5279 C   0  0  0  0  0  0  0  0  0  0  0  0
   13.9297   -0.4837    2.1855 N   0  0  0  0  0  0  0  0  0  0  0  0
   13.2242   -1.4482    1.4958 C   0  0  0  0  0  0  0  0  0  0  0  0
   12.5779   -0.8916    0.4073 C   0  0  0  0  0  0  0  0  0  0  0  0
   11.8394   -1.5398   -0.5041 N   0  0  0  0  0  0  0  0  0  0  0  0
   11.7874   -2.8571   -0.2566 C   0  0  0  0  0  0  0  0  0  0  0  0
   12.3271   -3.5268    0.7802 N   0  0  0  0  0  0  0  0  0  0  0  0
   13.0544   -2.8309    1.6854 C   0  0  0  0  0  0  0  0  0  0  0  0
   13.6003   -3.5143    2.7461 N   0  0  0  0  0  0  0  0  0  0  0  0
    7.4570    1.5498    4.8286 H   0  0  0  0  0  0  0  0  0  0  0  0
    6.4033    2.6192    4.1886 H   0  0  0  0  0  0  0  0  0  0  0  0
    6.5330    0.6289    2.8807 H   0  0  0  0  0  0  0  0  0  0  0  0
    8.2655    0.9256    2.6778 H   0  0  0  0  0  0  0  0  0  0  0  0
    7.7713    3.0743    1.5071 H   0  0  0  0  0  0  0  0  0  0  0  0
    6.0548    2.8434    1.7306 H   0  0  0  0  0  0  0  0  0  0  0  0
    6.0924    0.7115    0.4423 H   0  0  0  0  0  0  0  0  0  0  0  0
    7.8599    0.8205    0.2939 H   0  0  0  0  0  0  0  0  0  0  0  0
    7.6083   -0.6239   -2.2154 H   0  0  0  0  0  0  0  0  0  0  0  0
    5.9241   -3.4073   -0.3258 H   0  0  0  0  0  0  0  0  0  0  0  0
    7.5873   -3.5629    1.0644 H   0  0  0  0  0  0  0  0  0  0  0  0
    8.6287   -2.1157    1.0240 H   0  0  0  0  0  0  0  0  0  0  0  0
    9.1503   -3.6380    0.2299 H   0  0  0  0  0  0  0  0  0  0  0  0
    3.6683   -2.6148   -3.0927 H   0  0  0  0  0  0  0  0  0  0  0  0
    3.6405   -2.6093   -1.3136 H   0  0  0  0  0  0  0  0  0  0  0  0
    2.2247   -4.3593   -2.1902 H   0  0  0  0  0  0  0  0  0  0  0  0
    8.8824    2.5111   -0.4128 H   0  0  0  0  0  0  0  0  0  0  0  0
    8.7966    3.5857   -1.8072 H   0  0  0  0  0  0  0  0  0  0  0  0
   11.8917    1.8613   -4.3236 H   0  0  0  0  0  0  0  0  0  0  0  0
   14.3284    0.8021   -2.3399 H   0  0  0  0  0  0  0  0  0  0  0  0
   14.1172    1.6023    1.7924 H   0  0  0  0  0  0  0  0  0  0  0  0
   11.2325   -3.4491   -0.9791 H   0  0  0  0  0  0  0  0  0  0  0  0
   13.4033   -4.4977    2.8362 H   0  0  0  0  0  0  0  0  0  0  0  0
   14.1290   -3.0004    3.4358 H   0  0  0  0  0  0  0  0  0  0  0  0
  1  2  1  0  0  0  0
  1 44  1  0  0  0  0
  1 45  1  0  0  0  0
  2  3  1  0  0  0  0
  2 46  1  0  0  0  0
  2 47  1  0  0  0  0
  3  4  1  0  0  0  0
  3 48  1  0  0  0  0
  3 49  1  0  0  0  0
  4  5  1  0  0  0  0
  4 50  1  0  0  0  0
  4 51  1  0  0  0  0
  6  8  1  1  0  0  0
  6 21  1  0  0  0  0
  6  7  2  0  0  0  0
  6  5  1  0  0  0  0
  8  9  1  0  0  0  0
  8 52  1  0  0  0  0
  9 10  2  0  0  0  0
  9 11  1  0  0  0  0
 11 12  1  6  0  0  0
 11 13  1  0  0  0  0
 11 17  1  0  0  0  0
 13 14  1  0  0  0  0
 13 53  1  0  0  0  0
 14 15  2  0  0  0  0
 14 16  1  0  0  0  0
 16 54  1  0  0  0  0
 16 55  1  0  0  0  0
 16 56  1  0  0  0  0
 17 18  1  0  0  0  0
 17 57  1  0  0  0  0
 17 58  1  0  0  0  0
 18 19  2  0  0  0  0
 18 20  1  0  0  0  0
 20 59  1  0  0  0  0
 21 22  1  0  0  0  0
 22 23  1  0  0  0  0
 22 60  1  0  0  0  0
 22 61  1  0  0  0  0
 23 24  1  6  0  0  0
 23 25  1  0  0  0  0
 23 30  1  0  0  0  0
 25 26  1  0  0  0  0
 26 28  1  0  0  0  0
 26 34  1  0  0  0  0
 26 27  1  1  0  0  0
 28 29  1  6  0  0  0
 28 30  1  0  0  0  0
 28 33  1  0  0  0  0
 30 31  1  6  0  0  0
 30 32  1  0  0  0  0
 32 62  1  0  0  0  0
 33 63  1  0  0  0  0
 34 35  1  0  0  0  0
 34 38  1  0  0  0  0
 35 36  2  0  0  0  0
 35 64  1  0  0  0  0
 36 37  1  0  0  0  0
 37 38  2  0  0  0  0
 37 42  1  0  0  0  0
 38 39  1  0  0  0  0
 39 40  2  0  0  0  0
 40 41  1  0  0  0  0
 40 65  1  0  0  0  0
 41 42  2  0  0  0  0
 42 43  1  0  0  0  0
 43 66  1  0  0  0  0
 43 67  1  0  0  0  0
M  END
$$$$
