7NI
 OpenBabel04121316063D

 17 18  0  0  0  0  0  0  0  0999 V2000
    1.0185    0.1128    0.0692 O   0  5  0  0  0  0  0  0  0  0  0  0
    2.2532    0.0346    0.0142 N   0  3  0  0  0  0  0  0  0  0  0  0
    2.9235   -0.2062   -0.9945 O   0  0  0  0  0  0  0  0  0  0  0  0
    2.9741    0.3084    1.2357 C   0  0  0  0  0  0  0  0  0  0  0  0
    3.5996   -0.7540    1.9032 C   0  0  0  0  0  0  0  0  0  0  0  0
    4.2745   -0.5232    3.1035 C   0  0  0  0  0  0  0  0  0  0  0  0
    4.3423    0.7647    3.6553 C   0  0  0  0  0  0  0  0  0  0  0  0
    3.7330    1.8343    2.9756 C   0  0  0  0  0  0  0  0  0  0  0  0
    3.0605    1.5921    1.7834 C   0  0  0  0  0  0  0  0  0  0  0  0
    2.5717    2.8084    1.3845 N   0  0  0  0  0  0  0  0  0  0  0  0
    1.9884    3.0177    0.5798 H   0  0  0  0  0  0  0  0  0  0  0  0
    2.9161    3.8221    2.1992 N   0  0  0  0  0  0  0  0  0  0  0  0
    3.5831    3.2202    3.1870 C   0  0  0  0  0  0  0  0  0  0  0  0
    3.5580   -1.7631    1.4976 H   0  0  0  0  0  0  0  0  0  0  0  0
    4.7546   -1.3498    3.6243 H   0  0  0  0  0  0  0  0  0  0  0  0
    4.8638    0.9355    4.5935 H   0  0  0  0  0  0  0  0  0  0  0  0
    3.9351    3.8082    4.0245 H   0  0  0  0  0  0  0  0  0  0  0  0
  1  2  1  0  0  0  0
  2  3  2  0  0  0  0
  2  4  1  0  0  0  0
  4  5  2  0  0  0  0
  4  9  1  0  0  0  0
  5  6  1  0  0  0  0
  5 14  1  0  0  0  0
  6  7  2  0  0  0  0
  6 15  1  0  0  0  0
  7  8  1  0  0  0  0
  7 16  1  0  0  0  0
  8  9  2  0  0  0  0
  8 13  1  0  0  0  0
  9 10  1  0  0  0  0
 10 11  1  0  0  0  0
 10 12  1  0  0  0  0
 12 13  2  0  0  0  0
 13 17  1  0  0  0  0
M  CHG  2   1  -1   2   1
M  END
$$$$
