7PE
 OpenBabel04121316063D

 51 50  0  0  0  0  0  0  0  0999 V2000
    0.9022    0.0560    0.0497 O   0  0  0  0  0  0  0  0  0  0  0  0
    2.3244    0.0609    0.0368 C   0  0  0  0  0  0  0  0  0  0  0  0
    2.8247    0.5774   -1.3034 C   0  0  0  0  0  0  0  0  0  0  0  0
    4.2500    0.5806   -1.3117 O   0  0  0  0  0  0  0  0  0  0  0  0
    4.7447    1.0616   -2.5600 C   0  0  0  0  0  0  0  0  0  0  0  0
    6.2638    1.0513   -2.5335 C   0  0  0  0  0  0  0  0  0  0  0  0
    6.7520    1.5325   -3.7822 O   0  0  0  0  0  0  0  0  0  0  0  0
    8.1759    1.5393   -3.8000 C   0  0  0  0  0  0  0  0  0  0  0  0
    8.6501    2.0580   -5.1460 C   0  0  0  0  0  0  0  0  0  0  0  0
   10.0737    2.0637   -5.1609 O   0  0  0  0  0  0  0  0  0  0  0  0
   10.5637    2.5443   -6.4081 C   0  0  0  0  0  0  0  0  0  0  0  0
   12.0814    2.5321   -6.3764 C   0  0  0  0  0  0  0  0  0  0  0  0
   12.5715    3.0127   -7.6236 O   0  0  0  0  0  0  0  0  0  0  0  0
   13.9952    3.0186   -7.6390 C   0  0  0  0  0  0  0  0  0  0  0  0
   14.4698    3.5373   -8.9853 C   0  0  0  0  0  0  0  0  0  0  0  0
   15.8938    3.5442   -9.0031 O   0  0  0  0  0  0  0  0  0  0  0  0
   16.3831    4.0256  -10.2523 C   0  0  0  0  0  0  0  0  0  0  0  0
   17.9026    4.0145  -10.2235 C   0  0  0  0  0  0  0  0  0  0  0  0
   18.4031    4.4946  -11.4695 O   0  0  0  0  0  0  0  0  0  0  0  0
   19.8278    4.4977  -11.4777 C   0  0  0  0  0  0  0  0  0  0  0  0
   20.3042    5.0145  -12.8187 C   0  0  0  0  0  0  0  0  0  0  0  0
    0.6297   -0.2789    0.9188 H   0  0  0  0  0  0  0  0  0  0  0  0
    2.6895   -0.9560    0.2162 H   0  0  0  0  0  0  0  0  0  0  0  0
    2.6895    0.6946    0.8522 H   0  0  0  0  0  0  0  0  0  0  0  0
    2.4473    1.5927   -1.4741 H   0  0  0  0  0  0  0  0  0  0  0  0
    2.4473   -0.0609   -2.1113 H   0  0  0  0  0  0  0  0  0  0  0  0
    4.3836    2.0811   -2.7419 H   0  0  0  0  0  0  0  0  0  0  0  0
    4.3836    0.4277   -3.3790 H   0  0  0  0  0  0  0  0  0  0  0  0
    6.6273    0.0325   -2.3548 H   0  0  0  0  0  0  0  0  0  0  0  0
    6.6273    1.6869   -1.7173 H   0  0  0  0  0  0  0  0  0  0  0  0
    8.5608    0.5259   -3.6346 H   0  0  0  0  0  0  0  0  0  0  0  0
    8.5608    2.1798   -2.9973 H   0  0  0  0  0  0  0  0  0  0  0  0
    8.2666    3.0719   -5.3120 H   0  0  0  0  0  0  0  0  0  0  0  0
    8.2666    1.4177   -5.9494 H   0  0  0  0  0  0  0  0  0  0  0  0
   10.2022    3.5637   -6.5887 H   0  0  0  0  0  0  0  0  0  0  0  0
   10.2022    1.9097   -7.2261 H   0  0  0  0  0  0  0  0  0  0  0  0
   12.4428    1.5126   -6.1956 H   0  0  0  0  0  0  0  0  0  0  0  0
   12.4428    3.1667   -5.5583 H   0  0  0  0  0  0  0  0  0  0  0  0
   14.3786    2.0047   -7.4728 H   0  0  0  0  0  0  0  0  0  0  0  0
   14.3786    3.6588   -6.8355 H   0  0  0  0  0  0  0  0  0  0  0  0
   14.0848    4.5508   -9.1505 H   0  0  0  0  0  0  0  0  0  0  0  0
   14.0848    2.8968   -9.7878 H   0  0  0  0  0  0  0  0  0  0  0  0
   16.0196    5.0445  -10.4310 H   0  0  0  0  0  0  0  0  0  0  0  0
   16.0196    3.3900  -11.0685 H   0  0  0  0  0  0  0  0  0  0  0  0
   18.2621    2.9946  -10.0404 H   0  0  0  0  0  0  0  0  0  0  0  0
   18.2621    4.6478   -9.4035 H   0  0  0  0  0  0  0  0  0  0  0  0
   20.1980    3.4792  -11.3181 H   0  0  0  0  0  0  0  0  0  0  0  0
   20.1980    5.1458  -10.6759 H   0  0  0  0  0  0  0  0  0  0  0  0
   19.9280    4.3844  -13.6314 H   0  0  0  0  0  0  0  0  0  0  0  0
   21.3967    5.0301  -12.8592 H   0  0  0  0  0  0  0  0  0  0  0  0
   19.9280    6.0269  -12.9985 H   0  0  0  0  0  0  0  0  0  0  0  0
  1  2  1  0  0  0  0
  1 22  1  0  0  0  0
  2  3  1  0  0  0  0
  2 23  1  0  0  0  0
  2 24  1  0  0  0  0
  3  4  1  0  0  0  0
  3 25  1  0  0  0  0
  3 26  1  0  0  0  0
  4  5  1  0  0  0  0
  5  6  1  0  0  0  0
  5 27  1  0  0  0  0
  5 28  1  0  0  0  0
  6  7  1  0  0  0  0
  6 29  1  0  0  0  0
  6 30  1  0  0  0  0
  7  8  1  0  0  0  0
  8  9  1  0  0  0  0
  8 31  1  0  0  0  0
  8 32  1  0  0  0  0
  9 10  1  0  0  0  0
  9 33  1  0  0  0  0
  9 34  1  0  0  0  0
 10 11  1  0  0  0  0
 11 12  1  0  0  0  0
 11 35  1  0  0  0  0
 11 36  1  0  0  0  0
 12 13  1  0  0  0  0
 12 37  1  0  0  0  0
 12 38  1  0  0  0  0
 13 14  1  0  0  0  0
 14 15  1  0  0  0  0
 14 39  1  0  0  0  0
 14 40  1  0  0  0  0
 15 16  1  0  0  0  0
 15 41  1  0  0  0  0
 15 42  1  0  0  0  0
 16 17  1  0  0  0  0
 17 18  1  0  0  0  0
 17 43  1  0  0  0  0
 17 44  1  0  0  0  0
 18 19  1  0  0  0  0
 18 45  1  0  0  0  0
 18 46  1  0  0  0  0
 19 20  1  0  0  0  0
 20 21  1  0  0  0  0
 20 47  1  0  0  0  0
 20 48  1  0  0  0  0
 21 49  1  0  0  0  0
 21 50  1  0  0  0  0
 21 51  1  0  0  0  0
M  END
$$$$
