7PP
 OpenBabel04121316063D

 53 55  0  0  0  0  0  0  0  0999 V2000
    0.9252   -0.1710   -0.0351 C   0  0  0  0  0  0  0  0  0  0  0  0
    2.3353   -0.0426   -0.2629 O   0  0  0  0  0  0  0  0  0  0  0  0
    2.9402    0.9956    0.4060 C   0  0  0  0  0  0  0  0  0  0  0  0
    2.5397    2.3131    0.2636 C   0  0  0  0  0  0  0  0  0  0  0  0
    1.5712    2.7441   -0.7846 C   0  0  0  0  0  0  0  0  0  0  0  0
    3.1572    3.2456    1.0809 C   0  0  0  0  0  0  0  0  0  0  0  0
    4.0743    2.9363    2.0268 N   0  0  0  0  0  0  0  0  0  0  0  0
    4.5170    1.6478    2.1018 C   0  0  0  0  0  0  0  0  0  0  0  0
    4.0880    0.7014    1.1578 C   0  0  0  0  0  0  0  0  0  0  0  0
    4.7621   -0.6062    0.8722 C   0  0  0  0  0  0  0  0  0  0  0  0
    5.4720    1.4084    3.2605 C   0  0  0  0  0  0  0  0  0  0  0  0
    5.7279    0.0251    3.6958 N   0  0  0  0  0  0  0  0  0  0  0  0
    7.0222   -0.4266    3.9098 C   0  0  0  0  0  0  0  0  0  0  0  0
    6.9824   -1.8023    3.8852 C   0  0  0  0  0  0  0  0  0  0  0  0
    5.6580   -2.2090    3.6641 C   0  0  0  0  0  0  0  0  0  0  0  0
    4.8565   -1.0670    3.7073 C   0  0  0  0  0  0  0  0  0  0  0  0
    3.5216   -1.0667    3.5135 N   0  0  0  0  0  0  0  0  0  0  0  0
    3.0189   -2.2719    3.1337 C   0  0  0  0  0  0  0  0  0  0  0  0
    1.7417   -2.3349    2.6179 N   0  0  0  0  0  0  0  0  0  0  0  0
    3.7049   -3.4139    3.0267 N   0  0  0  0  0  0  0  0  0  0  0  0
    4.9886   -3.3893    3.3600 C   0  0  0  0  0  0  0  0  0  0  0  0
    5.8547   -4.8423    3.1962 Cl  0  0  0  0  0  0  0  0  0  0  0  0
    8.0979   -2.6597    4.0068 C   0  0  0  0  0  0  0  0  0  0  0  0
    8.9716   -3.4187    4.2845 C   0  0  0  0  0  0  0  0  0  0  0  0
   10.0317   -4.3395    4.6213 C   0  0  0  0  0  0  0  0  0  0  0  0
   10.9350   -3.7251    5.7124 C   0  0  0  0  0  0  0  0  0  0  0  0
   11.5500   -2.5225    5.2294 O   0  0  0  0  0  0  0  0  0  0  0  0
   10.1358   -3.3977    6.9798 C   0  0  0  0  0  0  0  0  0  0  0  0
   12.0663   -4.6941    6.0462 C   0  0  0  0  0  0  0  0  0  0  0  0
    0.6031   -1.0999   -0.5144 H   0  0  0  0  0  0  0  0  0  0  0  0
    0.3320    0.6215   -0.4892 H   0  0  0  0  0  0  0  0  0  0  0  0
    0.6637   -0.2065    1.0250 H   0  0  0  0  0  0  0  0  0  0  0  0
    1.3700    1.9435   -1.5026 H   0  0  0  0  0  0  0  0  0  0  0  0
    1.9934    3.5486   -1.3884 H   0  0  0  0  0  0  0  0  0  0  0  0
    0.6324    3.0554   -0.3196 H   0  0  0  0  0  0  0  0  0  0  0  0
    2.9232    4.3041    0.9930 H   0  0  0  0  0  0  0  0  0  0  0  0
    5.7137   -0.7072    1.3861 H   0  0  0  0  0  0  0  0  0  0  0  0
    5.0131   -0.7353   -0.1795 H   0  0  0  0  0  0  0  0  0  0  0  0
    4.0894   -1.4233    1.1173 H   0  0  0  0  0  0  0  0  0  0  0  0
    5.1366    1.9436    4.1592 H   0  0  0  0  0  0  0  0  0  0  0  0
    6.4434    1.8449    2.9803 H   0  0  0  0  0  0  0  0  0  0  0  0
    7.8615    0.2566    3.9671 H   0  0  0  0  0  0  0  0  0  0  0  0
    1.4995   -1.4491    2.2020 H   0  0  0  0  0  0  0  0  0  0  0  0
    1.6676   -3.1384    1.9987 H   0  0  0  0  0  0  0  0  0  0  0  0
   10.6218   -4.5538    3.7222 H   0  0  0  0  0  0  0  0  0  0  0  0
    9.6103   -5.2890    4.9719 H   0  0  0  0  0  0  0  0  0  0  0  0
   10.8393   -1.9054    4.9777 H   0  0  0  0  0  0  0  0  0  0  0  0
    9.3453   -2.6643    6.7832 H   0  0  0  0  0  0  0  0  0  0  0  0
   10.7776   -2.9462    7.7424 H   0  0  0  0  0  0  0  0  0  0  0  0
    9.6700   -4.2982    7.3932 H   0  0  0  0  0  0  0  0  0  0  0  0
   12.6730   -4.9051    5.1582 H   0  0  0  0  0  0  0  0  0  0  0  0
   11.6781   -5.6401    6.4358 H   0  0  0  0  0  0  0  0  0  0  0  0
   12.7425   -4.2588    6.7901 H   0  0  0  0  0  0  0  0  0  0  0  0
  1  2  1  0  0  0  0
  1 30  1  0  0  0  0
  1 31  1  0  0  0  0
  1 32  1  0  0  0  0
  2  3  1  0  0  0  0
  3  4  2  0  0  0  0
  3  9  1  0  0  0  0
  4  5  1  0  0  0  0
  4  6  1  0  0  0  0
  5 33  1  0  0  0  0
  5 34  1  0  0  0  0
  5 35  1  0  0  0  0
  6  7  2  0  0  0  0
  6 36  1  0  0  0  0
  7  8  1  0  0  0  0
  8  9  2  0  0  0  0
  8 11  1  0  0  0  0
  9 10  1  0  0  0  0
 10 37  1  0  0  0  0
 10 38  1  0  0  0  0
 10 39  1  0  0  0  0
 11 12  1  0  0  0  0
 11 40  1  0  0  0  0
 11 41  1  0  0  0  0
 12 13  1  0  0  0  0
 12 16  1  0  0  0  0
 13 14  2  0  0  0  0
 13 42  1  0  0  0  0
 14 15  1  0  0  0  0
 14 23  1  0  0  0  0
 15 16  2  0  0  0  0
 15 21  1  0  0  0  0
 16 17  1  0  0  0  0
 17 18  2  0  0  0  0
 18 19  1  0  0  0  0
 18 20  1  0  0  0  0
 19 43  1  0  0  0  0
 19 44  1  0  0  0  0
 20 21  2  0  0  0  0
 21 22  1  0  0  0  0
 23 24  3  0  0  0  0
 24 25  1  0  0  0  0
 25 26  1  0  0  0  0
 25 45  1  0  0  0  0
 25 46  1  0  0  0  0
 26 27  1  0  0  0  0
 26 28  1  0  0  0  0
 26 29  1  0  0  0  0
 27 47  1  0  0  0  0
 28 48  1  0  0  0  0
 28 49  1  0  0  0  0
 28 50  1  0  0  0  0
 29 51  1  0  0  0  0
 29 52  1  0  0  0  0
 29 53  1  0  0  0  0
M  END
$$$$
