801
 OpenBabel04121316063D

 30 32  0  0  0  0  0  0  0  0999 V2000
    0.8947    0.2618   -0.2949 O   0  5  0  0  0  0  0  0  0  0  0  0
    2.1609    0.1270   -0.1171 C   0  0  0  0  0  0  0  0  0  0  0  0
    2.9750    1.2649   -0.0804 C   0  0  0  0  0  0  0  0  0  0  0  0
    4.3373    1.2071    0.1925 C   0  0  0  0  0  0  0  0  0  0  0  0
    4.9273   -0.0364    0.2498 C   0  0  0  0  0  0  0  0  0  0  0  0
    4.2472   -1.1998    0.1829 N   0  0  0  0  0  0  0  0  0  0  0  0
    2.8757   -1.0886    0.0717 C   0  0  0  0  0  0  0  0  0  0  0  0
    2.1832   -2.3856    0.2355 C   0  0  0  0  0  0  0  0  0  0  0  0
    0.9156   -2.5948    0.5614 N   0  0  0  0  0  0  0  0  0  0  0  0
    0.7254   -3.9272    0.5660 C   0  0  0  0  0  0  0  0  0  0  0  0
    1.9009   -4.6045    0.3064 C   0  0  0  0  0  0  0  0  0  0  0  0
    2.8208   -3.6024    0.1102 N   0  0  0  0  0  0  0  0  0  0  0  0
    3.8049   -3.6895   -0.1015 H   0  0  0  0  0  0  0  0  0  0  0  0
    1.9655   -5.9912    0.2868 C   0  0  0  0  0  0  0  0  0  0  0  0
    0.7616   -6.6760    0.5406 C   0  0  0  0  0  0  0  0  0  0  0  0
   -0.4679   -6.0237    0.7955 C   0  0  0  0  0  0  0  0  0  0  0  0
   -0.4661   -4.6205    0.8030 C   0  0  0  0  0  0  0  0  0  0  0  0
   -1.7208   -6.7762    1.0518 C   0  0  0  0  0  0  0  0  0  0  0  0
   -2.8578   -6.1532    1.2837 N   0  3  0  0  0  0  0  0  0  0  0  0
   -3.7246   -6.6392    1.4607 H   0  0  0  0  0  0  0  0  0  0  0  0
   -2.9106   -5.1397    1.2899 H   0  0  0  0  0  0  0  0  0  0  0  0
   -1.7242   -8.0966    1.0545 N   0  0  0  0  0  0  0  0  0  0  0  0
    2.5086    2.2334   -0.2549 H   0  0  0  0  0  0  0  0  0  0  0  0
    4.8962    2.1193    0.3493 H   0  0  0  0  0  0  0  0  0  0  0  0
    6.0042   -0.1186    0.3624 H   0  0  0  0  0  0  0  0  0  0  0  0
    2.8917   -6.5184    0.0892 H   0  0  0  0  0  0  0  0  0  0  0  0
    0.8365   -7.7584    0.5277 H   0  0  0  0  0  0  0  0  0  0  0  0
   -1.3323   -3.9965    0.9818 H   0  0  0  0  0  0  0  0  0  0  0  0
   -0.8814   -8.6241    0.8810 H   0  0  0  0  0  0  0  0  0  0  0  0
   -2.5616   -8.6321    1.2253 H   0  0  0  0  0  0  0  0  0  0  0  0
  1  2  1  0  0  0  0
  2  3  2  0  0  0  0
  2  7  1  0  0  0  0
  3  4  1  0  0  0  0
  3 23  1  0  0  0  0
  4  5  2  0  0  0  0
  4 24  1  0  0  0  0
  5  6  1  0  0  0  0
  5 25  1  0  0  0  0
  6  7  2  0  0  0  0
  7  8  1  0  0  0  0
  8  9  2  0  0  0  0
  8 12  1  0  0  0  0
  9 10  1  0  0  0  0
 10 11  2  0  0  0  0
 10 17  1  0  0  0  0
 11 12  1  0  0  0  0
 11 14  1  0  0  0  0
 12 13  1  0  0  0  0
 14 15  2  0  0  0  0
 14 26  1  0  0  0  0
 15 16  1  0  0  0  0
 15 27  1  0  0  0  0
 16 17  2  0  0  0  0
 16 18  1  0  0  0  0
 17 28  1  0  0  0  0
 18 19  2  0  0  0  0
 18 22  1  0  0  0  0
 19 20  1  0  0  0  0
 19 21  1  0  0  0  0
 22 29  1  0  0  0  0
 22 30  1  0  0  0  0
M  CHG  2   1  -1  19   1
M  END
$$$$
