808
 OpenBabel04121316063D

 46 48  0  0  1  0  0  0  0  0999 V2000
    0.9082   -0.0001   -0.0997 C   0  0  0  0  0  0  0  0  0  0  0  0
    2.4278    0.0369   -0.1039 C   0  0  0  0  0  0  0  0  0  0  0  0
    3.0534    1.7241    0.1047 S   0  0  0  0  0  0  0  0  0  0  0  0
    2.4401    2.2452    1.3160 O   0  0  0  0  0  0  0  0  0  0  0  0
    4.4872    1.6871   -0.0353 O   0  0  0  0  0  0  0  0  0  0  0  0
    2.4533    2.7084   -1.2124 N   0  0  0  0  0  0  0  0  0  0  0  0
    3.1646    4.0853   -1.1827 C   0  0  1  0  0  0  0  0  0  0  0  0
    4.2230    3.8329   -1.3115 H   0  0  0  0  0  0  0  0  0  0  0  0
    2.8996    5.1939   -2.2665 C   0  0  0  0  0  0  0  0  0  0  0  0
    2.9142    6.4854   -1.4576 C   0  0  0  0  0  0  0  0  0  0  0  0
    2.9255    6.2005   -0.0992 C   0  0  0  0  0  0  0  0  0  0  0  0
    2.9545    4.7521    0.1824 C   0  0  0  0  0  0  0  0  0  0  0  0
    2.9058    7.1647    0.8983 C   0  0  0  0  0  0  0  0  0  0  0  0
    2.9080    8.5075    0.5457 C   0  0  0  0  0  0  0  0  0  0  0  0
    2.9149    8.8222   -0.8308 C   0  0  0  0  0  0  0  0  0  0  0  0
    2.9236    7.8227   -1.8343 C   0  0  0  0  0  0  0  0  0  0  0  0
    2.9150    9.5213    1.6735 C   0  0  0  0  0  0  0  0  0  0  0  0
    2.8120   10.9345    1.2371 C   0  0  0  0  0  0  0  0  0  0  0  0
    1.7668   11.8282    1.2890 C   0  0  0  0  0  0  0  0  0  0  0  0
    2.1998   12.9791    0.6060 C   0  0  0  0  0  0  0  0  0  0  0  0
    3.4896   12.7317    0.1801 C   0  0  0  0  0  0  0  0  0  0  0  0
    3.8836   11.4877    0.5934 O   0  0  0  0  0  0  0  0  0  0  0  0
    4.4221   13.5712   -0.6079 C   0  0  0  0  0  0  0  0  0  0  0  0
    3.8650   13.9334   -1.7957 F   0  0  0  0  0  0  0  0  0  0  0  0
    4.7008   14.7277    0.0497 F   0  0  0  0  0  0  0  0  0  0  0  0
    5.6073   12.9795   -0.8943 F   0  0  0  0  0  0  0  0  0  0  0  0
    2.9526   -0.8279    1.0605 C   0  0  0  0  0  0  0  0  0  0  0  0
    0.5013    0.5804   -0.9303 H   0  0  0  0  0  0  0  0  0  0  0  0
    0.5036    0.4129    0.8317 H   0  0  0  0  0  0  0  0  0  0  0  0
    0.5450   -1.0296   -0.1894 H   0  0  0  0  0  0  0  0  0  0  0  0
    2.8328   -0.3473   -1.0444 H   0  0  0  0  0  0  0  0  0  0  0  0
    1.4353    2.7998   -1.1493 H   0  0  0  0  0  0  0  0  0  0  0  0
    1.9740    5.0862   -2.8384 H   0  0  0  0  0  0  0  0  0  0  0  0
    3.7463    5.2122   -2.9684 H   0  0  0  0  0  0  0  0  0  0  0  0
    2.0075    4.4911    0.6622 H   0  0  0  0  0  0  0  0  0  0  0  0
    3.8077    4.5305    0.8283 H   0  0  0  0  0  0  0  0  0  0  0  0
    2.8952    6.8545    1.9401 H   0  0  0  0  0  0  0  0  0  0  0  0
    2.9146    9.8649   -1.1445 H   0  0  0  0  0  0  0  0  0  0  0  0
    2.9481    8.1415   -2.8729 H   0  0  0  0  0  0  0  0  0  0  0  0
    3.8079    9.3841    2.2973 H   0  0  0  0  0  0  0  0  0  0  0  0
    2.0490    9.3098    2.3192 H   0  0  0  0  0  0  0  0  0  0  0  0
    0.7997   11.6398    1.7327 H   0  0  0  0  0  0  0  0  0  0  0  0
    1.6462   13.8868    0.4166 H   0  0  0  0  0  0  0  0  0  0  0  0
    2.6146   -0.4428    2.0314 H   0  0  0  0  0  0  0  0  0  0  0  0
    4.0475   -0.8465    1.0867 H   0  0  0  0  0  0  0  0  0  0  0  0
    2.6030   -1.8631    0.9789 H   0  0  0  0  0  0  0  0  0  0  0  0
  1  2  1  0  0  0  0
  1 28  1  0  0  0  0
  1 29  1  0  0  0  0
  1 30  1  0  0  0  0
  2  3  1  0  0  0  0
  2 27  1  0  0  0  0
  2 31  1  0  0  0  0
  3  4  2  0  0  0  0
  3  5  2  0  0  0  0
  3  6  1  0  0  0  0
  6  7  1  0  0  0  0
  6 32  1  0  0  0  0
  7  8  1  6  0  0  0
  7  9  1  0  0  0  0
  7 12  1  0  0  0  0
  9 10  1  0  0  0  0
  9 33  1  0  0  0  0
  9 34  1  0  0  0  0
 10 11  2  0  0  0  0
 10 16  1  0  0  0  0
 11 12  1  0  0  0  0
 11 13  1  0  0  0  0
 12 35  1  0  0  0  0
 12 36  1  0  0  0  0
 13 14  2  0  0  0  0
 13 37  1  0  0  0  0
 14 15  1  0  0  0  0
 14 17  1  0  0  0  0
 15 16  2  0  0  0  0
 15 38  1  0  0  0  0
 16 39  1  0  0  0  0
 17 18  1  0  0  0  0
 17 40  1  0  0  0  0
 17 41  1  0  0  0  0
 18 19  2  0  0  0  0
 18 22  1  0  0  0  0
 19 20  1  0  0  0  0
 19 42  1  0  0  0  0
 20 21  2  0  0  0  0
 20 43  1  0  0  0  0
 21 22  1  0  0  0  0
 21 23  1  0  0  0  0
 23 24  1  0  0  0  0
 23 25  1  0  0  0  0
 23 26  1  0  0  0  0
 27 44  1  0  0  0  0
 27 45  1  0  0  0  0
 27 46  1  0  0  0  0
M  END
$$$$
