819
 OpenBabel04121316063D

 54 56  0  0  0  0  0  0  0  0999 V2000
    0.9454   -0.0472   -0.0179 C   0  0  0  0  0  0  0  0  0  0  0  0
    2.4629   -0.0332   -0.0197 C   0  0  0  0  0  0  0  0  0  0  0  0
    2.9334    1.3244    0.0049 O   0  0  0  0  0  0  0  0  0  0  0  0
    4.2933    1.4145    0.0212 C   0  0  0  0  0  0  0  0  0  0  0  0
    5.0594    0.4738    0.0034 O   0  0  0  0  0  0  0  0  0  0  0  0
    4.6779    2.7262    0.0683 N   0  0  0  0  0  0  0  0  0  0  0  0
    6.0798    3.0805    0.1357 C   0  0  0  0  0  0  0  0  0  0  0  0
    6.3544    4.5621    0.3067 C   0  0  0  0  0  0  0  0  0  0  0  0
    5.3975    5.4475    0.8216 C   0  0  0  0  0  0  0  0  0  0  0  0
    5.5728    6.8374    0.7422 C   0  0  0  0  0  0  0  0  0  0  0  0
    6.7874    7.3755    0.3014 C   0  0  0  0  0  0  0  0  0  0  0  0
    7.8404    6.4899   -0.0059 C   0  0  0  0  0  0  0  0  0  0  0  0
    7.5993    5.0968   -0.0665 C   0  0  0  0  0  0  0  0  0  0  0  0
    6.8263    8.7540   -0.1046 N   0  0  0  0  0  0  0  0  0  0  0  0
    6.3324    9.8687    0.5725 C   0  0  0  0  0  0  0  0  0  0  0  0
    5.6538    9.9621    2.1742 S   0  0  0  0  0  0  0  0  0  0  0  0
    6.5544   10.9605   -0.1210 N   0  0  0  0  0  0  0  0  0  0  0  0
    7.1446   10.6049   -1.2961 N   0  0  0  0  0  0  0  0  0  0  0  0
    7.2619    9.2840   -1.3484 C   0  0  0  0  0  0  0  0  0  0  0  0
    7.6780    8.5755   -2.5898 C   0  0  0  0  0  0  0  0  0  0  0  0
    8.2142    9.2727   -3.6780 C   0  0  0  0  0  0  0  0  0  0  0  0
    8.3813    8.6450   -4.9492 C   0  0  0  0  0  0  0  0  0  0  0  0
    8.5237    9.4520   -6.2262 C   0  0  0  0  0  0  0  0  0  0  0  0
    7.3118    9.2420   -7.1594 C   0  0  0  0  0  0  0  0  0  0  0  0
    8.6637   10.9498   -5.9632 C   0  0  0  0  0  0  0  0  0  0  0  0
    8.3253    7.2490   -5.0088 C   0  0  0  0  0  0  0  0  0  0  0  0
    7.9885    6.5280   -3.8986 C   0  0  0  0  0  0  0  0  0  0  0  0
    7.4424    7.2317   -2.8428 C   0  0  0  0  0  0  0  0  0  0  0  0
    6.4169    6.5829   -2.2237 O   0  0  0  0  0  0  0  0  0  0  0  0
    8.4453    6.4906   -6.1349 O   0  0  0  0  0  0  0  0  0  0  0  0
    0.5678   -1.0747   -0.0423 H   0  0  0  0  0  0  0  0  0  0  0  0
    0.5514    0.4909   -0.8857 H   0  0  0  0  0  0  0  0  0  0  0  0
    0.5528    0.4480    0.8758 H   0  0  0  0  0  0  0  0  0  0  0  0
    2.8280   -0.5301   -0.9256 H   0  0  0  0  0  0  0  0  0  0  0  0
    2.8295   -0.5681    0.8644 H   0  0  0  0  0  0  0  0  0  0  0  0
    3.9488    3.4186    0.0001 H   0  0  0  0  0  0  0  0  0  0  0  0
    6.5358    2.7115   -0.7942 H   0  0  0  0  0  0  0  0  0  0  0  0
    6.5334    2.5353    0.9688 H   0  0  0  0  0  0  0  0  0  0  0  0
    4.4576    5.0731    1.2170 H   0  0  0  0  0  0  0  0  0  0  0  0
    4.6917    7.4585    0.8908 H   0  0  0  0  0  0  0  0  0  0  0  0
    8.7865    6.8618   -0.3993 H   0  0  0  0  0  0  0  0  0  0  0  0
    8.3400    4.4549   -0.5497 H   0  0  0  0  0  0  0  0  0  0  0  0
    5.5648    8.6863    2.5602 H   0  0  0  0  0  0  0  0  0  0  0  0
    8.3825   10.3428   -3.5564 H   0  0  0  0  0  0  0  0  0  0  0  0
    9.4360    9.1061   -6.7285 H   0  0  0  0  0  0  0  0  0  0  0  0
    6.3841    9.5788   -6.6838 H   0  0  0  0  0  0  0  0  0  0  0  0
    7.1392    8.2006   -7.4461 H   0  0  0  0  0  0  0  0  0  0  0  0
    7.4501    9.7964   -8.0927 H   0  0  0  0  0  0  0  0  0  0  0  0
    7.7592   11.3434   -5.4816 H   0  0  0  0  0  0  0  0  0  0  0  0
    8.8133   11.5013   -6.8932 H   0  0  0  0  0  0  0  0  0  0  0  0
    9.5182   11.1501   -5.3081 H   0  0  0  0  0  0  0  0  0  0  0  0
    7.9190    5.4490   -3.9559 H   0  0  0  0  0  0  0  0  0  0  0  0
    6.6992    5.6567   -2.1513 H   0  0  0  0  0  0  0  0  0  0  0  0
    8.5654    7.0551   -6.9097 H   0  0  0  0  0  0  0  0  0  0  0  0
  1  2  1  0  0  0  0
  1 31  1  0  0  0  0
  1 32  1  0  0  0  0
  1 33  1  0  0  0  0
  2  3  1  0  0  0  0
  2 34  1  0  0  0  0
  2 35  1  0  0  0  0
  3  4  1  0  0  0  0
  4  5  2  0  0  0  0
  4  6  1  0  0  0  0
  6  7  1  0  0  0  0
  6 36  1  0  0  0  0
  7  8  1  0  0  0  0
  7 37  1  0  0  0  0
  7 38  1  0  0  0  0
  8  9  2  0  0  0  0
  8 13  1  0  0  0  0
  9 10  1  0  0  0  0
  9 39  1  0  0  0  0
 10 11  2  0  0  0  0
 10 40  1  0  0  0  0
 11 12  1  0  0  0  0
 11 14  1  0  0  0  0
 12 13  2  0  0  0  0
 12 41  1  0  0  0  0
 13 42  1  0  0  0  0
 14 15  1  0  0  0  0
 14 19  1  0  0  0  0
 15 16  1  0  0  0  0
 15 17  2  0  0  0  0
 16 43  1  0  0  0  0
 17 18  1  0  0  0  0
 18 19  2  0  0  0  0
 19 20  1  0  0  0  0
 20 21  2  0  0  0  0
 20 28  1  0  0  0  0
 21 22  1  0  0  0  0
 21 44  1  0  0  0  0
 22 23  1  0  0  0  0
 22 26  2  0  0  0  0
 23 24  1  0  0  0  0
 23 25  1  0  0  0  0
 23 45  1  0  0  0  0
 24 46  1  0  0  0  0
 24 47  1  0  0  0  0
 24 48  1  0  0  0  0
 25 49  1  0  0  0  0
 25 50  1  0  0  0  0
 25 51  1  0  0  0  0
 26 27  1  0  0  0  0
 26 30  1  0  0  0  0
 27 28  2  0  0  0  0
 27 52  1  0  0  0  0
 28 29  1  0  0  0  0
 29 53  1  0  0  0  0
 30 54  1  0  0  0  0
M  END
$$$$
