825
 OpenBabel04121316063D

 48 50  0  0  1  0  0  0  0  0999 V2000
    1.0047    0.0528    0.0081 O   0  0  0  0  0  0  0  0  0  0  0  0
    2.2478    0.0241    0.0952 C   0  0  0  0  0  0  0  0  0  0  0  0
    3.0963   -1.0663   -0.6225 C   0  0  1  0  0  0  0  0  0  0  0  0
    3.6924   -0.5664   -1.4022 H   0  0  0  0  0  0  0  0  0  0  0  0
    4.0541   -1.8535    0.2869 C   0  0  0  0  0  0  0  0  0  0  0  0
    5.2493   -1.3126    0.7690 C   0  0  0  0  0  0  0  0  0  0  0  0
    5.9751   -1.9620    1.7776 C   0  0  0  0  0  0  0  0  0  0  0  0
    5.6808   -3.2753    2.1224 C   0  0  0  0  0  0  0  0  0  0  0  0
    4.5973   -3.8953    1.5384 C   0  0  0  0  0  0  0  0  0  0  0  0
    3.7716   -3.1590    0.7015 C   0  0  0  0  0  0  0  0  0  0  0  0
    2.0679   -1.9860   -1.3601 C   0  0  0  0  0  0  0  0  0  0  0  0
    2.6543   -3.1379   -2.1342 C   0  0  0  0  0  0  0  0  0  0  0  0
    3.5807   -2.9207   -3.1520 C   0  0  0  0  0  0  0  0  0  0  0  0
    4.1025   -4.0056   -3.8311 C   0  0  0  0  0  0  0  0  0  0  0  0
    3.6249   -5.2960   -3.5478 C   0  0  0  0  0  0  0  0  0  0  0  0
    2.7435   -5.5248   -2.4947 C   0  0  0  0  0  0  0  0  0  0  0  0
    2.2742   -4.4468   -1.7886 C   0  0  0  0  0  0  0  0  0  0  0  0
    2.1017   -7.2353   -1.9640 Br  0  0  0  0  0  0  0  0  0  0  0  0
    4.0516   -6.4343   -4.3850 C   0  0  0  0  0  0  0  0  0  0  0  0
    4.9289   -7.7210   -3.4239 P   0  0  0  0  0  0  0  0  0  0  0  0
    5.0486   -8.6487   -4.6388 O   0  0  0  0  0  0  0  0  0  0  0  0
    6.2865   -6.7897   -3.2850 O   0  0  0  0  0  0  0  0  0  0  0  0
    5.7582   -8.9374   -2.5154 O   0  0  0  0  0  0  0  0  0  0  0  0
    3.0197   -7.0847   -4.9830 F   0  0  0  0  0  0  0  0  0  0  0  0
    4.9528   -6.1038   -5.3554 F   0  0  0  0  0  0  0  0  0  0  0  0
    2.8788    1.1939    0.7647 C   0  0  0  0  0  0  0  0  0  0  0  0
    2.4129    2.4825    0.5138 C   0  0  0  0  0  0  0  0  0  0  0  0
    3.1252    3.5875    0.9966 C   0  0  0  0  0  0  0  0  0  0  0  0
    4.2976    3.4102    1.7339 C   0  0  0  0  0  0  0  0  0  0  0  0
    4.6661    2.1324    2.1182 C   0  0  0  0  0  0  0  0  0  0  0  0
    3.8904    1.0531    1.7059 C   0  0  0  0  0  0  0  0  0  0  0  0
    5.5713   -0.3163    0.4721 H   0  0  0  0  0  0  0  0  0  0  0  0
    6.7625   -1.4315    2.3057 H   0  0  0  0  0  0  0  0  0  0  0  0
    6.2918   -3.8173    2.8349 H   0  0  0  0  0  0  0  0  0  0  0  0
    4.3458   -4.9305    1.7464 H   0  0  0  0  0  0  0  0  0  0  0  0
    2.8867   -3.6719    0.3775 H   0  0  0  0  0  0  0  0  0  0  0  0
    1.4500   -1.4124   -2.0634 H   0  0  0  0  0  0  0  0  0  0  0  0
    1.3568   -2.3889   -0.6235 H   0  0  0  0  0  0  0  0  0  0  0  0
    3.8925   -1.9153   -3.4222 H   0  0  0  0  0  0  0  0  0  0  0  0
    4.8562   -3.8377   -4.6008 H   0  0  0  0  0  0  0  0  0  0  0  0
    1.6310   -4.6381   -0.9321 H   0  0  0  0  0  0  0  0  0  0  0  0
    6.4029   -6.1286   -3.9978 H   0  0  0  0  0  0  0  0  0  0  0  0
    5.2802   -9.7783   -2.6384 H   0  0  0  0  0  0  0  0  0  0  0  0
    1.4763    2.6275   -0.0205 H   0  0  0  0  0  0  0  0  0  0  0  0
    2.7586    4.5921    0.8079 H   0  0  0  0  0  0  0  0  0  0  0  0
    4.8761    4.2639    2.0756 H   0  0  0  0  0  0  0  0  0  0  0  0
    5.5233    1.9628    2.7653 H   0  0  0  0  0  0  0  0  0  0  0  0
    4.0740    0.0928    2.1654 H   0  0  0  0  0  0  0  0  0  0  0  0
  1  2  2  0  0  0  0
  2  3  1  0  0  0  0
  2 26  1  0  0  0  0
  3  4  1  6  0  0  0
  3  5  1  0  0  0  0
  3 11  1  0  0  0  0
  5  6  2  0  0  0  0
  5 10  1  0  0  0  0
  6  7  1  0  0  0  0
  6 32  1  0  0  0  0
  7  8  2  0  0  0  0
  7 33  1  0  0  0  0
  8  9  1  0  0  0  0
  8 34  1  0  0  0  0
  9 10  2  0  0  0  0
  9 35  1  0  0  0  0
 10 36  1  0  0  0  0
 11 12  1  0  0  0  0
 11 37  1  0  0  0  0
 11 38  1  0  0  0  0
 12 13  2  0  0  0  0
 12 17  1  0  0  0  0
 13 14  1  0  0  0  0
 13 39  1  0  0  0  0
 14 15  2  0  0  0  0
 14 40  1  0  0  0  0
 15 16  1  0  0  0  0
 15 19  1  0  0  0  0
 16 17  2  0  0  0  0
 16 18  1  0  0  0  0
 17 41  1  0  0  0  0
 19 20  1  0  0  0  0
 19 24  1  0  0  0  0
 19 25  1  0  0  0  0
 20 21  2  0  0  0  0
 20 22  1  0  0  0  0
 20 23  1  0  0  0  0
 22 42  1  0  0  0  0
 23 43  1  0  0  0  0
 26 27  2  0  0  0  0
 26 31  1  0  0  0  0
 27 28  1  0  0  0  0
 27 44  1  0  0  0  0
 28 29  2  0  0  0  0
 28 45  1  0  0  0  0
 29 30  1  0  0  0  0
 29 46  1  0  0  0  0
 30 31  2  0  0  0  0
 30 47  1  0  0  0  0
 31 48  1  0  0  0  0
M  END
$$$$
