839
 OpenBabel04121316063D

 46 50  0  0  0  0  0  0  0  0999 V2000
    0.9833   -0.1980    0.0776 O   0  0  0  0  0  0  0  0  0  0  0  0
    2.3288   -0.3103   -0.0098 C   0  0  0  0  0  0  0  0  0  0  0  0
    2.9008   -1.3685   -0.2037 O   0  0  0  0  0  0  0  0  0  0  0  0
    3.0177    1.0006    0.0841 C   0  0  0  0  0  0  0  0  0  0  0  0
    4.5252    0.8863    0.0633 C   0  0  0  0  0  0  0  0  0  0  0  0
    5.2219    2.1631    0.1867 N   0  0  0  0  0  0  0  0  0  0  0  0
    4.6782    3.4482    0.0817 C   0  0  0  0  0  0  0  0  0  0  0  0
    3.3699    3.9091   -0.1546 C   0  0  0  0  0  0  0  0  0  0  0  0
    3.0828    5.2593   -0.2121 C   0  0  0  0  0  0  0  0  0  0  0  0
    4.0903    6.1677   -0.0277 C   0  0  0  0  0  0  0  0  0  0  0  0
    5.3933    5.7537    0.2137 C   0  0  0  0  0  0  0  0  0  0  0  0
    5.7134    4.3806    0.2749 C   0  0  0  0  0  0  0  0  0  0  0  0
    6.8205    3.5709    0.4904 C   0  0  0  0  0  0  0  0  0  0  0  0
    6.5802    2.2377    0.4427 C   0  0  0  0  0  0  0  0  0  0  0  0
    7.5716    1.2748    0.6301 C   0  0  0  0  0  0  0  0  0  0  0  0
    8.9239    1.6488    0.9015 C   0  0  0  0  0  0  0  0  0  0  0  0
    9.9588    0.5852    1.0765 C   0  0  0  0  0  0  0  0  0  0  0  0
   11.3176    0.8231    1.2774 C   0  0  0  0  0  0  0  0  0  0  0  0
   12.3022   -0.1530    1.1329 C   0  0  0  0  0  0  0  0  0  0  0  0
   11.9336   -1.4794    1.0802 C   0  0  0  0  0  0  0  0  0  0  0  0
   10.5882   -1.7987    1.1442 C   0  0  0  0  0  0  0  0  0  0  0  0
    9.6250   -0.7865    1.0565 C   0  0  0  0  0  0  0  0  0  0  0  0
    9.1536    3.0602    0.9121 C   0  0  0  0  0  0  0  0  0  0  0  0
    8.1180    4.0387    0.7360 C   0  0  0  0  0  0  0  0  0  0  0  0
    8.6311    5.3611    0.8324 C   0  0  0  0  0  0  0  0  0  0  0  0
    8.1850    6.4862    0.7281 O   0  0  0  0  0  0  0  0  0  0  0  0
    9.9377    5.1518    1.0921 N   0  0  0  0  0  0  0  0  0  0  0  0
   10.5580    5.9389    1.1421 H   0  0  0  0  0  0  0  0  0  0  0  0
   10.3656    3.8593    1.0610 C   0  0  0  0  0  0  0  0  0  0  0  0
   11.5735    3.6552    1.1107 O   0  0  0  0  0  0  0  0  0  0  0  0
    3.8304    7.5021   -0.0696 O   0  0  0  0  0  0  0  0  0  0  0  0
    0.6409    0.6898    0.3043 H   0  0  0  0  0  0  0  0  0  0  0  0
    2.6966    1.5178    0.9983 H   0  0  0  0  0  0  0  0  0  0  0  0
    2.7109    1.5202   -0.8269 H   0  0  0  0  0  0  0  0  0  0  0  0
    4.8661    0.4370   -0.8775 H   0  0  0  0  0  0  0  0  0  0  0  0
    4.8633    0.2499    0.8903 H   0  0  0  0  0  0  0  0  0  0  0  0
    2.5139    3.2745   -0.2886 H   0  0  0  0  0  0  0  0  0  0  0  0
    2.0583    5.5569   -0.3974 H   0  0  0  0  0  0  0  0  0  0  0  0
    6.1226    6.5366    0.3523 H   0  0  0  0  0  0  0  0  0  0  0  0
    7.2781    0.2344    0.5457 H   0  0  0  0  0  0  0  0  0  0  0  0
   11.6912    1.7622    1.6318 H   0  0  0  0  0  0  0  0  0  0  0  0
   13.3463    0.1473    1.1333 H   0  0  0  0  0  0  0  0  0  0  0  0
   12.6937   -2.2506    1.0560 H   0  0  0  0  0  0  0  0  0  0  0  0
   10.2728   -2.8312    1.2553 H   0  0  0  0  0  0  0  0  0  0  0  0
    8.5975   -1.1310    1.0002 H   0  0  0  0  0  0  0  0  0  0  0  0
    2.8830    7.6127   -0.2475 H   0  0  0  0  0  0  0  0  0  0  0  0
  1  2  1  0  0  0  0
  1 32  1  0  0  0  0
  2  3  2  0  0  0  0
  2  4  1  0  0  0  0
  4  5  1  0  0  0  0
  4 33  1  0  0  0  0
  4 34  1  0  0  0  0
  5  6  1  0  0  0  0
  5 35  1  0  0  0  0
  5 36  1  0  0  0  0
  6  7  1  0  0  0  0
  6 14  1  0  0  0  0
  7  8  2  0  0  0  0
  7 12  1  0  0  0  0
  8  9  1  0  0  0  0
  8 37  1  0  0  0  0
  9 10  2  0  0  0  0
  9 38  1  0  0  0  0
 10 11  1  0  0  0  0
 10 31  1  0  0  0  0
 11 12  2  0  0  0  0
 11 39  1  0  0  0  0
 12 13  1  0  0  0  0
 13 14  2  0  0  0  0
 13 24  1  0  0  0  0
 14 15  1  0  0  0  0
 15 16  2  0  0  0  0
 15 40  1  0  0  0  0
 16 17  1  0  0  0  0
 16 23  1  0  0  0  0
 17 18  2  0  0  0  0
 17 22  1  0  0  0  0
 18 19  1  0  0  0  0
 18 41  1  0  0  0  0
 19 20  2  0  0  0  0
 19 42  1  0  0  0  0
 20 21  1  0  0  0  0
 20 43  1  0  0  0  0
 21 22  2  0  0  0  0
 21 44  1  0  0  0  0
 22 45  1  0  0  0  0
 23 24  2  0  0  0  0
 23 29  1  0  0  0  0
 24 25  1  0  0  0  0
 25 26  2  0  0  0  0
 25 27  1  0  0  0  0
 27 28  1  0  0  0  0
 27 29  1  0  0  0  0
 29 30  2  0  0  0  0
 31 46  1  0  0  0  0
M  END
$$$$
