842
 OpenBabel04121316063D

 67 70  0  0  1  0  0  0  0  0999 V2000
    5.3952   -1.2693    1.4794 C   0  0  0  0  0  0  0  0  0  0  0  0
    5.5217    0.2227    1.5433 C   0  0  0  0  0  0  0  0  0  0  0  0
    5.9429    0.7806    2.6021 O   0  0  0  0  0  0  0  0  0  0  0  0
    5.1712    1.0372    0.5240 N   0  0  0  0  0  0  0  0  0  0  0  0
    4.6588    0.7541   -0.8229 C   0  0  2  0  0  0  0  0  0  0  0  0
    3.5777    0.6287   -0.6920 H   0  0  0  0  0  0  0  0  0  0  0  0
    5.2351   -0.5774   -1.4861 C   0  0  1  0  0  0  0  0  0  0  0  0
    5.0289   -0.5639   -2.5600 H   0  0  0  0  0  0  0  0  0  0  0  0
    6.8176   -0.9079   -1.2720 C   0  0  0  0  0  0  0  0  0  0  0  0
    7.6768   -0.0517   -2.0812 N   0  0  0  0  0  0  0  0  0  0  0  0
    9.2805    0.1496   -2.2764 C   0  0  0  0  0  0  0  0  0  0  0  0
    9.5402   -1.1120   -3.1282 C   0  0  0  0  0  0  0  0  0  0  0  0
    8.9666   -0.9856   -4.5960 C   0  0  0  0  0  0  0  0  0  0  0  0
    9.5236    0.1362   -5.5402 C   0  0  0  0  0  0  0  0  0  0  0  0
    9.4238    1.5267   -5.0360 C   0  0  0  0  0  0  0  0  0  0  0  0
   10.0684    1.3785   -3.5274 C   0  0  0  0  0  0  0  0  0  0  0  0
    9.7222    0.2086   -0.7519 C   0  0  0  0  0  0  0  0  0  0  0  0
    9.9901    1.3371    0.0788 C   0  0  0  0  0  0  0  0  0  0  0  0
   10.1205    1.3459    1.4700 C   0  0  0  0  0  0  0  0  0  0  0  0
   10.3913    0.1452    2.0336 C   0  0  0  0  0  0  0  0  0  0  0  0
   10.0949   -0.9956    1.2884 C   0  0  0  0  0  0  0  0  0  0  0  0
    9.5945   -0.9535   -0.0145 C   0  0  0  0  0  0  0  0  0  0  0  0
   10.4436   -2.2488    1.7710 N   0  0  0  0  0  0  0  0  0  0  0  0
   11.2937   -2.4968    2.8092 C   0  0  0  0  0  0  0  0  0  0  0  0
   11.2946   -3.8543    2.9730 C   0  0  0  0  0  0  0  0  0  0  0  0
   10.4904   -4.3462    1.9355 C   0  0  0  0  0  0  0  0  0  0  0  0
   10.0227   -3.3762    1.1599 N   0  0  0  0  0  0  0  0  0  0  0  0
    4.4279   -1.7049   -1.0455 O   0  0  0  0  0  0  0  0  0  0  0  0
    4.6711    2.0233   -1.7070 C   0  0  0  0  0  0  0  0  0  0  0  0
    5.9695    2.6831   -1.8780 C   0  0  0  0  0  0  0  0  0  0  0  0
    6.4444    2.3637   -3.1027 C   0  0  0  0  0  0  0  0  0  0  0  0
    7.7459    2.3700   -3.0378 C   0  0  0  0  0  0  0  0  0  0  0  0
    7.9864    1.2174   -3.6553 F   0  0  0  0  0  0  0  0  0  0  0  0
    8.5982    2.9362   -2.0400 C   0  0  0  0  0  0  0  0  0  0  0  0
    8.0679    3.6130   -1.0079 C   0  0  0  0  0  0  0  0  0  0  0  0
    6.7363    3.3818   -0.8802 C   0  0  0  0  0  0  0  0  0  0  0  0
    8.8756    4.1148   -0.0658 F   0  0  0  0  0  0  0  0  0  0  0  0
    5.7852   -1.7414    2.3784 H   0  0  0  0  0  0  0  0  0  0  0  0
    5.9870   -1.7473    0.7082 H   0  0  0  0  0  0  0  0  0  0  0  0
    4.3478   -1.5326    1.3461 H   0  0  0  0  0  0  0  0  0  0  0  0
    5.2191    2.0141    0.7900 H   0  0  0  0  0  0  0  0  0  0  0  0
    6.9809   -1.9897   -1.3531 H   0  0  0  0  0  0  0  0  0  0  0  0
    7.0606   -0.6043   -0.2555 H   0  0  0  0  0  0  0  0  0  0  0  0
    7.4579    0.8052   -1.5938 H   0  0  0  0  0  0  0  0  0  0  0  0
    9.0731   -1.9900   -2.6600 H   0  0  0  0  0  0  0  0  0  0  0  0
   10.6130   -1.3131   -3.1449 H   0  0  0  0  0  0  0  0  0  0  0  0
    7.8643   -0.9313   -4.5523 H   0  0  0  0  0  0  0  0  0  0  0  0
    9.1776   -1.9315   -5.0962 H   0  0  0  0  0  0  0  0  0  0  0  0
    9.0253    0.1027   -6.5139 H   0  0  0  0  0  0  0  0  0  0  0  0
   10.5949    0.0109   -5.6436 H   0  0  0  0  0  0  0  0  0  0  0  0
    8.3586    1.8498   -5.2144 H   0  0  0  0  0  0  0  0  0  0  0  0
    9.8255    2.4082   -5.5699 H   0  0  0  0  0  0  0  0  0  0  0  0
   10.0701    2.4685   -3.3980 H   0  0  0  0  0  0  0  0  0  0  0  0
   11.1608    1.3022   -3.5047 H   0  0  0  0  0  0  0  0  0  0  0  0
   10.2214    2.3286   -0.2528 H   0  0  0  0  0  0  0  0  0  0  0  0
   10.2235    2.2805    2.0207 H   0  0  0  0  0  0  0  0  0  0  0  0
   10.8959    0.1443    2.9912 H   0  0  0  0  0  0  0  0  0  0  0  0
    9.1890   -1.8586   -0.4636 H   0  0  0  0  0  0  0  0  0  0  0  0
   11.8057   -1.7010    3.3293 H   0  0  0  0  0  0  0  0  0  0  0  0
   11.8186   -4.3893    3.7423 H   0  0  0  0  0  0  0  0  0  0  0  0
   10.2168   -5.3602    1.6909 H   0  0  0  0  0  0  0  0  0  0  0  0
    3.6253   -1.3860   -0.5921 H   0  0  0  0  0  0  0  0  0  0  0  0
    4.0744    2.8650   -1.3745 H   0  0  0  0  0  0  0  0  0  0  0  0
    4.2785    1.7320   -2.6985 H   0  0  0  0  0  0  0  0  0  0  0  0
    6.0336    1.5310   -3.7279 H   0  0  0  0  0  0  0  0  0  0  0  0
    9.6298    2.6750   -1.8546 H   0  0  0  0  0  0  0  0  0  0  0  0
    6.3340    3.6249    0.0862 H   0  0  0  0  0  0  0  0  0  0  0  0
  1  2  1  0  0  0  0
  1 38  1  0  0  0  0
  1 39  1  0  0  0  0
  1 40  1  0  0  0  0
  2  3  2  0  0  0  0
  2  4  1  0  0  0  0
  4 41  1  0  0  0  0
  5  7  1  0  0  0  0
  5 29  1  0  0  0  0
  5  6  1  1  0  0  0
  5  4  1  0  0  0  0
  7  8  1  6  0  0  0
  7  9  1  0  0  0  0
  7 28  1  0  0  0  0
  9 10  1  0  0  0  0
  9 42  1  0  0  0  0
  9 43  1  0  0  0  0
 10 11  1  0  0  0  0
 10 44  1  0  0  0  0
 11 12  1  0  0  0  0
 11 16  1  0  0  0  0
 11 17  1  0  0  0  0
 12 13  1  0  0  0  0
 12 45  1  0  0  0  0
 12 46  1  0  0  0  0
 13 14  1  0  0  0  0
 13 47  1  0  0  0  0
 13 48  1  0  0  0  0
 14 15  1  0  0  0  0
 14 49  1  0  0  0  0
 14 50  1  0  0  0  0
 15 16  1  0  0  0  0
 15 51  1  0  0  0  0
 15 52  1  0  0  0  0
 16 53  1  0  0  0  0
 16 54  1  0  0  0  0
 17 18  2  0  0  0  0
 17 22  1  0  0  0  0
 18 19  1  0  0  0  0
 18 55  1  0  0  0  0
 19 20  2  0  0  0  0
 19 56  1  0  0  0  0
 20 21  1  0  0  0  0
 20 57  1  0  0  0  0
 21 22  2  0  0  0  0
 21 23  1  0  0  0  0
 22 58  1  0  0  0  0
 23 24  1  0  0  0  0
 23 27  1  0  0  0  0
 24 25  2  0  0  0  0
 24 59  1  0  0  0  0
 25 26  1  0  0  0  0
 25 60  1  0  0  0  0
 26 27  2  0  0  0  0
 26 61  1  0  0  0  0
 28 62  1  0  0  0  0
 29 30  1  0  0  0  0
 29 63  1  0  0  0  0
 29 64  1  0  0  0  0
 30 31  2  0  0  0  0
 30 36  1  0  0  0  0
 31 32  1  0  0  0  0
 31 65  1  0  0  0  0
 32 33  1  0  0  0  0
 32 34  2  0  0  0  0
 34 35  1  0  0  0  0
 34 66  1  0  0  0  0
 35 36  2  0  0  0  0
 35 37  1  0  0  0  0
 36 67  1  0  0  0  0
M  END
$$$$
