879
 OpenBabel04121316063D

 53 57  0  0  0  0  0  0  0  0999 V2000
    0.7711    0.1315    1.3393 N   0  0  0  0  0  0  0  0  0  0  0  0
    2.1894    0.1600    1.3530 C   0  0  0  0  0  0  0  0  0  0  0  0
    3.0747    1.6526    0.7634 C   0  0  0  0  0  0  0  0  0  0  0  0
    4.6146    1.5639   -0.0571 C   0  0  0  0  0  0  0  0  0  0  0  0
    5.3316    0.0764   -0.4379 C   0  0  0  0  0  0  0  0  0  0  0  0
    4.5353   -1.3767    0.1087 C   0  0  0  0  0  0  0  0  0  0  0  0
    2.9943   -1.4219    1.1215 N   0  0  0  0  0  0  0  0  0  0  0  0
    5.2359   -2.5710   -0.1006 C   0  0  0  0  0  0  0  0  0  0  0  0
    4.2164   -3.5239   -0.2552 N   0  0  0  0  0  0  0  0  0  0  0  0
    4.5139   -4.8214   -0.0565 C   0  0  0  0  0  0  0  0  0  0  0  0
    3.3201   -5.4986   -0.1944 C   0  0  0  0  0  0  0  0  0  0  0  0
    2.2962   -4.5411   -0.3965 C   0  0  0  0  0  0  0  0  0  0  0  0
    2.8902   -3.2869   -0.5505 C   0  0  0  0  0  0  0  0  0  0  0  0
    2.2853   -1.8594   -0.8535 C   0  0  0  0  0  0  0  0  0  0  0  0
    0.8803   -1.9844   -1.1514 C   0  0  0  0  0  0  0  0  0  0  0  0
    0.1382   -0.8837   -1.5512 C   0  0  0  0  0  0  0  0  0  0  0  0
    0.7331    0.3543   -1.6715 C   0  0  0  0  0  0  0  0  0  0  0  0
    2.0129    0.6059   -1.1151 C   0  0  0  0  0  0  0  0  0  0  0  0
    2.9950   -0.3250   -0.4870 C   0  0  0  0  0  0  0  0  0  0  0  0
    4.2902    0.0308    1.6019 Cl  0  0  0  0  0  0  0  0  0  0  0  0
    5.8860   -5.2600    0.1250 C   0  0  0  0  0  0  0  0  0  0  0  0
    7.0514   -4.4562    0.2740 C   0  0  0  0  0  0  0  0  0  0  0  0
    8.3257   -4.9427    0.1591 C   0  0  0  0  0  0  0  0  0  0  0  0
    8.4435   -6.2915    0.2296 C   0  0  0  0  0  0  0  0  0  0  0  0
    7.2912   -7.0293    0.4950 C   0  0  0  0  0  0  0  0  0  0  0  0
    6.0442   -6.5998    0.1731 C   0  0  0  0  0  0  0  0  0  0  0  0
    9.7027   -6.7906    0.1082 O   0  0  0  0  0  0  0  0  0  0  0  0
    9.8764   -8.1350    0.0266 C   0  0  0  0  0  0  0  0  0  0  0  0
   11.1496   -8.6236    0.1013 C   0  0  0  0  0  0  0  0  0  0  0  0
   11.4317   -9.9443    0.1078 N   0  0  0  0  0  0  0  0  0  0  0  0
   10.3791  -10.7811    0.0752 C   0  0  0  0  0  0  0  0  0  0  0  0
    9.1066  -10.4331   -0.0365 N   0  0  0  0  0  0  0  0  0  0  0  0
    8.9216   -9.1175   -0.1563 C   0  0  0  0  0  0  0  0  0  0  0  0
    0.3774    0.8307    0.7247 H   0  0  0  0  0  0  0  0  0  0  0  0
    0.5610   -0.7776    0.9074 H   0  0  0  0  0  0  0  0  0  0  0  0
    2.7234    2.4800    0.1206 H   0  0  0  0  0  0  0  0  0  0  0  0
    5.2805    2.1927    0.6135 H   0  0  0  0  0  0  0  0  0  0  0  0
    6.4063    0.0574   -0.1335 H   0  0  0  0  0  0  0  0  0  0  0  0
    5.6845   -2.5668    0.8931 H   0  0  0  0  0  0  0  0  0  0  0  0
    5.8949   -2.5135   -0.9766 H   0  0  0  0  0  0  0  0  0  0  0  0
    3.1966   -6.5716   -0.1738 H   0  0  0  0  0  0  0  0  0  0  0  0
    1.2457   -4.7790   -0.4782 H   0  0  0  0  0  0  0  0  0  0  0  0
    0.3055   -2.8695   -0.8323 H   0  0  0  0  0  0  0  0  0  0  0  0
   -0.9476   -0.9177   -1.5723 H   0  0  0  0  0  0  0  0  0  0  0  0
    0.0732    1.2399   -1.6328 H   0  0  0  0  0  0  0  0  0  0  0  0
    1.6788    1.4955   -0.6043 H   0  0  0  0  0  0  0  0  0  0  0  0
    7.1102   -3.4067    0.4851 H   0  0  0  0  0  0  0  0  0  0  0  0
    9.1663   -4.2584    0.1175 H   0  0  0  0  0  0  0  0  0  0  0  0
    7.2895   -7.9883    0.9779 H   0  0  0  0  0  0  0  0  0  0  0  0
    5.2166   -7.2935    0.1161 H   0  0  0  0  0  0  0  0  0  0  0  0
   12.0038   -7.9537    0.1299 H   0  0  0  0  0  0  0  0  0  0  0  0
   10.5585  -11.8439    0.0934 H   0  0  0  0  0  0  0  0  0  0  0  0
    7.9043   -8.9238   -0.4590 H   0  0  0  0  0  0  0  0  0  0  0  0
  1  2  1  0  0  0  0
  1 34  1  0  0  0  0
  1 35  1  0  0  0  0
  2  3  2  0  0  0  0
  2  7  1  0  0  0  0
  3  4  1  0  0  0  0
  3 36  1  0  0  0  0
  4  5  2  0  0  0  0
  4 37  1  0  0  0  0
  5  6  1  0  0  0  0
  5 38  1  0  0  0  0
  6  7  2  0  0  0  0
  6  8  1  0  0  0  0
  8  9  1  0  0  0  0
  8 39  1  0  0  0  0
  8 40  1  0  0  0  0
  9 10  1  0  0  0  0
  9 13  1  0  0  0  0
 10 11  2  0  0  0  0
 10 21  1  0  0  0  0
 11 12  1  0  0  0  0
 11 41  1  0  0  0  0
 12 13  2  0  0  0  0
 12 42  1  0  0  0  0
 13 14  1  0  0  0  0
 14 15  2  0  0  0  0
 14 19  1  0  0  0  0
 15 16  1  0  0  0  0
 15 43  1  0  0  0  0
 16 17  2  0  0  0  0
 16 44  1  0  0  0  0
 17 18  1  0  0  0  0
 17 45  1  0  0  0  0
 18 19  2  0  0  0  0
 18 46  1  0  0  0  0
 19 20  1  0  0  0  0
 21 22  2  0  0  0  0
 21 26  1  0  0  0  0
 22 23  1  0  0  0  0
 22 47  1  0  0  0  0
 23 24  2  0  0  0  0
 23 48  1  0  0  0  0
 24 25  1  0  0  0  0
 24 27  1  0  0  0  0
 25 26  2  0  0  0  0
 25 49  1  0  0  0  0
 26 50  1  0  0  0  0
 27 28  1  0  0  0  0
 28 29  2  0  0  0  0
 28 33  1  0  0  0  0
 29 30  1  0  0  0  0
 29 51  1  0  0  0  0
 30 31  2  0  0  0  0
 31 32  1  0  0  0  0
 31 52  1  0  0  0  0
 32 33  2  0  0  0  0
 33 53  1  0  0  0  0
M  END
$$$$
