882
 OpenBabel04121316063D

 76 79  0  0  1  0  0  0  0  0999 V2000
    4.7857    0.3356    1.4390 O   0  0  0  0  0  0  0  0  0  0  0  0
    3.9717    1.4626    1.0933 C   0  0  1  0  0  0  0  0  0  0  0  0
    3.4223    1.2210    0.1780 H   0  0  0  0  0  0  0  0  0  0  0  0
    2.9282    1.7459    2.2091 C   0  0  0  0  0  0  0  0  0  0  0  0
    2.2155    0.4359    2.5540 C   0  0  2  0  0  0  0  0  0  0  0  0
    2.4618   -0.3390    1.8280 H   0  0  0  0  0  0  0  0  0  0  0  0
    0.7060    0.5214    2.5280 C   0  0  0  0  0  0  0  0  0  0  0  0
    0.2626    0.9599    1.1468 C   0  0  0  0  0  0  0  0  0  0  0  0
    1.0086    1.2247    0.2162 O   0  0  0  0  0  0  0  0  0  0  0  0
   -1.0722    1.0267    1.0049 O   0  0  0  0  0  0  0  0  0  0  0  0
    2.6891    0.0061    3.8307 O   0  0  0  0  0  0  0  0  0  0  0  0
    4.9864    2.5496    0.7275 C   0  0  0  0  0  0  0  0  0  0  0  0
    4.3520    3.9039    0.3991 C   0  0  0  0  0  0  0  0  0  0  0  0
    5.3824    5.0165    0.2477 C   0  0  0  0  0  0  0  0  0  0  0  0
    5.8958    5.7289   -0.8733 C   0  0  0  0  0  0  0  0  0  0  0  0
    5.3844    5.4775   -2.3036 C   0  0  0  0  0  0  0  0  0  0  0  0
    4.3730    4.6095   -2.7101 C   0  0  0  0  0  0  0  0  0  0  0  0
    4.1344    4.2516   -4.0628 C   0  0  0  0  0  0  0  0  0  0  0  0
    4.8127    4.8765   -5.0875 C   0  0  0  0  0  0  0  0  0  0  0  0
    5.6395    5.9104   -4.7673 C   0  0  0  0  0  0  0  0  0  0  0  0
    5.8603    6.1708   -3.4043 C   0  0  0  0  0  0  0  0  0  0  0  0
    4.6090    4.5419   -6.3658 F   0  0  0  0  0  0  0  0  0  0  0  0
    7.0864    6.5644   -0.3254 C   0  0  0  0  0  0  0  0  0  0  0  0
    7.1648    6.2216    1.0788 C   0  0  0  0  0  0  0  0  0  0  0  0
    6.0181    5.4808    1.3964 N   0  0  0  0  0  0  0  0  0  0  0  0
    5.7192    5.1468    2.7986 C   0  0  0  0  0  0  0  0  0  0  0  0
    5.4453    6.4150    3.6328 C   0  0  0  0  0  0  0  0  0  0  0  0
    4.5814    4.2714    3.2536 C   0  0  0  0  0  0  0  0  0  0  0  0
    8.2313    6.5858    2.0759 C   0  0  0  0  0  0  0  0  0  0  0  0
    9.1545    7.2996    1.7810 O   0  0  0  0  0  0  0  0  0  0  0  0
    8.2245    6.1858    3.4292 N   0  0  0  0  0  0  0  0  0  0  0  0
    9.0210    6.8549    4.3754 C   0  0  0  0  0  0  0  0  0  0  0  0
    8.4869    7.1690    5.6286 C   0  0  0  0  0  0  0  0  0  0  0  0
    9.2458    7.9491    6.4965 C   0  0  0  0  0  0  0  0  0  0  0  0
   10.5584    8.2916    6.1594 C   0  0  0  0  0  0  0  0  0  0  0  0
   11.1139    7.8728    4.9586 C   0  0  0  0  0  0  0  0  0  0  0  0
   10.3265    7.2016    4.0543 C   0  0  0  0  0  0  0  0  0  0  0  0
    8.2048    7.4318   -1.0161 C   0  0  0  0  0  0  0  0  0  0  0  0
    8.5023    7.4853   -2.3730 C   0  0  0  0  0  0  0  0  0  0  0  0
    9.6493    8.0097   -2.9945 C   0  0  0  0  0  0  0  0  0  0  0  0
   10.5590    8.6759   -2.2338 C   0  0  0  0  0  0  0  0  0  0  0  0
   10.2441    8.8915   -0.9171 C   0  0  0  0  0  0  0  0  0  0  0  0
    9.0509    8.3457   -0.3761 C   0  0  0  0  0  0  0  0  0  0  0  0
   11.6114    9.2648   -2.8077 F   0  0  0  0  0  0  0  0  0  0  0  0
    4.2389   -0.4611    1.5011 H   0  0  0  0  0  0  0  0  0  0  0  0
    2.2303    2.5325    1.8875 H   0  0  0  0  0  0  0  0  0  0  0  0
    3.3548    2.1125    3.1435 H   0  0  0  0  0  0  0  0  0  0  0  0
    0.3400    1.1909    3.3107 H   0  0  0  0  0  0  0  0  0  0  0  0
    0.3257   -0.4884    2.7219 H   0  0  0  0  0  0  0  0  0  0  0  0
   -1.5738    0.7672    1.7972 H   0  0  0  0  0  0  0  0  0  0  0  0
    2.5203   -0.9455    3.9264 H   0  0  0  0  0  0  0  0  0  0  0  0
    5.5680    2.2038   -0.1354 H   0  0  0  0  0  0  0  0  0  0  0  0
    5.7637    2.5848    1.5018 H   0  0  0  0  0  0  0  0  0  0  0  0
    3.5912    4.2203    1.1121 H   0  0  0  0  0  0  0  0  0  0  0  0
    3.7063    3.7191   -0.4369 H   0  0  0  0  0  0  0  0  0  0  0  0
    3.6449    4.2115   -2.0378 H   0  0  0  0  0  0  0  0  0  0  0  0
    3.4014    3.4901   -4.2993 H   0  0  0  0  0  0  0  0  0  0  0  0
    6.0912    6.5386   -5.5293 H   0  0  0  0  0  0  0  0  0  0  0  0
    6.3049    7.0995   -3.2255 H   0  0  0  0  0  0  0  0  0  0  0  0
    6.5807    4.5174    3.0773 H   0  0  0  0  0  0  0  0  0  0  0  0
    4.4869    6.8448    3.3398 H   0  0  0  0  0  0  0  0  0  0  0  0
    6.1559    7.2334    3.5252 H   0  0  0  0  0  0  0  0  0  0  0  0
    5.4155    6.1491    4.6981 H   0  0  0  0  0  0  0  0  0  0  0  0
    3.6181    4.7062    2.9910 H   0  0  0  0  0  0  0  0  0  0  0  0
    4.5995    4.0754    4.3294 H   0  0  0  0  0  0  0  0  0  0  0  0
    4.7235    3.2974    2.8483 H   0  0  0  0  0  0  0  0  0  0  0  0
    7.4940    5.6912    3.8774 H   0  0  0  0  0  0  0  0  0  0  0  0
    7.4809    6.8773    5.9196 H   0  0  0  0  0  0  0  0  0  0  0  0
    8.8246    8.2878    7.4386 H   0  0  0  0  0  0  0  0  0  0  0  0
   11.1645    8.8791    6.8377 H   0  0  0  0  0  0  0  0  0  0  0  0
   12.1482    8.0541    4.6943 H   0  0  0  0  0  0  0  0  0  0  0  0
   10.7559    6.9384    3.0922 H   0  0  0  0  0  0  0  0  0  0  0  0
    7.7489    7.6086   -3.1018 H   0  0  0  0  0  0  0  0  0  0  0  0
    9.6973    8.0224   -4.0784 H   0  0  0  0  0  0  0  0  0  0  0  0
   10.8706    9.5211   -0.2969 H   0  0  0  0  0  0  0  0  0  0  0  0
    8.8223    8.7577    0.5965 H   0  0  0  0  0  0  0  0  0  0  0  0
  1  2  1  0  0  0  0
  1 45  1  0  0  0  0
  2  3  1  6  0  0  0
  2  4  1  0  0  0  0
  2 12  1  0  0  0  0
  4 46  1  0  0  0  0
  4 47  1  0  0  0  0
  5  7  1  0  0  0  0
  5 11  1  0  0  0  0
  5  6  1  6  0  0  0
  5  4  1  0  0  0  0
  7  8  1  0  0  0  0
  7 48  1  0  0  0  0
  7 49  1  0  0  0  0
  8  9  2  0  0  0  0
  8 10  1  0  0  0  0
 10 50  1  0  0  0  0
 11 51  1  0  0  0  0
 12 13  1  0  0  0  0
 12 52  1  0  0  0  0
 12 53  1  0  0  0  0
 13 14  1  0  0  0  0
 13 54  1  0  0  0  0
 13 55  1  0  0  0  0
 14 15  2  0  0  0  0
 14 25  1  0  0  0  0
 15 16  1  0  0  0  0
 15 23  1  0  0  0  0
 16 17  2  0  0  0  0
 16 21  1  0  0  0  0
 17 18  1  0  0  0  0
 17 56  1  0  0  0  0
 18 19  2  0  0  0  0
 18 57  1  0  0  0  0
 19 20  1  0  0  0  0
 19 22  1  0  0  0  0
 20 21  2  0  0  0  0
 20 58  1  0  0  0  0
 21 59  1  0  0  0  0
 23 24  2  0  0  0  0
 23 38  1  0  0  0  0
 24 25  1  0  0  0  0
 24 29  1  0  0  0  0
 25 26  1  0  0  0  0
 26 27  1  0  0  0  0
 26 28  1  0  0  0  0
 26 60  1  0  0  0  0
 27 61  1  0  0  0  0
 27 62  1  0  0  0  0
 27 63  1  0  0  0  0
 28 64  1  0  0  0  0
 28 65  1  0  0  0  0
 28 66  1  0  0  0  0
 29 30  2  0  0  0  0
 29 31  1  0  0  0  0
 31 32  1  0  0  0  0
 31 67  1  0  0  0  0
 32 33  2  0  0  0  0
 32 37  1  0  0  0  0
 33 34  1  0  0  0  0
 33 68  1  0  0  0  0
 34 35  2  0  0  0  0
 34 69  1  0  0  0  0
 35 36  1  0  0  0  0
 35 70  1  0  0  0  0
 36 37  2  0  0  0  0
 36 71  1  0  0  0  0
 37 72  1  0  0  0  0
 38 39  2  0  0  0  0
 38 43  1  0  0  0  0
 39 40  1  0  0  0  0
 39 73  1  0  0  0  0
 40 41  2  0  0  0  0
 40 74  1  0  0  0  0
 41 42  1  0  0  0  0
 41 44  1  0  0  0  0
 42 43  2  0  0  0  0
 42 75  1  0  0  0  0
 43 76  1  0  0  0  0
M  END
$$$$
