885
 OpenBabel04121316063D

 35 36  0  0  1  0  0  0  0  0999 V2000
    4.5497   -0.6286   -3.2004 O   0  0  0  0  0  0  0  0  0  0  0  0
    3.3788   -0.4628   -2.5760 C   0  0  0  0  0  0  0  0  0  0  0  0
    2.5000    0.1571   -3.1461 O   0  0  0  0  0  0  0  0  0  0  0  0
    3.3125   -0.9800   -1.1086 C   0  0  2  0  0  0  0  0  0  0  0  0
    2.8618   -0.2590   -0.4201 H   0  0  0  0  0  0  0  0  0  0  0  0
    4.7173   -1.0698   -0.5696 C   0  0  0  0  0  0  0  0  0  0  0  0
    5.0942   -2.4483   -1.0404 C   0  0  0  0  0  0  0  0  0  0  0  0
    3.8213   -3.2769   -0.8205 C   0  0  0  0  0  0  0  0  0  0  0  0
    2.6695   -2.3058   -0.8797 N   0  0  0  0  0  0  0  0  0  0  0  0
    1.3403   -2.7873   -1.8660 S   0  0  0  0  0  0  0  0  0  0  0  0
    1.7583   -2.6230   -3.2345 O   0  0  0  0  0  0  0  0  0  0  0  0
    0.9607   -4.1216   -1.4051 O   0  0  0  0  0  0  0  0  0  0  0  0
   -0.1319   -1.7172   -1.5976 C   0  0  0  0  0  0  0  0  0  0  0  0
   -1.3868   -2.3260   -1.6801 C   0  0  0  0  0  0  0  0  0  0  0  0
   -2.5537   -1.5321   -1.8237 C   0  0  0  0  0  0  0  0  0  0  0  0
   -3.8876   -2.1710   -2.0174 C   0  0  0  0  0  0  0  0  0  0  0  0
   -2.4820   -0.1337   -1.8080 C   0  0  0  0  0  0  0  0  0  0  0  0
   -1.2784    0.4661   -1.5861 C   0  0  0  0  0  0  0  0  0  0  0  0
   -0.1272   -0.3074   -1.5242 C   0  0  0  0  0  0  0  0  0  0  0  0
    0.9963    0.4637   -1.2466 N   0  0  0  0  0  0  0  0  0  0  0  0
   -3.8351    0.9072   -2.0349 Cl  0  0  0  0  0  0  0  0  0  0  0  0
    4.5613    0.1052   -3.8440 H   0  0  0  0  0  0  0  0  0  0  0  0
    4.7241   -0.9913    0.5229 H   0  0  0  0  0  0  0  0  0  0  0  0
    5.3350   -0.2522   -0.9599 H   0  0  0  0  0  0  0  0  0  0  0  0
    5.9757   -2.8184   -0.5211 H   0  0  0  0  0  0  0  0  0  0  0  0
    5.3333   -2.4459   -2.1087 H   0  0  0  0  0  0  0  0  0  0  0  0
    3.8517   -3.7386    0.1710 H   0  0  0  0  0  0  0  0  0  0  0  0
    3.7456   -4.0586   -1.5803 H   0  0  0  0  0  0  0  0  0  0  0  0
   -1.4684   -3.4128   -1.6568 H   0  0  0  0  0  0  0  0  0  0  0  0
   -3.8180   -3.2586   -1.9897 H   0  0  0  0  0  0  0  0  0  0  0  0
   -4.2862   -1.8693   -2.9911 H   0  0  0  0  0  0  0  0  0  0  0  0
   -4.5590   -1.8393   -1.2197 H   0  0  0  0  0  0  0  0  0  0  0  0
   -1.1886    1.5464   -1.4978 H   0  0  0  0  0  0  0  0  0  0  0  0
    1.0132    1.3599   -1.7302 H   0  0  0  0  0  0  0  0  0  0  0  0
    1.6113   -0.0543   -1.8379 H   0  0  0  0  0  0  0  0  0  0  0  0
  1  2  1  0  0  0  0
  1 22  1  0  0  0  0
  2  3  2  0  0  0  0
  4  6  1  0  0  0  0
  4  9  1  0  0  0  0
  4  5  1  1  0  0  0
  4  2  1  0  0  0  0
  6  7  1  0  0  0  0
  6 23  1  0  0  0  0
  6 24  1  0  0  0  0
  7  8  1  0  0  0  0
  7 25  1  0  0  0  0
  7 26  1  0  0  0  0
  8  9  1  0  0  0  0
  8 27  1  0  0  0  0
  8 28  1  0  0  0  0
  9 10  1  0  0  0  0
 10 11  2  0  0  0  0
 10 12  2  0  0  0  0
 10 13  1  0  0  0  0
 13 14  2  0  0  0  0
 13 19  1  0  0  0  0
 14 15  1  0  0  0  0
 14 29  1  0  0  0  0
 15 16  1  0  0  0  0
 15 17  2  0  0  0  0
 16 30  1  0  0  0  0
 16 31  1  0  0  0  0
 16 32  1  0  0  0  0
 17 18  1  0  0  0  0
 17 21  1  0  0  0  0
 18 19  2  0  0  0  0
 18 33  1  0  0  0  0
 19 20  1  0  0  0  0
 20 34  1  0  0  0  0
 20 35  1  0  0  0  0
M  END
$$$$
