894
 OpenBabel04121316063D

 52 54  0  0  1  0  0  0  0  0999 V2000
    2.7904    1.3546   -0.6353 C   0  0  0  0  0  0  0  0  0  0  0  0
    2.4647    0.0231    0.0252 C   0  0  2  0  0  0  0  0  0  0  0  0
    1.3777   -0.0918    0.1234 H   0  0  0  0  0  0  0  0  0  0  0  0
    3.0879   -0.0580    1.3545 N   0  0  0  0  0  0  0  0  0  0  0  0
    3.3424    1.0386    2.2448 C   0  0  0  0  0  0  0  0  0  0  0  0
    4.5034    0.4816    3.0443 C   0  0  0  0  0  0  0  0  0  0  0  0
    4.1201   -1.0026    3.2339 C   0  0  1  0  0  0  0  0  0  0  0  0
    3.6537   -1.1244    4.2151 H   0  0  0  0  0  0  0  0  0  0  0  0
    3.0944   -1.2209    2.1167 C   0  0  0  0  0  0  0  0  0  0  0  0
    2.4138   -2.2059    1.9020 O   0  0  0  0  0  0  0  0  0  0  0  0
    5.3429   -1.8780    3.1191 N   0  0  0  0  0  0  0  0  0  0  0  0
    4.9541   -3.5140    3.3782 S   0  0  0  0  0  0  0  0  0  0  0  0
    4.5380   -3.6000    4.7548 O   0  0  0  0  0  0  0  0  0  0  0  0
    4.1610   -4.0101    2.2769 O   0  0  0  0  0  0  0  0  0  0  0  0
    6.4962   -4.3585    3.2156 C   0  0  0  0  0  0  0  0  0  0  0  0
    6.2063   -5.8414    3.4059 C   0  0  0  0  0  0  0  0  0  0  0  0
    7.4261   -6.6794    3.2651 C   0  0  0  0  0  0  0  0  0  0  0  0
    8.7474   -6.3053    3.1177 C   0  0  0  0  0  0  0  0  0  0  0  0
    9.6084   -7.4346    3.0251 C   0  0  0  0  0  0  0  0  0  0  0  0
    8.8992   -8.6051    3.1005 C   0  0  0  0  0  0  0  0  0  0  0  0
    7.2379   -8.3820    3.2793 S   0  0  0  0  0  0  0  0  0  0  0  0
    9.5199  -10.2003    3.0353 Cl  0  0  0  0  0  0  0  0  0  0  0  0
    3.0101   -1.1882   -0.8146 C   0  0  0  0  0  0  0  0  0  0  0  0
    2.2377   -1.9842   -1.3545 O   0  0  0  0  0  0  0  0  0  0  0  0
    4.3884   -1.3651   -0.8762 N   0  0  0  0  0  0  0  0  0  0  0  0
    4.9550   -2.7086   -0.7865 C   0  0  0  0  0  0  0  0  0  0  0  0
    5.7544   -3.0572   -2.0430 C   0  0  0  0  0  0  0  0  0  0  0  0
    6.7545   -2.0577   -2.3202 O   0  0  0  0  0  0  0  0  0  0  0  0
    6.1341   -0.7868   -2.5207 C   0  0  0  0  0  0  0  0  0  0  0  0
    5.3539   -0.3517   -1.2804 C   0  0  0  0  0  0  0  0  0  0  0  0
    3.8451    1.6053   -0.4996 H   0  0  0  0  0  0  0  0  0  0  0  0
    2.2702    2.1854   -0.1550 H   0  0  0  0  0  0  0  0  0  0  0  0
    2.5590    1.3471   -1.7033 H   0  0  0  0  0  0  0  0  0  0  0  0
    2.4613    1.1997    2.8832 H   0  0  0  0  0  0  0  0  0  0  0  0
    3.5900    1.9660    1.7306 H   0  0  0  0  0  0  0  0  0  0  0  0
    4.6363    1.0093    3.9928 H   0  0  0  0  0  0  0  0  0  0  0  0
    5.4276    0.5944    2.4621 H   0  0  0  0  0  0  0  0  0  0  0  0
    6.0485   -1.5834    3.7975 H   0  0  0  0  0  0  0  0  0  0  0  0
    7.1937   -3.9792    3.9662 H   0  0  0  0  0  0  0  0  0  0  0  0
    6.8852   -4.1706    2.2088 H   0  0  0  0  0  0  0  0  0  0  0  0
    5.4608   -6.1787    2.6710 H   0  0  0  0  0  0  0  0  0  0  0  0
    5.7622   -6.0156    4.3953 H   0  0  0  0  0  0  0  0  0  0  0  0
    9.0890   -5.2769    3.0780 H   0  0  0  0  0  0  0  0  0  0  0  0
   10.6818   -7.3767    2.9103 H   0  0  0  0  0  0  0  0  0  0  0  0
    4.1880   -3.4605   -0.5800 H   0  0  0  0  0  0  0  0  0  0  0  0
    5.6396   -2.6770    0.0713 H   0  0  0  0  0  0  0  0  0  0  0  0
    5.0934   -3.1502   -2.9113 H   0  0  0  0  0  0  0  0  0  0  0  0
    6.2797   -4.0053   -1.9008 H   0  0  0  0  0  0  0  0  0  0  0  0
    5.4696   -0.8355   -3.3930 H   0  0  0  0  0  0  0  0  0  0  0  0
    6.9095   -0.0447   -2.7378 H   0  0  0  0  0  0  0  0  0  0  0  0
    4.8830    0.5733   -1.5779 H   0  0  0  0  0  0  0  0  0  0  0  0
    6.0197   -0.1874   -0.4274 H   0  0  0  0  0  0  0  0  0  0  0  0
  1 31  1  0  0  0  0
  1 32  1  0  0  0  0
  1 33  1  0  0  0  0
  2  4  1  0  0  0  0
  2 23  1  0  0  0  0
  2  3  1  1  0  0  0
  2  1  1  0  0  0  0
  4  5  1  0  0  0  0
  4  9  1  0  0  0  0
  5  6  1  0  0  0  0
  5 34  1  0  0  0  0
  5 35  1  0  0  0  0
  6  7  1  0  0  0  0
  6 36  1  0  0  0  0
  6 37  1  0  0  0  0
  7  8  1  1  0  0  0
  7  9  1  0  0  0  0
  7 11  1  0  0  0  0
  9 10  2  0  0  0  0
 11 12  1  0  0  0  0
 11 38  1  0  0  0  0
 12 13  2  0  0  0  0
 12 14  2  0  0  0  0
 12 15  1  0  0  0  0
 15 16  1  0  0  0  0
 15 39  1  0  0  0  0
 15 40  1  0  0  0  0
 16 17  1  0  0  0  0
 16 41  1  0  0  0  0
 16 42  1  0  0  0  0
 17 18  2  0  0  0  0
 17 21  1  0  0  0  0
 18 19  1  0  0  0  0
 18 43  1  0  0  0  0
 19 20  2  0  0  0  0
 19 44  1  0  0  0  0
 20 21  1  0  0  0  0
 20 22  1  0  0  0  0
 23 24  2  0  0  0  0
 23 25  1  0  0  0  0
 25 26  1  0  0  0  0
 25 30  1  0  0  0  0
 26 27  1  0  0  0  0
 26 45  1  0  0  0  0
 26 46  1  0  0  0  0
 27 28  1  0  0  0  0
 27 47  1  0  0  0  0
 27 48  1  0  0  0  0
 28 29  1  0  0  0  0
 29 30  1  0  0  0  0
 29 49  1  0  0  0  0
 29 50  1  0  0  0  0
 30 51  1  0  0  0  0
 30 52  1  0  0  0  0
M  END
$$$$
