896
 OpenBabel04121316063D

 55 56  0  0  1  0  0  0  0  0999 V2000
    1.2244    0.3338    0.7904 C   0  0  0  0  0  0  0  0  0  0  0  0
    2.6387    0.2479    0.2630 C   0  0  0  0  0  0  0  0  0  0  0  0
    2.9812    1.0660   -0.9145 N   0  0  0  0  0  0  0  0  0  0  0  0
    2.0839    1.7393   -1.7995 C   0  0  0  0  0  0  0  0  0  0  0  0
    2.3925    2.5896   -2.6081 O   0  0  0  0  0  0  0  0  0  0  0  0
    0.6232    1.5252   -1.7691 C   0  0  0  0  0  0  0  0  0  0  0  0
    0.0391    0.2849   -2.0290 C   0  0  0  0  0  0  0  0  0  0  0  0
   -1.3002    0.0888   -1.6744 C   0  0  0  0  0  0  0  0  0  0  0  0
   -1.7402   -1.2047   -1.6915 O   0  0  0  0  0  0  0  0  0  0  0  0
   -3.0162   -1.4499   -1.0813 C   0  0  0  0  0  0  0  0  0  0  0  0
   -3.2282   -2.9658   -0.8904 C   0  0  1  0  0  0  0  0  0  0  0  0
   -2.8872   -3.4894   -1.7932 H   0  0  0  0  0  0  0  0  0  0  0  0
   -2.5501   -3.4997    0.3283 N   0  0  0  0  0  0  0  0  0  0  0  0
   -1.1640   -3.6268    0.3504 C   0  0  0  0  0  0  0  0  0  0  0  0
   -0.4042   -2.4895    0.3957 C   0  0  0  0  0  0  0  0  0  0  0  0
    0.9293   -2.5993    0.0634 C   0  0  0  0  0  0  0  0  0  0  0  0
    1.6577   -3.7116    0.0543 N   0  0  0  0  0  0  0  0  0  0  0  0
    0.9365   -4.8187    0.2059 C   0  0  0  0  0  0  0  0  0  0  0  0
   -0.4624   -4.8280    0.2477 C   0  0  0  0  0  0  0  0  0  0  0  0
   -4.7346   -3.1938   -0.7168 C   0  0  0  0  0  0  0  0  0  0  0  0
   -2.0700    1.1648   -1.2435 C   0  0  0  0  0  0  0  0  0  0  0  0
   -1.5384    2.4510   -1.2156 C   0  0  0  0  0  0  0  0  0  0  0  0
   -0.1751    2.6291   -1.4436 C   0  0  0  0  0  0  0  0  0  0  0  0
   -2.4516    3.6107   -0.9967 C   0  0  0  0  0  0  0  0  0  0  0  0
    4.4537    1.1592   -1.1303 C   0  0  0  0  0  0  0  0  0  0  0  0
    5.0812   -0.1858   -1.5391 C   0  0  0  0  0  0  0  0  0  0  0  0
    4.8878    2.2166   -2.1346 C   0  0  0  0  0  0  0  0  0  0  0  0
    1.0435   -0.2733    1.6790 H   0  0  0  0  0  0  0  0  0  0  0  0
    0.5689   -0.0999    0.0639 H   0  0  0  0  0  0  0  0  0  0  0  0
    0.8663    1.3487    0.9372 H   0  0  0  0  0  0  0  0  0  0  0  0
    2.9391   -0.7713    0.0014 H   0  0  0  0  0  0  0  0  0  0  0  0
    3.3004    0.5053    1.0964 H   0  0  0  0  0  0  0  0  0  0  0  0
    0.6586   -0.5624   -2.3113 H   0  0  0  0  0  0  0  0  0  0  0  0
   -3.7640   -1.0429   -1.7716 H   0  0  0  0  0  0  0  0  0  0  0  0
   -3.1268   -0.9619   -0.1003 H   0  0  0  0  0  0  0  0  0  0  0  0
   -3.0483   -4.2291    0.8241 H   0  0  0  0  0  0  0  0  0  0  0  0
   -0.8779   -1.5301    0.5630 H   0  0  0  0  0  0  0  0  0  0  0  0
    1.4490   -1.7687   -0.3543 H   0  0  0  0  0  0  0  0  0  0  0  0
    1.5427   -5.7139    0.2440 H   0  0  0  0  0  0  0  0  0  0  0  0
   -0.9702   -5.7767    0.1897 H   0  0  0  0  0  0  0  0  0  0  0  0
   -5.3039   -2.7533   -1.5438 H   0  0  0  0  0  0  0  0  0  0  0  0
   -5.0933   -2.7397    0.2146 H   0  0  0  0  0  0  0  0  0  0  0  0
   -4.9638   -4.2625   -0.6813 H   0  0  0  0  0  0  0  0  0  0  0  0
   -3.1018    1.0347   -0.9354 H   0  0  0  0  0  0  0  0  0  0  0  0
    0.2776    3.6146   -1.3551 H   0  0  0  0  0  0  0  0  0  0  0  0
   -3.4819    3.2682   -0.8474 H   0  0  0  0  0  0  0  0  0  0  0  0
   -2.4414    4.2317   -1.8970 H   0  0  0  0  0  0  0  0  0  0  0  0
   -2.1518    4.1941   -0.1244 H   0  0  0  0  0  0  0  0  0  0  0  0
    4.8835    1.4412   -0.1581 H   0  0  0  0  0  0  0  0  0  0  0  0
    4.6449   -0.5569   -2.4717 H   0  0  0  0  0  0  0  0  0  0  0  0
    4.9502   -0.9615   -0.7772 H   0  0  0  0  0  0  0  0  0  0  0  0
    6.1626   -0.0768   -1.6861 H   0  0  0  0  0  0  0  0  0  0  0  0
    4.5167    1.9572   -3.1330 H   0  0  0  0  0  0  0  0  0  0  0  0
    5.9730    2.2965   -2.2084 H   0  0  0  0  0  0  0  0  0  0  0  0
    4.5031    3.1974   -1.8366 H   0  0  0  0  0  0  0  0  0  0  0  0
  1  2  1  0  0  0  0
  1 28  1  0  0  0  0
  1 29  1  0  0  0  0
  1 30  1  0  0  0  0
  2  3  1  0  0  0  0
  2 31  1  0  0  0  0
  2 32  1  0  0  0  0
  3  4  1  0  0  0  0
  3 25  1  0  0  0  0
  4  5  2  0  0  0  0
  4  6  1  0  0  0  0
  6  7  2  0  0  0  0
  6 23  1  0  0  0  0
  7  8  1  0  0  0  0
  7 33  1  0  0  0  0
  8  9  1  0  0  0  0
  8 21  2  0  0  0  0
  9 10  1  0  0  0  0
 10 11  1  0  0  0  0
 10 34  1  0  0  0  0
 10 35  1  0  0  0  0
 11 12  1  6  0  0  0
 11 13  1  0  0  0  0
 11 20  1  0  0  0  0
 13 14  1  0  0  0  0
 13 36  1  0  0  0  0
 14 15  2  0  0  0  0
 14 19  1  0  0  0  0
 15 16  1  0  0  0  0
 15 37  1  0  0  0  0
 16 17  2  0  0  0  0
 16 38  1  0  0  0  0
 17 18  1  0  0  0  0
 18 19  2  0  0  0  0
 18 39  1  0  0  0  0
 19 40  1  0  0  0  0
 20 41  1  0  0  0  0
 20 42  1  0  0  0  0
 20 43  1  0  0  0  0
 21 22  1  0  0  0  0
 21 44  1  0  0  0  0
 22 23  2  0  0  0  0
 22 24  1  0  0  0  0
 23 45  1  0  0  0  0
 24 46  1  0  0  0  0
 24 47  1  0  0  0  0
 24 48  1  0  0  0  0
 25 26  1  0  0  0  0
 25 27  1  0  0  0  0
 25 49  1  0  0  0  0
 26 50  1  0  0  0  0
 26 51  1  0  0  0  0
 26 52  1  0  0  0  0
 27 53  1  0  0  0  0
 27 54  1  0  0  0  0
 27 55  1  0  0  0  0
M  END
$$$$
