8AP
 OpenBabel04121316063D

 28 29  0  0  0  0  0  0  0  0999 V2000
    1.0017    0.2080   -0.1772 N   0  0  0  0  0  0  0  0  0  0  0  0
    2.3759    0.0079   -0.0121 C   0  0  0  0  0  0  0  0  0  0  0  0
    3.0852    1.1544    0.0635 N   0  0  0  0  0  0  0  0  0  0  0  0
    4.4160    1.0512    0.2506 C   0  0  0  0  0  0  0  0  0  0  0  0
    5.0826   -0.1391    0.4463 C   0  0  0  0  0  0  0  0  0  0  0  0
    4.3565   -1.3127    0.2767 C   0  0  0  0  0  0  0  0  0  0  0  0
    2.9858   -1.2674   -0.0173 C   0  0  0  0  0  0  0  0  0  0  0  0
    2.3356   -2.5047   -0.1374 N   0  0  0  0  0  0  0  0  0  0  0  0
    0.9559   -2.5466   -0.5884 C   0  0  0  0  0  0  0  0  0  0  0  0
    0.5529   -3.9369   -0.9670 C   0  0  0  0  0  0  0  0  0  0  0  0
    1.0111   -5.0262   -0.2197 C   0  0  0  0  0  0  0  0  0  0  0  0
    0.7329   -6.3153   -0.6403 C   0  0  0  0  0  0  0  0  0  0  0  0
   -0.1073   -6.5159   -1.7340 C   0  0  0  0  0  0  0  0  0  0  0  0
   -0.6868   -5.4316   -2.3936 C   0  0  0  0  0  0  0  0  0  0  0  0
   -0.3340   -4.1386   -2.0310 C   0  0  0  0  0  0  0  0  0  0  0  0
    0.8099    1.1823    0.0285 H   0  0  0  0  0  0  0  0  0  0  0  0
    0.4501   -0.3990    0.4114 H   0  0  0  0  0  0  0  0  0  0  0  0
    4.9581    1.9933    0.2274 H   0  0  0  0  0  0  0  0  0  0  0  0
    6.1342   -0.1617    0.7009 H   0  0  0  0  0  0  0  0  0  0  0  0
    4.8709   -2.2658    0.3684 H   0  0  0  0  0  0  0  0  0  0  0  0
    2.9268   -3.2171   -0.5603 H   0  0  0  0  0  0  0  0  0  0  0  0
    0.7961   -1.8900   -1.4519 H   0  0  0  0  0  0  0  0  0  0  0  0
    0.3029   -2.2782    0.2454 H   0  0  0  0  0  0  0  0  0  0  0  0
    1.6093   -4.8578    0.6743 H   0  0  0  0  0  0  0  0  0  0  0  0
    1.1762   -7.1539   -0.1138 H   0  0  0  0  0  0  0  0  0  0  0  0
   -0.3181   -7.5259   -2.0685 H   0  0  0  0  0  0  0  0  0  0  0  0
   -1.3975   -5.5917   -3.1990 H   0  0  0  0  0  0  0  0  0  0  0  0
   -0.7443   -3.2915   -2.5790 H   0  0  0  0  0  0  0  0  0  0  0  0
  1  2  1  0  0  0  0
  1 16  1  0  0  0  0
  1 17  1  0  0  0  0
  2  3  2  0  0  0  0
  2  7  1  0  0  0  0
  3  4  1  0  0  0  0
  4  5  2  0  0  0  0
  4 18  1  0  0  0  0
  5  6  1  0  0  0  0
  5 19  1  0  0  0  0
  6  7  2  0  0  0  0
  6 20  1  0  0  0  0
  7  8  1  0  0  0  0
  8  9  1  0  0  0  0
  8 21  1  0  0  0  0
  9 10  1  0  0  0  0
  9 22  1  0  0  0  0
  9 23  1  0  0  0  0
 10 11  2  0  0  0  0
 10 15  1  0  0  0  0
 11 12  1  0  0  0  0
 11 24  1  0  0  0  0
 12 13  2  0  0  0  0
 12 25  1  0  0  0  0
 13 14  1  0  0  0  0
 13 26  1  0  0  0  0
 14 15  2  0  0  0  0
 14 27  1  0  0  0  0
 15 28  1  0  0  0  0
M  END
$$$$
