8GD
 OpenBabel04121316063D

 43 45  0  0  1  0  0  0  0  0999 V2000
    0.8979    0.0615    0.0190 O   0  0  0  0  0  0  0  0  0  0  0  0
    2.3099    0.0729    0.0437 C   0  0  1  0  0  0  0  0  0  0  0  0
    2.6647    0.1714   -0.9885 H   0  0  0  0  0  0  0  0  0  0  0  0
    2.8913    1.1605    0.9045 C   0  0  0  0  0  0  0  0  0  0  0  0
    4.2837    0.5997    1.2050 C   0  0  1  0  0  0  0  0  0  0  0  0
    4.6885    1.0557    2.1158 H   0  0  0  0  0  0  0  0  0  0  0  0
    4.0625   -0.7969    1.4237 O   0  0  0  0  0  0  0  0  0  0  0  0
    2.8740   -1.1755    0.7027 C   0  0  2  0  0  0  0  0  0  0  0  0
    2.1651   -1.6113    1.4177 H   0  0  0  0  0  0  0  0  0  0  0  0
    3.2288   -2.2040   -0.3538 C   0  0  0  0  0  0  0  0  0  0  0  0
    2.0706   -2.6612   -1.0722 O   0  0  0  0  0  0  0  0  0  0  0  0
    2.4831   -3.8323   -2.2768 P   0  0  1  0  0  0  0  0  0  0  0  0
    3.2665   -4.6872   -1.2824 O   0  0  0  0  0  0  0  0  0  0  0  0
    0.8366   -4.3609   -2.3268 O   0  0  0  0  0  0  0  0  0  0  0  0
   -0.1012   -3.4330   -1.2077 P   0  0  0  0  0  0  0  0  0  0  0  0
   -1.3104   -4.3617   -1.3646 O   0  0  0  0  0  0  0  0  0  0  0  0
    0.6616   -4.1060    0.0857 O   0  0  0  0  0  0  0  0  0  0  0  0
   -1.0389   -2.5050   -0.0886 O   0  0  0  0  0  0  0  0  0  0  0  0
    2.8957   -5.0035   -3.4815 O   0  0  0  0  0  0  0  0  0  0  0  0
    5.2415    0.8143    0.1420 N   0  0  0  0  0  0  0  0  0  0  0  0
    5.5372    2.1381   -0.2943 C   0  0  0  0  0  0  0  0  0  0  0  0
    5.0895    3.1797    0.1085 O   0  0  0  0  0  0  0  0  0  0  0  0
    6.4535    1.9734   -1.3428 N   0  0  0  0  0  0  0  0  0  0  0  0
    6.8466    2.7222   -1.8930 H   0  0  0  0  0  0  0  0  0  0  0  0
    6.7254    0.6489   -1.4678 C   0  0  0  0  0  0  0  0  0  0  0  0
    6.0383   -0.0705   -0.5718 C   0  0  0  0  0  0  0  0  0  0  0  0
    6.0963   -1.4301   -0.4696 N   0  0  0  0  0  0  0  0  0  0  0  0
    6.8474   -2.0518   -1.3329 C   0  0  0  0  0  0  0  0  0  0  0  0
    6.8974   -3.4042   -1.3706 N   0  0  0  0  0  0  0  0  0  0  0  0
    7.5931   -1.3934   -2.2771 N   0  0  0  0  0  0  0  0  0  0  0  0
    8.1718   -1.9056   -2.9231 H   0  0  0  0  0  0  0  0  0  0  0  0
    7.5903   -0.0284   -2.4242 C   0  0  0  0  0  0  0  0  0  0  0  0
    8.2184    0.5644   -3.2914 O   0  0  0  0  0  0  0  0  0  0  0  0
    0.5867    0.9048   -0.3506 H   0  0  0  0  0  0  0  0  0  0  0  0
    2.3031    1.2572    1.8260 H   0  0  0  0  0  0  0  0  0  0  0  0
    2.8679    2.1300    0.4032 H   0  0  0  0  0  0  0  0  0  0  0  0
    3.7248   -3.0343    0.1619 H   0  0  0  0  0  0  0  0  0  0  0  0
    3.9117   -1.8119   -1.1039 H   0  0  0  0  0  0  0  0  0  0  0  0
    1.5209   -3.6556    0.1963 H   0  0  0  0  0  0  0  0  0  0  0  0
   -1.8891   -2.9900   -0.0572 H   0  0  0  0  0  0  0  0  0  0  0  0
    3.8629   -5.1117   -3.4903 H   0  0  0  0  0  0  0  0  0  0  0  0
    6.4412   -3.9179   -0.6209 H   0  0  0  0  0  0  0  0  0  0  0  0
    7.5796   -3.9191   -1.9103 H   0  0  0  0  0  0  0  0  0  0  0  0
  1  2  1  0  0  0  0
  1 34  1  0  0  0  0
  2  3  1  6  0  0  0
  2  4  1  0  0  0  0
  2  8  1  0  0  0  0
  4  5  1  0  0  0  0
  4 35  1  0  0  0  0
  4 36  1  0  0  0  0
  5  6  1  1  0  0  0
  5  7  1  0  0  0  0
  5 20  1  0  0  0  0
  7  8  1  0  0  0  0
  8  9  1  1  0  0  0
  8 10  1  0  0  0  0
 10 11  1  0  0  0  0
 10 37  1  0  0  0  0
 10 38  1  0  0  0  0
 12 11  1  6  0  0  0
 12 13  2  0  0  0  0
 12 14  1  0  0  0  0
 12 19  1  0  0  0  0
 14 15  1  0  0  0  0
 15 16  2  0  0  0  0
 15 17  1  0  0  0  0
 15 18  1  0  0  0  0
 17 39  1  0  0  0  0
 18 40  1  0  0  0  0
 19 41  1  0  0  0  0
 20 21  1  0  0  0  0
 20 26  1  0  0  0  0
 21 22  2  0  0  0  0
 21 23  1  0  0  0  0
 23 24  1  0  0  0  0
 23 25  1  0  0  0  0
 25 26  2  0  0  0  0
 25 32  1  0  0  0  0
 26 27  1  0  0  0  0
 27 28  2  0  0  0  0
 28 29  1  0  0  0  0
 28 30  1  0  0  0  0
 29 42  1  0  0  0  0
 29 43  1  0  0  0  0
 30 31  1  0  0  0  0
 30 32  1  0  0  0  0
 32 33  2  0  0  0  0
M  END
$$$$
