8GT
 OpenBabel04121316063D

 49 51  0  0  1  0  0  0  0  0999 V2000
    8.1104    0.0538    4.7270 O   0  0  0  0  0  0  0  0  0  0  0  0
    7.0010   -0.0849    3.8277 C   0  0  2  0  0  0  0  0  0  0  0  0
    6.8928    0.8671    3.3039 H   0  0  0  0  0  0  0  0  0  0  0  0
    5.7504   -0.4487    4.6132 C   0  0  1  0  0  0  0  0  0  0  0  0
    5.7949   -0.0761    5.6428 H   0  0  0  0  0  0  0  0  0  0  0  0
    4.4405    0.0576    3.9659 C   0  0  0  0  0  0  0  0  0  0  0  0
    4.2757    1.5115    3.9354 O   0  0  0  0  0  0  0  0  0  0  0  0
    3.0681    1.9367    2.8750 P   0  0  2  0  0  0  0  0  0  0  0  0
    4.0302    2.1429    1.6848 O   0  0  0  0  0  0  0  0  0  0  0  0
    2.6673    3.4860    2.8226 O   0  0  0  0  0  0  0  0  0  0  0  0
    1.3942    3.9849    1.8843 P   0  0  2  0  0  0  0  0  0  0  0  0
    0.4304    3.6772    3.0509 O   0  0  0  0  0  0  0  0  0  0  0  0
    0.6673    2.7227    0.9508 O   0  0  0  0  0  0  0  0  0  0  0  0
   -0.5931    1.9771    1.8719 P   0  0  0  0  0  0  0  0  0  0  0  0
    0.3248    1.2922    2.8331 O   0  0  0  0  0  0  0  0  0  0  0  0
   -1.4426    3.3529    1.9507 O   0  0  0  0  0  0  0  0  0  0  0  0
   -1.8534    1.2314    2.7929 O   0  0  0  0  0  0  0  0  0  0  0  0
    2.4741    4.3296    0.5773 O   0  0  0  0  0  0  0  0  0  0  0  0
    1.9904    1.7056    4.2084 O   0  0  0  0  0  0  0  0  0  0  0  0
    5.8037   -1.9025    4.6786 O   0  0  0  0  0  0  0  0  0  0  0  0
    6.4093   -2.4313    3.4758 C   0  0  2  0  0  0  0  0  0  0  0  0
    7.0778   -3.2539    3.7677 H   0  0  0  0  0  0  0  0  0  0  0  0
    7.1789   -1.2576    2.8498 C   0  0  2  0  0  0  0  0  0  0  0  0
    6.7401   -0.9869    1.8848 H   0  0  0  0  0  0  0  0  0  0  0  0
    8.5519   -1.5895    2.6244 O   0  0  0  0  0  0  0  0  0  0  0  0
    5.3979   -3.0038    2.5994 N   0  0  0  0  0  0  0  0  0  0  0  0
    4.0379   -3.1726    2.9659 C   0  0  0  0  0  0  0  0  0  0  0  0
    3.4499   -2.9048    4.0050 O   0  0  0  0  0  0  0  0  0  0  0  0
    3.4058   -3.6911    1.8396 N   0  0  0  0  0  0  0  0  0  0  0  0
    2.4217   -3.8958    1.7750 H   0  0  0  0  0  0  0  0  0  0  0  0
    4.3429   -3.8749    0.8780 C   0  0  0  0  0  0  0  0  0  0  0  0
    5.5518   -3.4912    1.3003 C   0  0  0  0  0  0  0  0  0  0  0  0
    6.6974   -3.5627    0.5481 N   0  0  0  0  0  0  0  0  0  0  0  0
    6.5454   -4.0441   -0.6614 C   0  0  0  0  0  0  0  0  0  0  0  0
    7.5879   -4.1797   -1.5146 N   0  0  0  0  0  0  0  0  0  0  0  0
    5.3328   -4.4500   -1.1709 N   0  0  0  0  0  0  0  0  0  0  0  0
    5.2582   -4.8082   -2.1102 H   0  0  0  0  0  0  0  0  0  0  0  0
    4.1603   -4.3998   -0.4653 C   0  0  0  0  0  0  0  0  0  0  0  0
    3.0744   -4.7486   -0.9080 O   0  0  0  0  0  0  0  0  0  0  0  0
    8.3006   -0.8202    5.1080 H   0  0  0  0  0  0  0  0  0  0  0  0
    3.5908   -0.3725    4.5119 H   0  0  0  0  0  0  0  0  0  0  0  0
    4.3718   -0.3387    2.9434 H   0  0  0  0  0  0  0  0  0  0  0  0
   -1.0724    3.9016    2.6752 H   0  0  0  0  0  0  0  0  0  0  0  0
   -1.6444    0.2834    2.8797 H   0  0  0  0  0  0  0  0  0  0  0  0
    1.9908    4.5046   -0.2494 H   0  0  0  0  0  0  0  0  0  0  0  0
    1.0625    1.7519    3.8978 H   0  0  0  0  0  0  0  0  0  0  0  0
    8.5564   -2.3387    1.9994 H   0  0  0  0  0  0  0  0  0  0  0  0
    8.5145   -3.9073   -1.2128 H   0  0  0  0  0  0  0  0  0  0  0  0
    7.5029   -4.5514   -2.4514 H   0  0  0  0  0  0  0  0  0  0  0  0
  1 40  1  0  0  0  0
  2  4  1  0  0  0  0
  2 23  1  0  0  0  0
  2  3  1  6  0  0  0
  2  1  1  0  0  0  0
  4  5  1  1  0  0  0
  4  6  1  0  0  0  0
  4 20  1  0  0  0  0
  6  7  1  0  0  0  0
  6 41  1  0  0  0  0
  6 42  1  0  0  0  0
  8 10  1  1  0  0  0
  8 19  1  0  0  0  0
  8  9  2  0  0  0  0
  8  7  1  0  0  0  0
 11 13  1  6  0  0  0
 11 18  1  0  0  0  0
 11 12  2  0  0  0  0
 11 10  1  0  0  0  0
 13 14  1  0  0  0  0
 14 15  2  0  0  0  0
 14 16  1  0  0  0  0
 14 17  1  0  0  0  0
 16 43  1  0  0  0  0
 17 44  1  0  0  0  0
 18 45  1  0  0  0  0
 19 46  1  0  0  0  0
 20 21  1  0  0  0  0
 21 23  1  0  0  0  0
 21 26  1  0  0  0  0
 21 22  1  1  0  0  0
 23 24  1  6  0  0  0
 23 25  1  0  0  0  0
 25 47  1  0  0  0  0
 26 27  1  0  0  0  0
 26 32  1  0  0  0  0
 27 28  2  0  0  0  0
 27 29  1  0  0  0  0
 29 30  1  0  0  0  0
 29 31  1  0  0  0  0
 31 32  2  0  0  0  0
 31 38  1  0  0  0  0
 32 33  1  0  0  0  0
 33 34  2  0  0  0  0
 34 35  1  0  0  0  0
 34 36  1  0  0  0  0
 35 48  1  0  0  0  0
 35 49  1  0  0  0  0
 36 37  1  0  0  0  0
 36 38  1  0  0  0  0
 38 39  2  0  0  0  0
M  END
$$$$
