8HG
 OpenBabel04121316063D

 33 35  0  0  1  0  0  0  0  0999 V2000
    1.0593   -0.0216   -0.0845 O   0  0  0  0  0  0  0  0  0  0  0  0
    2.4858    0.0489   -0.0346 C   0  0  0  0  0  0  0  0  0  0  0  0
    2.9830    1.3138    0.6966 C   0  0  1  0  0  0  0  0  0  0  0  0
    4.0481    1.1556    0.9157 H   0  0  0  0  0  0  0  0  0  0  0  0
    2.8928    2.5238   -0.0876 O   0  0  0  0  0  0  0  0  0  0  0  0
    2.9034    3.6330    0.8473 C   0  0  2  0  0  0  0  0  0  0  0  0
    3.9537    3.8167    1.1062 H   0  0  0  0  0  0  0  0  0  0  0  0
    2.1199    3.1237    2.0443 C   0  0  0  0  0  0  0  0  0  0  0  0
    2.1958    1.6107    1.9653 C   0  0  2  0  0  0  0  0  0  0  0  0
    1.1839    1.1942    1.9375 H   0  0  0  0  0  0  0  0  0  0  0  0
    2.8459    1.0718    3.1115 O   0  0  0  0  0  0  0  0  0  0  0  0
    2.3666    4.8626    0.2863 N   0  0  0  0  0  0  0  0  0  0  0  0
    1.9180    5.0030   -1.0545 C   0  0  0  0  0  0  0  0  0  0  0  0
    1.8555    4.1953   -1.9670 O   0  0  0  0  0  0  0  0  0  0  0  0
    1.5246    6.3422   -1.1763 N   0  0  0  0  0  0  0  0  0  0  0  0
    1.1575    6.7621   -2.0156 H   0  0  0  0  0  0  0  0  0  0  0  0
    1.7344    6.9595    0.0124 C   0  0  0  0  0  0  0  0  0  0  0  0
    2.2414    6.1101    0.9131 C   0  0  0  0  0  0  0  0  0  0  0  0
    2.5546    6.4554    2.2057 N   0  0  0  0  0  0  0  0  0  0  0  0
    2.3234    7.7019    2.5353 C   0  0  0  0  0  0  0  0  0  0  0  0
    2.5807    8.1752    3.7788 N   0  0  0  0  0  0  0  0  0  0  0  0
    1.8048    8.6324    1.6661 N   0  0  0  0  0  0  0  0  0  0  0  0
    1.6421    9.5834    1.9585 H   0  0  0  0  0  0  0  0  0  0  0  0
    1.4796    8.3500    0.3658 C   0  0  0  0  0  0  0  0  0  0  0  0
    1.0237    9.1751   -0.4151 O   0  0  0  0  0  0  0  0  0  0  0  0
    0.8255   -0.8589   -0.5208 H   0  0  0  0  0  0  0  0  0  0  0  0
    2.8610    0.0040   -1.0617 H   0  0  0  0  0  0  0  0  0  0  0  0
    2.8302   -0.8452    0.5015 H   0  0  0  0  0  0  0  0  0  0  0  0
    1.0692    3.4242    1.9552 H   0  0  0  0  0  0  0  0  0  0  0  0
    2.5085    3.5336    2.9797 H   0  0  0  0  0  0  0  0  0  0  0  0
    2.2731    1.2746    3.8721 H   0  0  0  0  0  0  0  0  0  0  0  0
    2.9780    7.5502    4.4679 H   0  0  0  0  0  0  0  0  0  0  0  0
    2.4303    9.1352    4.0587 H   0  0  0  0  0  0  0  0  0  0  0  0
  1  2  1  0  0  0  0
  1 26  1  0  0  0  0
  2  3  1  0  0  0  0
  2 27  1  0  0  0  0
  2 28  1  0  0  0  0
  3  4  1  1  0  0  0
  3  5  1  0  0  0  0
  3  9  1  0  0  0  0
  5  6  1  0  0  0  0
  6  8  1  0  0  0  0
  6 12  1  0  0  0  0
  6  7  1  1  0  0  0
  8  9  1  0  0  0  0
  8 29  1  0  0  0  0
  8 30  1  0  0  0  0
  9 10  1  6  0  0  0
  9 11  1  0  0  0  0
 11 31  1  0  0  0  0
 12 13  1  0  0  0  0
 12 18  1  0  0  0  0
 13 14  2  0  0  0  0
 13 15  1  0  0  0  0
 15 16  1  0  0  0  0
 15 17  1  0  0  0  0
 17 18  2  0  0  0  0
 17 24  1  0  0  0  0
 18 19  1  0  0  0  0
 19 20  2  0  0  0  0
 20 21  1  0  0  0  0
 20 22  1  0  0  0  0
 21 32  1  0  0  0  0
 21 33  1  0  0  0  0
 22 23  1  0  0  0  0
 22 24  1  0  0  0  0
 24 25  2  0  0  0  0
M  END
$$$$
