8ID
 OpenBabel04121316063D

 72 76  0  0  1  0  0  0  0  0999 V2000
    4.9866    1.0771   -7.8450 O   0  0  0  0  0  0  0  0  0  0  0  0
    4.3953    0.0995   -6.9821 C   0  0  2  0  0  0  0  0  0  0  0  0
    3.5005   -0.2613   -7.4974 H   0  0  0  0  0  0  0  0  0  0  0  0
    4.0843    0.7143   -5.6272 C   0  0  2  0  0  0  0  0  0  0  0  0
    3.3254    0.1191   -5.1158 H   0  0  0  0  0  0  0  0  0  0  0  0
    3.5612    2.0214   -5.6428 O   0  0  0  0  0  0  0  0  0  0  0  0
    5.4165    0.5524   -4.9023 C   0  0  2  0  0  0  0  0  0  0  0  0
    6.1053    1.3559   -5.1884 H   0  0  0  0  0  0  0  0  0  0  0  0
    5.9503   -0.7094   -5.3418 O   0  0  0  0  0  0  0  0  0  0  0  0
    5.3803   -1.0351   -6.6092 C   0  0  1  0  0  0  0  0  0  0  0  0
    6.1910   -1.0947   -7.3442 H   0  0  0  0  0  0  0  0  0  0  0  0
    4.7362   -2.3824   -6.5316 N   0  3  0  0  0  0  0  0  0  0  0  0
    5.4034   -3.4748   -6.9784 C   0  0  0  0  0  0  0  0  0  0  0  0
    4.7749   -4.7203   -6.9928 C   0  0  0  0  0  0  0  0  0  0  0  0
    3.4311   -4.8200   -6.6354 C   0  0  0  0  0  0  0  0  0  0  0  0
    2.7697   -3.6956   -6.1595 C   0  0  0  0  0  0  0  0  0  0  0  0
    3.4878   -2.5283   -6.0321 C   0  0  0  0  0  0  0  0  0  0  0  0
    1.3151   -3.7478   -5.8505 C   0  0  0  0  0  0  0  0  0  0  0  0
    0.6952   -4.7652   -6.0047 O   0  0  0  0  0  0  0  0  0  0  0  0
    0.6893   -2.5917   -5.4332 N   0  0  0  0  0  0  0  0  0  0  0  0
    5.2072    0.5959   -3.4013 C   0  0  0  0  0  0  0  0  0  0  0  0
    5.7970   -0.5147   -2.7220 O   0  0  0  0  0  0  0  0  0  0  0  0
    5.9251   -0.3950   -1.0640 P   0  0  2  0  0  0  0  0  0  0  0  0
    7.3161   -1.0607   -0.9819 O   0  0  0  0  0  0  0  0  0  0  0  0
    5.3427   -1.9057   -0.6257 O   0  0  0  0  0  0  0  0  0  0  0  0
    6.4313   -3.0406   -0.0147 P   0  0  2  0  0  0  0  0  0  0  0  0
    7.9154   -2.8717    0.1780 O   0  0  0  0  0  0  0  0  0  0  0  0
    6.1867   -4.4161   -0.8189 O   0  0  0  0  0  0  0  0  0  0  0  0
    7.1923   -4.5891   -1.8332 C   0  0  0  0  0  0  0  0  0  0  0  0
    7.3816   -6.0293   -2.2100 C   0  0  1  0  0  0  0  0  0  0  0  0
    8.2599   -6.1341   -2.8627 H   0  0  0  0  0  0  0  0  0  0  0  0
    7.5744   -6.8586   -1.0576 O   0  0  0  0  0  0  0  0  0  0  0  0
    7.1260   -8.1610   -1.4568 C   0  0  2  0  0  0  0  0  0  0  0  0
    7.9489   -8.6768   -1.9698 H   0  0  0  0  0  0  0  0  0  0  0  0
    5.9487   -7.8873   -2.4171 C   0  0  1  0  0  0  0  0  0  0  0  0
    4.9899   -7.8725   -1.8924 H   0  0  0  0  0  0  0  0  0  0  0  0
    6.1187   -6.4671   -2.8922 C   0  0  2  0  0  0  0  0  0  0  0  0
    5.2604   -5.8822   -2.5419 H   0  0  0  0  0  0  0  0  0  0  0  0
    6.1822   -6.2700   -4.3001 O   0  0  0  0  0  0  0  0  0  0  0  0
    5.8814   -8.7921   -3.5106 O   0  0  0  0  0  0  0  0  0  0  0  0
    6.8125   -8.9597   -0.2848 N   0  0  0  0  0  0  0  0  0  0  0  0
    7.5996   -9.1843    0.8244 C   0  0  0  0  0  0  0  0  0  0  0  0
    9.4683   -8.3994    1.2281 I   0  0  0  0  0  0  0  0  0  0  0  0
    7.0353  -10.0292    1.6650 N   0  0  0  0  0  0  0  0  0  0  0  0
    5.8468  -10.3859    1.0741 C   0  0  0  0  0  0  0  0  0  0  0  0
    5.7026   -9.7613   -0.1483 C   0  0  0  0  0  0  0  0  0  0  0  0
    4.6830   -9.9165   -1.0115 N   0  0  0  0  0  0  0  0  0  0  0  0
    3.7285  -10.7233   -0.5166 C   0  0  0  0  0  0  0  0  0  0  0  0
    3.7380  -11.3877    0.6513 N   0  0  0  0  0  0  0  0  0  0  0  0
    4.8090  -11.2459    1.4652 C   0  0  0  0  0  0  0  0  0  0  0  0
    4.8308  -11.9465    2.6452 N   0  0  0  0  0  0  0  0  0  0  0  0
    5.8971   -3.3512    1.4603 O   0  0  0  0  0  0  0  0  0  0  0  0
    4.3668    0.3508   -1.1560 O   0  0  0  0  0  0  0  0  0  0  0  0
    5.7936    1.4580   -7.4536 H   0  0  0  0  0  0  0  0  0  0  0  0
    4.0763    2.5883   -6.2429 H   0  0  0  0  0  0  0  0  0  0  0  0
    6.4267   -3.3488   -7.3237 H   0  0  0  0  0  0  0  0  0  0  0  0
    5.3225   -5.6098   -7.2989 H   0  0  0  0  0  0  0  0  0  0  0  0
    2.9062   -5.7711   -6.7208 H   0  0  0  0  0  0  0  0  0  0  0  0
    3.0506   -1.6803   -5.5453 H   0  0  0  0  0  0  0  0  0  0  0  0
    1.0614   -1.6703   -5.2866 H   0  0  0  0  0  0  0  0  0  0  0  0
   -0.3091   -2.6798   -5.2621 H   0  0  0  0  0  0  0  0  0  0  0  0
    5.5733    1.5460   -2.9915 H   0  0  0  0  0  0  0  0  0  0  0  0
    4.1257    0.5643   -3.2268 H   0  0  0  0  0  0  0  0  0  0  0  0
    8.1816   -4.2518   -1.5237 H   0  0  0  0  0  0  0  0  0  0  0  0
    6.8661   -4.0014   -2.6941 H   0  0  0  0  0  0  0  0  0  0  0  0
    5.5325   -6.9050   -4.6574 H   0  0  0  0  0  0  0  0  0  0  0  0
    5.7473   -9.6732   -3.1058 H   0  0  0  0  0  0  0  0  0  0  0  0
    2.8435  -10.8503   -1.1344 H   0  0  0  0  0  0  0  0  0  0  0  0
    4.0632  -12.5647    2.8516 H   0  0  0  0  0  0  0  0  0  0  0  0
    5.6403  -11.8706    3.2445 H   0  0  0  0  0  0  0  0  0  0  0  0
    6.6963   -3.6776    1.9358 H   0  0  0  0  0  0  0  0  0  0  0  0
    3.9878    0.4177   -0.2560 H   0  0  0  0  0  0  0  0  0  0  0  0
  1 54  1  0  0  0  0
  2  4  1  0  0  0  0
  2 10  1  0  0  0  0
  2  3  1  6  0  0  0
  2  1  1  0  0  0  0
  4  7  1  0  0  0  0
  4  6  1  0  0  0  0
  4  5  1  1  0  0  0
  6 55  1  0  0  0  0
  7  9  1  0  0  0  0
  7 21  1  0  0  0  0
  7  8  1  6  0  0  0
  9 10  1  0  0  0  0
 10 12  1  0  0  0  0
 10 11  1  6  0  0  0
 12 13  2  0  0  0  0
 12 17  1  0  0  0  0
 13 14  1  0  0  0  0
 13 56  1  0  0  0  0
 14 15  2  0  0  0  0
 14 57  1  0  0  0  0
 15 16  1  0  0  0  0
 15 58  1  0  0  0  0
 16 17  2  0  0  0  0
 16 18  1  0  0  0  0
 17 59  1  0  0  0  0
 18 19  2  0  0  0  0
 18 20  1  0  0  0  0
 20 60  1  0  0  0  0
 20 61  1  0  0  0  0
 21 22  1  0  0  0  0
 21 62  1  0  0  0  0
 21 63  1  0  0  0  0
 23 25  1  1  0  0  0
 23 53  1  0  0  0  0
 23 24  2  0  0  0  0
 23 22  1  0  0  0  0
 26 28  1  6  0  0  0
 26 52  1  0  0  0  0
 26 27  2  0  0  0  0
 26 25  1  0  0  0  0
 28 29  1  0  0  0  0
 29 30  1  0  0  0  0
 29 64  1  0  0  0  0
 29 65  1  0  0  0  0
 30 31  1  6  0  0  0
 30 32  1  0  0  0  0
 30 37  1  0  0  0  0
 32 33  1  0  0  0  0
 33 35  1  0  0  0  0
 33 41  1  0  0  0  0
 33 34  1  6  0  0  0
 35 36  1  1  0  0  0
 35 37  1  0  0  0  0
 35 40  1  0  0  0  0
 37 38  1  1  0  0  0
 37 39  1  0  0  0  0
 39 66  1  0  0  0  0
 40 67  1  0  0  0  0
 41 42  1  0  0  0  0
 41 46  1  0  0  0  0
 42 43  1  0  0  0  0
 42 44  2  0  0  0  0
 44 45  1  0  0  0  0
 45 46  2  0  0  0  0
 45 50  1  0  0  0  0
 46 47  1  0  0  0  0
 47 48  2  0  0  0  0
 48 49  1  0  0  0  0
 48 68  1  0  0  0  0
 49 50  2  0  0  0  0
 50 51  1  0  0  0  0
 51 69  1  0  0  0  0
 51 70  1  0  0  0  0
 52 71  1  0  0  0  0
 53 72  1  0  0  0  0
M  CHG  1  12   1
M  END
$$$$
