8IP
 OpenBabel04121316063D

 37 39  0  0  0  0  0  0  0  0999 V2000
    1.0967    0.3020   -0.1793 N   0  0  0  0  0  0  0  0  0  0  0  0
    2.4710    0.1031   -0.0140 C   0  0  0  0  0  0  0  0  0  0  0  0
    3.1816    1.2492    0.0567 N   0  0  0  0  0  0  0  0  0  0  0  0
    4.5124    1.1444    0.2411 C   0  0  0  0  0  0  0  0  0  0  0  0
    5.1802   -0.0436    0.4454 C   0  0  0  0  0  0  0  0  0  0  0  0
    4.4563   -1.2173    0.2702 C   0  0  0  0  0  0  0  0  0  0  0  0
    3.0873   -1.1696   -0.0238 C   0  0  0  0  0  0  0  0  0  0  0  0
    2.4432   -2.4101   -0.1494 N   0  0  0  0  0  0  0  0  0  0  0  0
    1.0630   -2.4382   -0.5832 C   0  0  0  0  0  0  0  0  0  0  0  0
    0.6371   -3.8201   -0.9502 C   0  0  0  0  0  0  0  0  0  0  0  0
    1.1190   -4.9234   -0.2526 C   0  0  0  0  0  0  0  0  0  0  0  0
    0.7393   -6.1880   -0.6423 C   0  0  0  0  0  0  0  0  0  0  0  0
   -0.0797   -6.3404   -1.7617 C   0  0  0  0  0  0  0  0  0  0  0  0
   -0.6235   -5.2454   -2.4675 C   0  0  0  0  0  0  0  0  0  0  0  0
   -0.3020   -3.9787   -1.9765 C   0  0  0  0  0  0  0  0  0  0  0  0
   -1.3999   -5.4106   -3.7202 C   0  0  0  0  0  0  0  0  0  0  0  0
   -1.6029   -6.6709   -4.2977 C   0  0  0  0  0  0  0  0  0  0  0  0
   -2.2268   -6.8083   -5.5325 C   0  0  0  0  0  0  0  0  0  0  0  0
   -2.5998   -5.6653   -6.2066 C   0  0  0  0  0  0  0  0  0  0  0  0
   -2.4767   -4.4288   -5.6934 N   0  0  0  0  0  0  0  0  0  0  0  0
   -1.9100   -4.3374   -4.4635 C   0  0  0  0  0  0  0  0  0  0  0  0
    0.8953    1.2726    0.0319 H   0  0  0  0  0  0  0  0  0  0  0  0
    0.5377   -0.3109    0.3957 H   0  0  0  0  0  0  0  0  0  0  0  0
    5.0568    2.0853    0.2054 H   0  0  0  0  0  0  0  0  0  0  0  0
    6.2292   -0.0665    0.7070 H   0  0  0  0  0  0  0  0  0  0  0  0
    4.9708   -2.1706    0.3570 H   0  0  0  0  0  0  0  0  0  0  0  0
    3.0326   -3.1120   -0.5917 H   0  0  0  0  0  0  0  0  0  0  0  0
    0.9025   -1.7835   -1.4498 H   0  0  0  0  0  0  0  0  0  0  0  0
    0.4181   -2.1683    0.2547 H   0  0  0  0  0  0  0  0  0  0  0  0
    1.7991   -4.7886    0.5846 H   0  0  0  0  0  0  0  0  0  0  0  0
    1.1069   -7.0526   -0.1011 H   0  0  0  0  0  0  0  0  0  0  0  0
   -0.2588   -7.3624   -2.0744 H   0  0  0  0  0  0  0  0  0  0  0  0
   -0.7313   -3.0762   -2.4063 H   0  0  0  0  0  0  0  0  0  0  0  0
   -1.2570   -7.5785   -3.8171 H   0  0  0  0  0  0  0  0  0  0  0  0
   -2.3913   -7.7914   -5.9550 H   0  0  0  0  0  0  0  0  0  0  0  0
   -3.0170   -5.7166   -7.2062 H   0  0  0  0  0  0  0  0  0  0  0  0
   -1.8791   -3.3124   -4.1050 H   0  0  0  0  0  0  0  0  0  0  0  0
  1  2  1  0  0  0  0
  1 22  1  0  0  0  0
  1 23  1  0  0  0  0
  2  3  2  0  0  0  0
  2  7  1  0  0  0  0
  3  4  1  0  0  0  0
  4  5  2  0  0  0  0
  4 24  1  0  0  0  0
  5  6  1  0  0  0  0
  5 25  1  0  0  0  0
  6  7  2  0  0  0  0
  6 26  1  0  0  0  0
  7  8  1  0  0  0  0
  8  9  1  0  0  0  0
  8 27  1  0  0  0  0
  9 10  1  0  0  0  0
  9 28  1  0  0  0  0
  9 29  1  0  0  0  0
 10 11  2  0  0  0  0
 10 15  1  0  0  0  0
 11 12  1  0  0  0  0
 11 30  1  0  0  0  0
 12 13  2  0  0  0  0
 12 31  1  0  0  0  0
 13 14  1  0  0  0  0
 13 32  1  0  0  0  0
 14 15  2  0  0  0  0
 14 16  1  0  0  0  0
 15 33  1  0  0  0  0
 16 17  2  0  0  0  0
 16 21  1  0  0  0  0
 17 18  1  0  0  0  0
 17 34  1  0  0  0  0
 18 19  2  0  0  0  0
 18 35  1  0  0  0  0
 19 20  1  0  0  0  0
 19 36  1  0  0  0  0
 20 21  2  0  0  0  0
 21 37  1  0  0  0  0
M  END
$$$$
