8NC
 OpenBabel04121316063D

 62 65  0  0  1  0  0  0  0  0999 V2000
    1.0257   -0.0344   -0.0626 C   0  0  0  0  0  0  0  0  0  0  0  0
    2.4424   -0.0153   -0.1665 O   0  0  0  0  0  0  0  0  0  0  0  0
    3.0235    0.3486    1.0124 C   0  0  0  0  0  0  0  0  0  0  0  0
    3.0329    1.6762    1.4443 C   0  0  0  0  0  0  0  0  0  0  0  0
    3.8571    2.0564    2.5122 C   0  0  0  0  0  0  0  0  0  0  0  0
    4.5738    1.0831    3.2152 C   0  0  0  0  0  0  0  0  0  0  0  0
    4.4139   -0.2575    2.8598 C   0  0  0  0  0  0  0  0  0  0  0  0
    3.7239   -0.6094    1.7203 C   0  0  0  0  0  0  0  0  0  0  0  0
    3.7585   -1.8879    1.3208 F   0  0  0  0  0  0  0  0  0  0  0  0
    5.4635    1.4824    4.2379 N   0  0  0  0  0  0  0  0  0  0  0  0
    6.2169    0.5965    4.9763 C   0  0  0  0  0  0  0  0  0  0  0  0
    6.2343   -0.6268    4.8250 O   0  0  0  0  0  0  0  0  0  0  0  0
    7.1444    1.1487    6.0136 C   0  0  1  0  0  0  0  0  0  0  0  0
    8.1386    1.1482    5.5512 H   0  0  0  0  0  0  0  0  0  0  0  0
    6.8088    2.5105    6.5778 C   0  0  0  0  0  0  0  0  0  0  0  0
    7.4802    2.5232    7.9114 N   0  0  0  0  0  0  0  0  0  0  0  0
    7.2141    1.1542    8.4551 C   0  0  0  0  0  0  0  0  0  0  0  0
    7.0855    0.2263    7.2466 C   0  0  2  0  0  0  0  0  0  0  0  0
    6.1366   -0.3263    7.3144 H   0  0  0  0  0  0  0  0  0  0  0  0
    8.2049   -0.7898    7.2759 C   0  0  0  0  0  0  0  0  0  0  0  0
    8.9854   -0.8677    8.2239 O   0  0  0  0  0  0  0  0  0  0  0  0
    8.2236   -1.6628    6.2111 N   0  0  0  0  0  0  0  0  0  0  0  0
    9.2184   -2.6397    6.1628 C   0  0  0  0  0  0  0  0  0  0  0  0
   10.5449   -2.2369    6.0925 C   0  0  0  0  0  0  0  0  0  0  0  0
   11.5426   -3.1849    5.8906 C   0  0  0  0  0  0  0  0  0  0  0  0
   11.2612   -4.5620    5.9182 C   0  0  0  0  0  0  0  0  0  0  0  0
    9.9274   -4.9284    6.1788 C   0  0  0  0  0  0  0  0  0  0  0  0
    8.9089   -3.9854    6.1994 C   0  0  0  0  0  0  0  0  0  0  0  0
    7.6383   -4.3957    6.3323 F   0  0  0  0  0  0  0  0  0  0  0  0
   12.2898   -5.5422    5.6087 N   0  0  0  0  0  0  0  0  0  0  0  0
   13.5222   -5.1514    5.0622 C   0  0  0  0  0  0  0  0  0  0  0  0
   14.3845   -6.0234    4.5268 C   0  0  0  0  0  0  0  0  0  0  0  0
   14.1361   -7.4292    4.6244 C   0  0  0  0  0  0  0  0  0  0  0  0
   13.0578   -7.8655    5.2757 C   0  0  0  0  0  0  0  0  0  0  0  0
   12.0037   -6.9239    5.7222 C   0  0  0  0  0  0  0  0  0  0  0  0
   10.9804   -7.4633    6.1402 O   0  0  0  0  0  0  0  0  0  0  0  0
    9.1403    2.9660    7.7999 S   0  0  0  0  0  0  0  0  0  0  0  0
    9.8286    1.9246    7.0818 O   0  0  0  0  0  0  0  0  0  0  0  0
    9.1607    4.3311    7.2984 O   0  0  0  0  0  0  0  0  0  0  0  0
    9.7175    2.9775    9.4875 C   0  0  0  0  0  0  0  0  0  0  0  0
    0.6368   -0.3549   -1.0326 H   0  0  0  0  0  0  0  0  0  0  0  0
    0.6336    0.9647    0.1480 H   0  0  0  0  0  0  0  0  0  0  0  0
    0.6903   -0.7501    0.6961 H   0  0  0  0  0  0  0  0  0  0  0  0
    2.4383    2.4219    0.9263 H   0  0  0  0  0  0  0  0  0  0  0  0
    3.9329    3.1118    2.7646 H   0  0  0  0  0  0  0  0  0  0  0  0
    4.8410   -1.0844    3.4060 H   0  0  0  0  0  0  0  0  0  0  0  0
    5.5827    2.4815    4.3632 H   0  0  0  0  0  0  0  0  0  0  0  0
    5.7280    2.6405    6.7185 H   0  0  0  0  0  0  0  0  0  0  0  0
    7.1453    3.3236    5.9274 H   0  0  0  0  0  0  0  0  0  0  0  0
    6.2614    1.1779    8.9991 H   0  0  0  0  0  0  0  0  0  0  0  0
    7.9612    0.8631    9.1909 H   0  0  0  0  0  0  0  0  0  0  0  0
    7.3656   -1.8156    5.6757 H   0  0  0  0  0  0  0  0  0  0  0  0
   10.8038   -1.1822    6.1434 H   0  0  0  0  0  0  0  0  0  0  0  0
   12.5326   -2.7836    5.7146 H   0  0  0  0  0  0  0  0  0  0  0  0
    9.5991   -5.9441    6.3459 H   0  0  0  0  0  0  0  0  0  0  0  0
   13.7843   -4.1020    5.0266 H   0  0  0  0  0  0  0  0  0  0  0  0
   15.3022   -5.6885    4.0542 H   0  0  0  0  0  0  0  0  0  0  0  0
   14.8661   -8.1238    4.2296 H   0  0  0  0  0  0  0  0  0  0  0  0
   12.8579   -8.9100    5.4707 H   0  0  0  0  0  0  0  0  0  0  0  0
    9.6198    1.9858    9.9290 H   0  0  0  0  0  0  0  0  0  0  0  0
    9.1710    3.7284   10.0572 H   0  0  0  0  0  0  0  0  0  0  0  0
   10.7792    3.2381    9.4548 H   0  0  0  0  0  0  0  0  0  0  0  0
  1  2  1  0  0  0  0
  1 41  1  0  0  0  0
  1 42  1  0  0  0  0
  1 43  1  0  0  0  0
  2  3  1  0  0  0  0
  3  4  2  0  0  0  0
  3  8  1  0  0  0  0
  4  5  1  0  0  0  0
  4 44  1  0  0  0  0
  5  6  2  0  0  0  0
  5 45  1  0  0  0  0
  6  7  1  0  0  0  0
  6 10  1  0  0  0  0
  7  8  2  0  0  0  0
  7 46  1  0  0  0  0
  8  9  1  0  0  0  0
 10 11  1  0  0  0  0
 10 47  1  0  0  0  0
 11 12  2  0  0  0  0
 11 13  1  0  0  0  0
 13 14  1  6  0  0  0
 13 15  1  0  0  0  0
 13 18  1  0  0  0  0
 15 16  1  0  0  0  0
 15 48  1  0  0  0  0
 15 49  1  0  0  0  0
 16 17  1  0  0  0  0
 16 37  1  0  0  0  0
 17 18  1  0  0  0  0
 17 50  1  0  0  0  0
 17 51  1  0  0  0  0
 18 19  1  1  0  0  0
 18 20  1  0  0  0  0
 20 21  2  0  0  0  0
 20 22  1  0  0  0  0
 22 23  1  0  0  0  0
 22 52  1  0  0  0  0
 23 24  2  0  0  0  0
 23 28  1  0  0  0  0
 24 25  1  0  0  0  0
 24 53  1  0  0  0  0
 25 26  2  0  0  0  0
 25 54  1  0  0  0  0
 26 27  1  0  0  0  0
 26 30  1  0  0  0  0
 27 28  2  0  0  0  0
 27 55  1  0  0  0  0
 28 29  1  0  0  0  0
 30 31  1  0  0  0  0
 30 35  1  0  0  0  0
 31 32  2  0  0  0  0
 31 56  1  0  0  0  0
 32 33  1  0  0  0  0
 32 57  1  0  0  0  0
 33 34  2  0  0  0  0
 33 58  1  0  0  0  0
 34 35  1  0  0  0  0
 34 59  1  0  0  0  0
 35 36  2  0  0  0  0
 37 38  2  0  0  0  0
 37 39  2  0  0  0  0
 37 40  1  0  0  0  0
 40 60  1  0  0  0  0
 40 61  1  0  0  0  0
 40 62  1  0  0  0  0
M  END
$$$$
