8NX
 OpenBabel04121316063D

 17 18  0  0  0  0  0  0  0  0999 V2000
    1.0067    0.0785   -0.0236 O   0  5  0  0  0  0  0  0  0  0  0  0
    2.2417   -0.0194    0.0290 N   0  3  0  0  0  0  0  0  0  0  0  0
    2.9191   -0.9607   -0.3962 O   0  0  0  0  0  0  0  0  0  0  0  0
    2.9330    1.1128    0.5663 C   0  0  0  0  0  0  0  0  0  0  0  0
    4.0055    1.0923    1.3450 N   0  0  0  0  0  0  0  0  0  0  0  0
    4.2164    2.4114    1.6119 C   0  0  0  0  0  0  0  0  0  0  0  0
    3.3054    3.2176    0.9913 C   0  0  0  0  0  0  0  0  0  0  0  0
    2.4749    2.3777    0.3123 N   0  0  0  0  0  0  0  0  0  0  0  0
    1.6756    2.6317   -0.2563 H   0  0  0  0  0  0  0  0  0  0  0  0
    3.3064    4.6311    1.1079 C   0  0  0  0  0  0  0  0  0  0  0  0
    2.5003    5.3653    0.5486 O   0  0  0  0  0  0  0  0  0  0  0  0
    4.3158    5.0924    1.9219 N   0  0  0  0  0  0  0  0  0  0  0  0
    4.3763    6.0905    2.0548 H   0  0  0  0  0  0  0  0  0  0  0  0
    5.2606    4.3233    2.5740 C   0  0  0  0  0  0  0  0  0  0  0  0
    6.1222    4.8462    3.2754 O   0  0  0  0  0  0  0  0  0  0  0  0
    5.1876    2.9593    2.3990 N   0  0  0  0  0  0  0  0  0  0  0  0
    5.8605    2.3666    2.8658 H   0  0  0  0  0  0  0  0  0  0  0  0
  1  2  1  0  0  0  0
  2  3  2  0  0  0  0
  2  4  1  0  0  0  0
  4  5  2  0  0  0  0
  4  8  1  0  0  0  0
  5  6  1  0  0  0  0
  6  7  2  0  0  0  0
  6 16  1  0  0  0  0
  7  8  1  0  0  0  0
  7 10  1  0  0  0  0
  8  9  1  0  0  0  0
 10 11  2  0  0  0  0
 10 12  1  0  0  0  0
 12 13  1  0  0  0  0
 12 14  1  0  0  0  0
 14 15  2  0  0  0  0
 14 16  1  0  0  0  0
 16 17  1  0  0  0  0
M  CHG  2   1  -1   2   1
M  END
$$$$
