8OG
 OpenBabel04121316063D

 38 40  0  0  1  0  0  0  0  0999 V2000
    1.0249    0.1335    0.0826 O   0  0  0  0  0  0  0  0  0  0  0  0
    2.4401    0.0820    0.0589 C   0  0  1  0  0  0  0  0  0  0  0  0
    2.7837    0.1503   -0.9821 H   0  0  0  0  0  0  0  0  0  0  0  0
    3.0507    1.1872    0.8800 C   0  0  0  0  0  0  0  0  0  0  0  0
    4.4371    0.6224    1.1795 C   0  0  1  0  0  0  0  0  0  0  0  0
    4.8449    1.0876    2.0846 H   0  0  0  0  0  0  0  0  0  0  0  0
    4.2058   -0.7741    1.4299 O   0  0  0  0  0  0  0  0  0  0  0  0
    2.9822   -1.1648    0.7558 C   0  0  2  0  0  0  0  0  0  0  0  0
    2.2767   -1.5534    1.4972 H   0  0  0  0  0  0  0  0  0  0  0  0
    3.3158   -2.2517   -0.2488 C   0  0  0  0  0  0  0  0  0  0  0  0
    2.2365   -2.6156   -1.1015 O   0  0  0  0  0  0  0  0  0  0  0  0
    2.6491   -3.7867   -2.3062 P   0  0  0  0  0  0  0  0  0  0  0  0
    1.5727   -3.2598   -3.2443 O   0  0  0  0  0  0  0  0  0  0  0  0
    4.0554   -3.0330   -2.6246 O   0  0  0  0  0  0  0  0  0  0  0  0
    3.0616   -4.9578   -3.5108 O   0  0  0  0  0  0  0  0  0  0  0  0
    5.3945    0.8440    0.1147 N   0  0  0  0  0  0  0  0  0  0  0  0
    5.6972    2.1627   -0.3220 C   0  0  0  0  0  0  0  0  0  0  0  0
    5.2502    3.2224    0.0950 O   0  0  0  0  0  0  0  0  0  0  0  0
    6.6085    2.0131   -1.3686 N   0  0  0  0  0  0  0  0  0  0  0  0
    7.0053    2.7606   -1.9173 H   0  0  0  0  0  0  0  0  0  0  0  0
    6.8766    0.6868   -1.4999 C   0  0  0  0  0  0  0  0  0  0  0  0
    6.1930   -0.0336   -0.6060 C   0  0  0  0  0  0  0  0  0  0  0  0
    6.2790   -1.3897   -0.4820 N   0  0  0  0  0  0  0  0  0  0  0  0
    7.0432   -2.0047   -1.3384 C   0  0  0  0  0  0  0  0  0  0  0  0
    7.1879   -3.3490   -1.3055 N   0  0  0  0  0  0  0  0  0  0  0  0
    7.7519   -1.3477   -2.3121 N   0  0  0  0  0  0  0  0  0  0  0  0
    8.3354   -1.8618   -2.9517 H   0  0  0  0  0  0  0  0  0  0  0  0
    7.7470    0.0165   -2.4581 C   0  0  0  0  0  0  0  0  0  0  0  0
    8.3875    0.6153   -3.3118 O   0  0  0  0  0  0  0  0  0  0  0  0
    0.7487    0.9051   -0.4407 H   0  0  0  0  0  0  0  0  0  0  0  0
    2.4751    1.3110    1.8062 H   0  0  0  0  0  0  0  0  0  0  0  0
    3.0294    2.1488    0.3615 H   0  0  0  0  0  0  0  0  0  0  0  0
    3.7574   -3.1370    0.2205 H   0  0  0  0  0  0  0  0  0  0  0  0
    4.0774   -1.8086   -0.8778 H   0  0  0  0  0  0  0  0  0  0  0  0
    3.9103   -2.1295   -2.9529 H   0  0  0  0  0  0  0  0  0  0  0  0
    2.2468   -5.4519   -3.7161 H   0  0  0  0  0  0  0  0  0  0  0  0
    6.5896   -3.8736   -0.6795 H   0  0  0  0  0  0  0  0  0  0  0  0
    7.6710   -3.8740   -2.0198 H   0  0  0  0  0  0  0  0  0  0  0  0
  1  2  1  0  0  0  0
  1 30  1  0  0  0  0
  2  3  1  6  0  0  0
  2  4  1  0  0  0  0
  2  8  1  0  0  0  0
  4  5  1  0  0  0  0
  4 31  1  0  0  0  0
  4 32  1  0  0  0  0
  5  6  1  1  0  0  0
  5  7  1  0  0  0  0
  5 16  1  0  0  0  0
  7  8  1  0  0  0  0
  8  9  1  1  0  0  0
  8 10  1  0  0  0  0
 10 11  1  0  0  0  0
 10 33  1  0  0  0  0
 10 34  1  0  0  0  0
 11 12  1  0  0  0  0
 12 13  2  0  0  0  0
 12 14  1  0  0  0  0
 12 15  1  0  0  0  0
 14 35  1  0  0  0  0
 15 36  1  0  0  0  0
 16 17  1  0  0  0  0
 16 22  1  0  0  0  0
 17 18  2  0  0  0  0
 17 19  1  0  0  0  0
 19 20  1  0  0  0  0
 19 21  1  0  0  0  0
 21 22  2  0  0  0  0
 21 28  1  0  0  0  0
 22 23  1  0  0  0  0
 23 24  2  0  0  0  0
 24 25  1  0  0  0  0
 24 26  1  0  0  0  0
 25 37  1  0  0  0  0
 25 38  1  0  0  0  0
 26 27  1  0  0  0  0
 26 28  1  0  0  0  0
 28 29  2  0  0  0  0
M  END
$$$$
