8OP
 OpenBabel04121316063D

 38 40  0  0  1  0  0  0  0  0999 V2000
    2.9155    0.1192   -1.4159 O   0  0  0  0  0  0  0  0  0  0  0  0
    2.4286   -0.0066   -0.0650 C   0  0  2  0  0  0  0  0  0  0  0  0
    1.3400    0.0222   -0.1320 H   0  0  0  0  0  0  0  0  0  0  0  0
    2.9398    1.1391    0.7945 C   0  0  2  0  0  0  0  0  0  0  0  0
    2.3111    1.2216    1.6873 H   0  0  0  0  0  0  0  0  0  0  0  0
    2.9901    2.3884    0.1270 O   0  0  0  0  0  0  0  0  0  0  0  0
    4.3125    0.6431    1.1645 C   0  0  2  0  0  0  0  0  0  0  0  0
    5.0033    0.7240    0.3131 H   0  0  0  0  0  0  0  0  0  0  0  0
    4.1688   -0.7789    1.3967 O   0  0  0  0  0  0  0  0  0  0  0  0
    2.9977   -1.2487    0.6798 C   0  0  1  0  0  0  0  0  0  0  0  0
    3.3175   -2.0123   -0.0440 H   0  0  0  0  0  0  0  0  0  0  0  0
    2.0437   -1.8712    1.5603 N   0  0  0  0  0  0  0  0  0  0  0  0
    0.7586   -2.2438    1.1302 C   0  0  0  0  0  0  0  0  0  0  0  0
    0.2695   -2.1065    0.0133 O   0  0  0  0  0  0  0  0  0  0  0  0
    0.0942   -2.7947    2.2149 N   0  0  0  0  0  0  0  0  0  0  0  0
   -0.8622   -3.1048    2.1987 H   0  0  0  0  0  0  0  0  0  0  0  0
    0.9820   -2.8361    3.2806 C   0  0  0  0  0  0  0  0  0  0  0  0
    2.1985   -2.2993    2.8942 C   0  0  0  0  0  0  0  0  0  0  0  0
    3.2567   -2.2279    3.6993 N   0  0  0  0  0  0  0  0  0  0  0  0
    3.0127   -2.7135    4.9373 C   0  0  0  0  0  0  0  0  0  0  0  0
    1.8508   -3.2411    5.4083 N   0  0  0  0  0  0  0  0  0  0  0  0
    0.8161   -3.2917    4.5592 C   0  0  0  0  0  0  0  0  0  0  0  0
   -0.3566   -3.8811    4.9804 N   0  0  0  0  0  0  0  0  0  0  0  0
    5.0002    1.3794    2.3238 C   0  0  0  0  0  0  0  0  0  0  0  0
    4.1619    1.9922    3.2970 O   0  0  0  0  0  0  0  0  0  0  0  0
    4.5513    1.9960    4.8569 P   0  0  0  0  0  0  0  0  0  0  0  0
    3.5743    1.3409    5.7697 O   0  0  0  0  0  0  0  0  0  0  0  0
    6.0563    1.4750    4.9468 O   0  0  0  0  0  0  0  0  0  0  0  0
    4.7713    3.5348    5.2448 O   0  0  0  0  0  0  0  0  0  0  0  0
    3.8708   -0.0492   -1.4437 H   0  0  0  0  0  0  0  0  0  0  0  0
    3.3921    2.2425   -0.7485 H   0  0  0  0  0  0  0  0  0  0  0  0
    3.8366   -2.6848    5.6455 H   0  0  0  0  0  0  0  0  0  0  0  0
   -0.4193   -4.1097    5.9636 H   0  0  0  0  0  0  0  0  0  0  0  0
   -1.2004   -3.8064    4.4359 H   0  0  0  0  0  0  0  0  0  0  0  0
    5.6458    0.6295    2.7717 H   0  0  0  0  0  0  0  0  0  0  0  0
    5.6210    2.1821    1.9173 H   0  0  0  0  0  0  0  0  0  0  0  0
    6.2070    0.6324    4.4900 H   0  0  0  0  0  0  0  0  0  0  0  0
    4.5575    3.6649    6.1907 H   0  0  0  0  0  0  0  0  0  0  0  0
  1 30  1  0  0  0  0
  2  4  1  0  0  0  0
  2 10  1  0  0  0  0
  2  3  1  1  0  0  0
  2  1  1  0  0  0  0
  4  7  1  0  0  0  0
  4  6  1  0  0  0  0
  4  5  1  1  0  0  0
  6 31  1  0  0  0  0
  7  9  1  0  0  0  0
  7 24  1  0  0  0  0
  7  8  1  6  0  0  0
  9 10  1  0  0  0  0
 10 12  1  0  0  0  0
 10 11  1  6  0  0  0
 12 13  1  0  0  0  0
 12 18  1  0  0  0  0
 13 14  2  0  0  0  0
 13 15  1  0  0  0  0
 15 16  1  0  0  0  0
 15 17  1  0  0  0  0
 17 18  2  0  0  0  0
 17 22  1  0  0  0  0
 18 19  1  0  0  0  0
 19 20  2  0  0  0  0
 20 21  1  0  0  0  0
 20 32  1  0  0  0  0
 21 22  2  0  0  0  0
 22 23  1  0  0  0  0
 23 33  1  0  0  0  0
 23 34  1  0  0  0  0
 24 25  1  0  0  0  0
 24 35  1  0  0  0  0
 24 36  1  0  0  0  0
 25 26  1  0  0  0  0
 26 27  2  0  0  0  0
 26 28  1  0  0  0  0
 26 29  1  0  0  0  0
 28 37  1  0  0  0  0
 29 38  1  0  0  0  0
M  END
$$$$
