8OX
 OpenBabel04121316063D

 33 35  0  0  1  0  0  0  0  0999 V2000
    0.9300   -0.0686   -0.1791 O   0  0  0  0  0  0  0  0  0  0  0  0
    2.3480   -0.0639   -0.0487 C   0  0  0  0  0  0  0  0  0  0  0  0
    2.8778   -1.3954    0.4992 C   0  0  1  0  0  0  0  0  0  0  0  0
    3.8935   -1.2131    0.8769 H   0  0  0  0  0  0  0  0  0  0  0  0
    2.1003   -1.9384    1.5850 O   0  0  0  0  0  0  0  0  0  0  0  0
    2.3854   -3.3444    1.6004 C   0  0  2  0  0  0  0  0  0  0  0  0
    3.3142   -3.4864    2.1700 H   0  0  0  0  0  0  0  0  0  0  0  0
    2.6273   -3.7723    0.1373 C   0  0  1  0  0  0  0  0  0  0  0  0
    1.7215   -4.2214   -0.2849 H   0  0  0  0  0  0  0  0  0  0  0  0
    2.9156   -2.4608   -0.5904 C   0  0  2  0  0  0  0  0  0  0  0  0
    2.1356   -2.2860   -1.3381 H   0  0  0  0  0  0  0  0  0  0  0  0
    4.1674   -2.4226   -1.2768 O   0  0  0  0  0  0  0  0  0  0  0  0
    3.6838   -4.7207   -0.0420 O   0  0  0  0  0  0  0  0  0  0  0  0
    1.3807   -4.1365    2.2641 N   0  0  0  0  0  0  0  0  0  0  0  0
    1.6121   -5.4627    2.6632 C   0  0  0  0  0  0  0  0  0  0  0  0
    2.6437   -6.1048    2.5176 O   0  0  0  0  0  0  0  0  0  0  0  0
    0.4298   -5.9439    3.2259 N   0  0  0  0  0  0  0  0  0  0  0  0
    0.3014   -6.8685    3.6023 H   0  0  0  0  0  0  0  0  0  0  0  0
   -0.5225   -4.9334    3.1416 C   0  0  0  0  0  0  0  0  0  0  0  0
    0.0405   -3.8197    2.5422 C   0  0  0  0  0  0  0  0  0  0  0  0
   -0.6295   -2.6992    2.3029 N   0  0  0  0  0  0  0  0  0  0  0  0
   -1.9083   -2.7383    2.7243 C   0  0  0  0  0  0  0  0  0  0  0  0
   -2.5477   -3.7774    3.3233 N   0  0  0  0  0  0  0  0  0  0  0  0
   -1.8355   -4.8950    3.5285 C   0  0  0  0  0  0  0  0  0  0  0  0
   -2.4686   -5.9681    4.1103 N   0  0  0  0  0  0  0  0  0  0  0  0
    0.6666    0.8300   -0.4407 H   0  0  0  0  0  0  0  0  0  0  0  0
    2.6385    0.7652    0.6041 H   0  0  0  0  0  0  0  0  0  0  0  0
    2.7684    0.1299   -1.0431 H   0  0  0  0  0  0  0  0  0  0  0  0
    4.2473   -3.2769   -1.7414 H   0  0  0  0  0  0  0  0  0  0  0  0
    3.5023   -5.4806    0.5486 H   0  0  0  0  0  0  0  0  0  0  0  0
   -2.4971   -1.8387    2.5696 H   0  0  0  0  0  0  0  0  0  0  0  0
   -3.4352   -5.8471    4.3790 H   0  0  0  0  0  0  0  0  0  0  0  0
   -1.9903   -6.8298    4.3096 H   0  0  0  0  0  0  0  0  0  0  0  0
  1  2  1  0  0  0  0
  1 26  1  0  0  0  0
  2  3  1  0  0  0  0
  2 27  1  0  0  0  0
  2 28  1  0  0  0  0
  3  4  1  1  0  0  0
  3  5  1  0  0  0  0
  3 10  1  0  0  0  0
  5  6  1  0  0  0  0
  6  8  1  0  0  0  0
  6 14  1  0  0  0  0
  6  7  1  1  0  0  0
  8  9  1  6  0  0  0
  8 10  1  0  0  0  0
  8 13  1  0  0  0  0
 10 11  1  6  0  0  0
 10 12  1  0  0  0  0
 12 29  1  0  0  0  0
 13 30  1  0  0  0  0
 14 15  1  0  0  0  0
 14 20  1  0  0  0  0
 15 16  2  0  0  0  0
 15 17  1  0  0  0  0
 17 18  1  0  0  0  0
 17 19  1  0  0  0  0
 19 20  2  0  0  0  0
 19 24  1  0  0  0  0
 20 21  1  0  0  0  0
 21 22  2  0  0  0  0
 22 23  1  0  0  0  0
 22 31  1  0  0  0  0
 23 24  2  0  0  0  0
 24 25  1  0  0  0  0
 25 32  1  0  0  0  0
 25 33  1  0  0  0  0
M  END
$$$$
