8TX
 OpenBabel04121316063D

 16 17  0  0  0  0  0  0  0  0999 V2000
    1.0526   -0.0243    0.0635 O   0  0  0  0  0  0  0  0  0  0  0  0
    2.2774   -0.0340    0.0938 C   0  0  0  0  0  0  0  0  0  0  0  0
    3.0151    1.1266    0.1600 N   0  0  0  0  0  0  0  0  0  0  0  0
    2.5002    1.9970    0.1562 H   0  0  0  0  0  0  0  0  0  0  0  0
    4.3636    1.1036    0.1427 C   0  0  0  0  0  0  0  0  0  0  0  0
    5.2307    2.1549    0.0734 N   0  0  0  0  0  0  0  0  0  0  0  0
    5.0001    3.1378    0.0728 H   0  0  0  0  0  0  0  0  0  0  0  0
    6.5263    1.6329   -0.1372 C   0  0  0  0  0  0  0  0  0  0  0  0
    7.8792    2.4665   -0.5606 S   0  0  0  0  0  0  0  0  0  0  0  0
    6.3966    0.2422   -0.0027 N   0  0  0  0  0  0  0  0  0  0  0  0
    7.1281   -0.4522   -0.0800 H   0  0  0  0  0  0  0  0  0  0  0  0
    5.0634   -0.0330    0.1023 C   0  0  0  0  0  0  0  0  0  0  0  0
    4.3728   -1.3189    0.0538 C   0  0  0  0  0  0  0  0  0  0  0  0
    4.9739   -2.3879   -0.0134 O   0  0  0  0  0  0  0  0  0  0  0  0
    3.0010   -1.2082    0.0513 N   0  0  0  0  0  0  0  0  0  0  0  0
    2.4723   -2.0647   -0.0156 H   0  0  0  0  0  0  0  0  0  0  0  0
  1  2  2  0  0  0  0
  2  3  1  0  0  0  0
  2 15  1  0  0  0  0
  3  4  1  0  0  0  0
  3  5  1  0  0  0  0
  5  6  1  0  0  0  0
  5 12  2  0  0  0  0
  6  7  1  0  0  0  0
  6  8  1  0  0  0  0
  8  9  2  0  0  0  0
  8 10  1  0  0  0  0
 10 11  1  0  0  0  0
 10 12  1  0  0  0  0
 12 13  1  0  0  0  0
 13 14  2  0  0  0  0
 13 15  1  0  0  0  0
 15 16  1  0  0  0  0
M  END
$$$$
