905
 OpenBabel04121316063D

 66 68  0  0  1  0  0  0  0  0999 V2000
   10.6278   -1.3457   -4.6480 C   0  0  0  0  0  0  0  0  0  0  0  0
   10.0819   -2.6358   -4.1084 C   0  0  0  0  0  0  0  0  0  0  0  0
    9.7028   -2.4016   -2.7464 O   0  0  0  0  0  0  0  0  0  0  0  0
    9.2400   -3.5280   -2.1274 C   0  0  0  0  0  0  0  0  0  0  0  0
    9.6098   -4.8117   -2.5469 C   0  0  0  0  0  0  0  0  0  0  0  0
    8.9461   -5.8977   -2.0588 C   0  0  0  0  0  0  0  0  0  0  0  0
    9.2945   -7.1155   -2.5820 O   0  0  0  0  0  0  0  0  0  0  0  0
    8.8677   -8.2262   -1.7950 C   0  0  0  0  0  0  0  0  0  0  0  0
    9.3482   -9.5262   -2.3891 C   0  0  0  0  0  0  0  0  0  0  0  0
    7.8950   -5.6386   -1.1947 C   0  0  0  0  0  0  0  0  0  0  0  0
    7.7029   -4.4318   -0.4909 C   0  0  0  0  0  0  0  0  0  0  0  0
    8.3548   -3.3330   -1.0492 C   0  0  0  0  0  0  0  0  0  0  0  0
    6.8204   -4.3282    0.7708 C   0  0  2  0  0  0  0  0  0  0  0  0
    6.3495   -3.3344    0.7634 H   0  0  0  0  0  0  0  0  0  0  0  0
    7.5629   -4.4284    2.1681 C   0  0  0  0  0  0  0  0  0  0  0  0
    7.1544   -5.1692    3.0600 O   0  0  0  0  0  0  0  0  0  0  0  0
    8.6828   -3.6136    2.4437 N   0  0  0  0  0  0  0  0  0  0  0  0
    9.4666   -3.8801    3.9178 S   0  0  0  0  0  0  0  0  0  0  0  0
    8.5888   -3.5055    4.9905 O   0  0  0  0  0  0  0  0  0  0  0  0
   10.0883   -5.1966    3.8271 O   0  0  0  0  0  0  0  0  0  0  0  0
   10.7866   -2.6987    3.9169 C   0  0  0  0  0  0  0  0  0  0  0  0
   10.4866   -1.3370    3.9693 C   0  0  0  0  0  0  0  0  0  0  0  0
   11.5348   -0.4206    3.9870 C   0  0  0  0  0  0  0  0  0  0  0  0
   12.8540   -0.8635    3.8417 C   0  0  0  0  0  0  0  0  0  0  0  0
   13.1555   -2.2266    3.7763 C   0  0  0  0  0  0  0  0  0  0  0  0
   12.1150   -3.1408    3.9294 C   0  0  0  0  0  0  0  0  0  0  0  0
   14.4834   -2.6508    3.7810 N   0  0  0  0  0  0  0  0  0  0  0  0
    5.7326   -5.3275    0.7857 N   0  0  0  0  0  0  0  0  0  0  0  0
    5.9500   -6.6759    1.0629 C   0  0  0  0  0  0  0  0  0  0  0  0
    7.2147   -7.2678    1.0920 C   0  0  0  0  0  0  0  0  0  0  0  0
    7.3928   -8.6395    0.9271 C   0  0  0  0  0  0  0  0  0  0  0  0
    6.3157   -9.5071    0.8193 C   0  0  0  0  0  0  0  0  0  0  0  0
    5.0712   -8.9375    1.1271 C   0  0  0  0  0  0  0  0  0  0  0  0
    4.9027   -7.5449    1.2750 C   0  0  0  0  0  0  0  0  0  0  0  0
    3.9039   -9.6055    1.3426 O   0  0  0  0  0  0  0  0  0  0  0  0
    6.6561  -10.9237    0.4173 C   0  0  0  0  0  0  0  0  0  0  0  0
    5.8692  -11.9510    0.4239 N   0  0  0  0  0  0  0  0  0  0  0  0
    7.8929  -11.2777   -0.0215 N   0  0  0  0  0  0  0  0  0  0  0  0
    6.9084   -6.5343   -1.2330 F   0  0  0  0  0  0  0  0  0  0  0  0
   10.9513   -1.4767   -5.6824 H   0  0  0  0  0  0  0  0  0  0  0  0
   11.4819   -1.0373   -4.0369 H   0  0  0  0  0  0  0  0  0  0  0  0
    9.8706   -0.5618   -4.5849 H   0  0  0  0  0  0  0  0  0  0  0  0
   10.8934   -3.3670   -4.1799 H   0  0  0  0  0  0  0  0  0  0  0  0
    9.2173   -2.9764   -4.6957 H   0  0  0  0  0  0  0  0  0  0  0  0
   10.3290   -5.0116   -3.3305 H   0  0  0  0  0  0  0  0  0  0  0  0
    7.7783   -8.2963   -1.7825 H   0  0  0  0  0  0  0  0  0  0  0  0
    9.2916   -8.1188   -0.7926 H   0  0  0  0  0  0  0  0  0  0  0  0
    9.0945   -9.5752   -3.4465 H   0  0  0  0  0  0  0  0  0  0  0  0
    8.8642  -10.3790   -1.9227 H   0  0  0  0  0  0  0  0  0  0  0  0
   10.4245   -9.6348   -2.2484 H   0  0  0  0  0  0  0  0  0  0  0  0
    8.1176   -2.3195   -0.7301 H   0  0  0  0  0  0  0  0  0  0  0  0
    9.0498   -2.9264    1.8000 H   0  0  0  0  0  0  0  0  0  0  0  0
    9.4582   -0.9906    4.0325 H   0  0  0  0  0  0  0  0  0  0  0  0
   11.3358    0.6402    4.1187 H   0  0  0  0  0  0  0  0  0  0  0  0
   13.6548   -0.1297    3.7913 H   0  0  0  0  0  0  0  0  0  0  0  0
   12.3378   -4.1991    4.0519 H   0  0  0  0  0  0  0  0  0  0  0  0
   15.1596   -1.9993    3.3944 H   0  0  0  0  0  0  0  0  0  0  0  0
   14.6508   -3.6165    3.5153 H   0  0  0  0  0  0  0  0  0  0  0  0
    4.7804   -4.9992    0.6761 H   0  0  0  0  0  0  0  0  0  0  0  0
    8.1258   -6.6791    1.0735 H   0  0  0  0  0  0  0  0  0  0  0  0
    8.4143   -8.9757    0.8218 H   0  0  0  0  0  0  0  0  0  0  0  0
    3.9378   -7.1553    1.5828 H   0  0  0  0  0  0  0  0  0  0  0  0
    4.0335  -10.5366    1.1717 H   0  0  0  0  0  0  0  0  0  0  0  0
    4.9464  -11.7946    0.7768 H   0  0  0  0  0  0  0  0  0  0  0  0
    8.7205  -10.7081   -0.0015 H   0  0  0  0  0  0  0  0  0  0  0  0
    8.0079  -12.2502   -0.2810 H   0  0  0  0  0  0  0  0  0  0  0  0
  1  2  1  0  0  0  0
  1 40  1  0  0  0  0
  1 41  1  0  0  0  0
  1 42  1  0  0  0  0
  2  3  1  0  0  0  0
  2 43  1  0  0  0  0
  2 44  1  0  0  0  0
  3  4  1  0  0  0  0
  4  5  2  0  0  0  0
  4 12  1  0  0  0  0
  5  6  1  0  0  0  0
  5 45  1  0  0  0  0
  6  7  1  0  0  0  0
  6 10  2  0  0  0  0
  7  8  1  0  0  0  0
  8  9  1  0  0  0  0
  8 46  1  0  0  0  0
  8 47  1  0  0  0  0
  9 48  1  0  0  0  0
  9 49  1  0  0  0  0
  9 50  1  0  0  0  0
 10 11  1  0  0  0  0
 10 39  1  0  0  0  0
 11 12  2  0  0  0  0
 12 51  1  0  0  0  0
 13 15  1  0  0  0  0
 13 28  1  0  0  0  0
 13 14  1  6  0  0  0
 13 11  1  0  0  0  0
 15 16  2  0  0  0  0
 15 17  1  0  0  0  0
 17 18  1  0  0  0  0
 17 52  1  0  0  0  0
 18 19  2  0  0  0  0
 18 20  2  0  0  0  0
 18 21  1  0  0  0  0
 21 22  2  0  0  0  0
 21 26  1  0  0  0  0
 22 23  1  0  0  0  0
 22 53  1  0  0  0  0
 23 24  2  0  0  0  0
 23 54  1  0  0  0  0
 24 25  1  0  0  0  0
 24 55  1  0  0  0  0
 25 26  2  0  0  0  0
 25 27  1  0  0  0  0
 26 56  1  0  0  0  0
 27 57  1  0  0  0  0
 27 58  1  0  0  0  0
 28 29  1  0  0  0  0
 28 59  1  0  0  0  0
 29 30  2  0  0  0  0
 29 34  1  0  0  0  0
 30 31  1  0  0  0  0
 30 60  1  0  0  0  0
 31 32  2  0  0  0  0
 31 61  1  0  0  0  0
 32 33  1  0  0  0  0
 32 36  1  0  0  0  0
 33 34  2  0  0  0  0
 33 35  1  0  0  0  0
 34 62  1  0  0  0  0
 35 63  1  0  0  0  0
 36 37  2  0  0  0  0
 36 38  1  0  0  0  0
 37 64  1  0  0  0  0
 38 65  1  0  0  0  0
 38 66  1  0  0  0  0
M  END
$$$$
