91U
 OpenBabel04121316063D

 62 64  0  0  1  0  0  0  0  0999 V2000
    0.8684   -0.0791   -0.2638 C   0  0  0  0  0  0  0  0  0  0  0  0
    2.3340    0.1138   -0.1806 C   0  0  0  0  0  0  0  0  0  0  0  0
    2.7446    0.7584    0.7797 O   0  0  0  0  0  0  0  0  0  0  0  0
    3.1249   -0.3936   -1.1678 N   0  0  0  0  0  0  0  0  0  0  0  0
    4.6081   -0.3487   -1.1162 C   0  0  1  0  0  0  0  0  0  0  0  0
    4.9393    0.6555   -0.8354 H   0  0  0  0  0  0  0  0  0  0  0  0
    5.0727   -1.4055   -0.0686 C   0  0  0  0  0  0  0  0  0  0  0  0
    5.5031   -2.5132   -0.3934 O   0  0  0  0  0  0  0  0  0  0  0  0
    4.8750   -1.1811    1.2676 N   0  0  0  0  0  0  0  0  0  0  0  0
    4.4497   -2.2714    2.1177 C   0  0  0  0  0  0  0  0  0  0  0  0
    3.4019   -1.6163    2.9957 C   0  0  0  0  0  0  0  0  0  0  0  0
    3.9112   -0.1808    3.1890 C   0  0  0  0  0  0  0  0  0  0  0  0
    4.8596    0.0859    2.0107 C   0  0  1  0  0  0  0  0  0  0  0  0
    4.6499    0.9397    1.3697 H   0  0  0  0  0  0  0  0  0  0  0  0
    6.2293    0.4868    2.5332 C   0  0  0  0  0  0  0  0  0  0  0  0
    6.4110    1.4762    3.2366 O   0  0  0  0  0  0  0  0  0  0  0  0
    7.2415   -0.3046    2.0706 N   0  0  0  0  0  0  0  0  0  0  0  0
    8.5866   -0.0381    2.4521 C   0  0  0  0  0  0  0  0  0  0  0  0
    9.5408   -1.0362    1.8699 C   0  0  0  0  0  0  0  0  0  0  0  0
   10.6507   -1.4190    2.6324 C   0  0  0  0  0  0  0  0  0  0  0  0
   11.6102   -2.2719    2.0991 C   0  0  0  0  0  0  0  0  0  0  0  0
   11.5295   -2.6539    0.7664 C   0  0  0  0  0  0  0  0  0  0  0  0
   10.4370   -2.2770   -0.0008 C   0  0  0  0  0  0  0  0  0  0  0  0
    9.4088   -1.5224    0.5562 C   0  0  0  0  0  0  0  0  0  0  0  0
   10.4504   -2.7206   -1.6557 Cl  0  0  0  0  0  0  0  0  0  0  0  0
    5.1399   -0.6826   -2.5274 C   0  0  0  0  0  0  0  0  0  0  0  0
    6.6807   -0.7207   -2.6365 C   0  0  0  0  0  0  0  0  0  0  0  0
    7.2191   -2.1578   -2.7362 C   0  0  0  0  0  0  0  0  0  0  0  0
    6.7821   -2.8817   -3.9981 C   0  0  0  0  0  0  0  0  0  0  0  0
    7.2765   -2.1100   -5.2092 C   0  0  0  0  0  0  0  0  0  0  0  0
    6.7820   -0.6641   -5.1790 C   0  0  0  0  0  0  0  0  0  0  0  0
    7.1798    0.0430   -3.8799 C   0  0  0  0  0  0  0  0  0  0  0  0
    0.4720    0.1505    0.7357 H   0  0  0  0  0  0  0  0  0  0  0  0
    0.6014   -1.1070   -0.5027 H   0  0  0  0  0  0  0  0  0  0  0  0
    0.4734    0.6480   -0.9710 H   0  0  0  0  0  0  0  0  0  0  0  0
    2.6896   -0.6405   -2.0497 H   0  0  0  0  0  0  0  0  0  0  0  0
    5.3119   -2.6067    2.7007 H   0  0  0  0  0  0  0  0  0  0  0  0
    4.0507   -3.1165    1.5449 H   0  0  0  0  0  0  0  0  0  0  0  0
    3.2602   -2.1451    3.9416 H   0  0  0  0  0  0  0  0  0  0  0  0
    2.4344   -1.6032    2.4758 H   0  0  0  0  0  0  0  0  0  0  0  0
    4.4188   -0.0950    4.1543 H   0  0  0  0  0  0  0  0  0  0  0  0
    3.0716    0.5215    3.2044 H   0  0  0  0  0  0  0  0  0  0  0  0
    6.9934   -1.1547    1.5744 H   0  0  0  0  0  0  0  0  0  0  0  0
    8.6187   -0.0417    3.5483 H   0  0  0  0  0  0  0  0  0  0  0  0
    8.8467    0.9717    2.1129 H   0  0  0  0  0  0  0  0  0  0  0  0
   10.7756   -1.0431    3.6462 H   0  0  0  0  0  0  0  0  0  0  0  0
   12.4377   -2.6156    2.7095 H   0  0  0  0  0  0  0  0  0  0  0  0
   12.3243   -3.2382    0.3150 H   0  0  0  0  0  0  0  0  0  0  0  0
    8.5252   -1.2939   -0.0345 H   0  0  0  0  0  0  0  0  0  0  0  0
    4.7350    0.0550   -3.2338 H   0  0  0  0  0  0  0  0  0  0  0  0
    4.7056   -1.6396   -2.8375 H   0  0  0  0  0  0  0  0  0  0  0  0
    7.1174   -0.2325   -1.7558 H   0  0  0  0  0  0  0  0  0  0  0  0
    6.9840   -2.7815   -1.8801 H   0  0  0  0  0  0  0  0  0  0  0  0
    8.3021   -2.0884   -2.7546 H   0  0  0  0  0  0  0  0  0  0  0  0
    5.6934   -2.9870   -4.0378 H   0  0  0  0  0  0  0  0  0  0  0  0
    7.1900   -3.8977   -3.9946 H   0  0  0  0  0  0  0  0  0  0  0  0
    6.9391   -2.6106   -6.1206 H   0  0  0  0  0  0  0  0  0  0  0  0
    8.3739   -2.1201   -5.2130 H   0  0  0  0  0  0  0  0  0  0  0  0
    5.6905   -0.6558   -5.2796 H   0  0  0  0  0  0  0  0  0  0  0  0
    7.1859   -0.1188   -6.0373 H   0  0  0  0  0  0  0  0  0  0  0  0
    6.7996    1.0709   -3.8740 H   0  0  0  0  0  0  0  0  0  0  0  0
    8.2757    0.1199   -3.8362 H   0  0  0  0  0  0  0  0  0  0  0  0
  1  2  1  0  0  0  0
  1 33  1  0  0  0  0
  1 34  1  0  0  0  0
  1 35  1  0  0  0  0
  2  3  2  0  0  0  0
  2  4  1  0  0  0  0
  4  5  1  0  0  0  0
  4 36  1  0  0  0  0
  5  6  1  1  0  0  0
  5  7  1  0  0  0  0
  5 26  1  0  0  0  0
  7  8  2  0  0  0  0
  7  9  1  0  0  0  0
  9 10  1  0  0  0  0
  9 13  1  0  0  0  0
 10 11  1  0  0  0  0
 10 37  1  0  0  0  0
 10 38  1  0  0  0  0
 11 12  1  0  0  0  0
 11 39  1  0  0  0  0
 11 40  1  0  0  0  0
 12 13  1  0  0  0  0
 12 41  1  0  0  0  0
 12 42  1  0  0  0  0
 13 15  1  0  0  0  0
 13 14  1  6  0  0  0
 15 16  2  0  0  0  0
 15 17  1  0  0  0  0
 17 18  1  0  0  0  0
 17 43  1  0  0  0  0
 18 19  1  0  0  0  0
 18 44  1  0  0  0  0
 18 45  1  0  0  0  0
 19 20  2  0  0  0  0
 19 24  1  0  0  0  0
 20 21  1  0  0  0  0
 20 46  1  0  0  0  0
 21 22  2  0  0  0  0
 21 47  1  0  0  0  0
 22 23  1  0  0  0  0
 22 48  1  0  0  0  0
 23 24  2  0  0  0  0
 23 25  1  0  0  0  0
 24 49  1  0  0  0  0
 26 27  1  0  0  0  0
 26 50  1  0  0  0  0
 26 51  1  0  0  0  0
 27 28  1  0  0  0  0
 27 32  1  0  0  0  0
 27 52  1  0  0  0  0
 28 29  1  0  0  0  0
 28 53  1  0  0  0  0
 28 54  1  0  0  0  0
 29 30  1  0  0  0  0
 29 55  1  0  0  0  0
 29 56  1  0  0  0  0
 30 31  1  0  0  0  0
 30 57  1  0  0  0  0
 30 58  1  0  0  0  0
 31 32  1  0  0  0  0
 31 59  1  0  0  0  0
 31 60  1  0  0  0  0
 32 61  1  0  0  0  0
 32 62  1  0  0  0  0
M  END
$$$$
