930
 OpenBabel04121316073D

 56 60  0  0  1  0  0  0  0  0999 V2000
   30.0466    3.1978    0.1233 Cl  0  0  0  0  0  0  0  0  0  0  0  0
   29.2862    1.6562    0.1547 C   0  0  0  0  0  0  0  0  0  0  0  0
   30.0673    0.5028    0.0935 C   0  0  0  0  0  0  0  0  0  0  0  0
   29.4581   -0.7472    0.1003 C   0  0  0  0  0  0  0  0  0  0  0  0
   28.0651   -0.8335    0.1151 C   0  0  0  0  0  0  0  0  0  0  0  0
   27.2684    0.3351    0.1560 C   0  0  0  0  0  0  0  0  0  0  0  0
   27.8957    1.5801    0.2098 C   0  0  0  0  0  0  0  0  0  0  0  0
   25.8723    0.2338    0.0782 C   0  0  0  0  0  0  0  0  0  0  0  0
   25.2791   -0.9889   -0.2107 C   0  0  0  0  0  0  0  0  0  0  0  0
   26.0673   -2.1305   -0.1537 C   0  0  0  0  0  0  0  0  0  0  0  0
   27.4453   -2.0692    0.0600 C   0  0  0  0  0  0  0  0  0  0  0  0
   25.3941   -3.7371   -0.1081 S   0  0  0  0  0  0  0  0  0  0  0  0
   25.8661   -4.4564   -1.2765 O   0  0  0  0  0  0  0  0  0  0  0  0
   25.6704   -4.1963    1.2294 O   0  0  0  0  0  0  0  0  0  0  0  0
   23.7279   -3.5874   -0.3008 N   0  0  0  0  0  0  0  0  0  0  0  0
   22.9790   -4.8762   -0.2827 C   0  0  1  0  0  0  0  0  0  0  0  0
   22.8590   -5.2379   -1.3112 H   0  0  0  0  0  0  0  0  0  0  0  0
   23.5969   -5.9135    0.6303 C   0  0  0  0  0  0  0  0  0  0  0  0
   22.4685   -6.8289    0.9738 C   0  0  0  0  0  0  0  0  0  0  0  0
   21.3475   -5.9207    1.0756 N   0  0  0  0  0  0  0  0  0  0  0  0
   21.5905   -4.7503    0.3150 C   0  0  0  0  0  0  0  0  0  0  0  0
   20.8835   -3.7803    0.0885 O   0  0  0  0  0  0  0  0  0  0  0  0
   20.1825   -6.2353    1.8297 C   0  0  0  0  0  0  0  0  0  0  0  0
   20.1164   -7.4296    2.5641 C   0  0  0  0  0  0  0  0  0  0  0  0
   18.9283   -7.8255    3.1838 C   0  0  0  0  0  0  0  0  0  0  0  0
   17.8019   -6.9965    3.2033 C   0  0  0  0  0  0  0  0  0  0  0  0
   17.9169   -5.7419    2.6159 C   0  0  0  0  0  0  0  0  0  0  0  0
   19.0538   -5.4061    1.8866 C   0  0  0  0  0  0  0  0  0  0  0  0
   18.9620   -4.2607    1.2086 F   0  0  0  0  0  0  0  0  0  0  0  0
   16.4784   -7.4189    3.8051 C   0  0  2  0  0  0  0  0  0  0  0  0
   15.6936   -6.7583    3.4123 H   0  0  0  0  0  0  0  0  0  0  0  0
   16.4800   -7.3845    5.3254 C   0  0  0  0  0  0  0  0  0  0  0  0
   17.0162   -8.7498    5.7026 C   0  0  0  0  0  0  0  0  0  0  0  0
   16.4708   -9.6584    4.6110 C   0  0  0  0  0  0  0  0  0  0  0  0
   16.1494   -8.8117    3.4535 N   0  0  0  0  0  0  0  0  0  0  0  0
   31.1488    0.5682    0.0279 H   0  0  0  0  0  0  0  0  0  0  0  0
   30.0697   -1.6456    0.0394 H   0  0  0  0  0  0  0  0  0  0  0  0
   27.3012    2.4894    0.2310 H   0  0  0  0  0  0  0  0  0  0  0  0
   25.2412    1.1090    0.2138 H   0  0  0  0  0  0  0  0  0  0  0  0
   24.2185   -1.0289   -0.4319 H   0  0  0  0  0  0  0  0  0  0  0  0
   28.0181   -2.9902    0.1704 H   0  0  0  0  0  0  0  0  0  0  0  0
   23.4748   -3.0506   -1.1341 H   0  0  0  0  0  0  0  0  0  0  0  0
   23.8951   -5.4542    1.5790 H   0  0  0  0  0  0  0  0  0  0  0  0
   24.4553   -6.4195    0.1827 H   0  0  0  0  0  0  0  0  0  0  0  0
   22.7103   -7.3298    1.9149 H   0  0  0  0  0  0  0  0  0  0  0  0
   22.2939   -7.5633    0.1812 H   0  0  0  0  0  0  0  0  0  0  0  0
   20.9560   -8.1098    2.6713 H   0  0  0  0  0  0  0  0  0  0  0  0
   18.8913   -8.8137    3.6328 H   0  0  0  0  0  0  0  0  0  0  0  0
   17.1134   -5.0129    2.6584 H   0  0  0  0  0  0  0  0  0  0  0  0
   15.4513   -7.2894    5.6948 H   0  0  0  0  0  0  0  0  0  0  0  0
   17.0730   -6.5671    5.7475 H   0  0  0  0  0  0  0  0  0  0  0  0
   16.7047   -9.0604    6.7021 H   0  0  0  0  0  0  0  0  0  0  0  0
   18.1123   -8.7415    5.6933 H   0  0  0  0  0  0  0  0  0  0  0  0
   15.5657  -10.1670    4.9570 H   0  0  0  0  0  0  0  0  0  0  0  0
   17.1969  -10.4277    4.3281 H   0  0  0  0  0  0  0  0  0  0  0  0
   15.1518   -8.8780    3.2552 H   0  0  0  0  0  0  0  0  0  0  0  0
  1  2  1  0  0  0  0
  2  3  2  0  0  0  0
  2  7  1  0  0  0  0
  3  4  1  0  0  0  0
  3 36  1  0  0  0  0
  4  5  2  0  0  0  0
  4 37  1  0  0  0  0
  5  6  1  0  0  0  0
  5 11  1  0  0  0  0
  6  7  2  0  0  0  0
  6  8  1  0  0  0  0
  7 38  1  0  0  0  0
  8  9  2  0  0  0  0
  8 39  1  0  0  0  0
  9 10  1  0  0  0  0
  9 40  1  0  0  0  0
 10 11  2  0  0  0  0
 10 12  1  0  0  0  0
 11 41  1  0  0  0  0
 12 13  2  0  0  0  0
 12 14  2  0  0  0  0
 12 15  1  0  0  0  0
 15 16  1  0  0  0  0
 15 42  1  0  0  0  0
 16 17  1  6  0  0  0
 16 18  1  0  0  0  0
 16 21  1  0  0  0  0
 18 19  1  0  0  0  0
 18 43  1  0  0  0  0
 18 44  1  0  0  0  0
 19 20  1  0  0  0  0
 19 45  1  0  0  0  0
 19 46  1  0  0  0  0
 20 21  1  0  0  0  0
 20 23  1  0  0  0  0
 21 22  2  0  0  0  0
 23 24  2  0  0  0  0
 23 28  1  0  0  0  0
 24 25  1  0  0  0  0
 24 47  1  0  0  0  0
 25 26  2  0  0  0  0
 25 48  1  0  0  0  0
 26 27  1  0  0  0  0
 27 28  2  0  0  0  0
 27 49  1  0  0  0  0
 28 29  1  0  0  0  0
 30 32  1  0  0  0  0
 30 35  1  0  0  0  0
 30 31  1  6  0  0  0
 30 26  1  0  0  0  0
 32 33  1  0  0  0  0
 32 50  1  0  0  0  0
 32 51  1  0  0  0  0
 33 34  1  0  0  0  0
 33 52  1  0  0  0  0
 33 53  1  0  0  0  0
 34 35  1  0  0  0  0
 34 54  1  0  0  0  0
 34 55  1  0  0  0  0
 35 56  1  0  0  0  0
M  END
$$$$
