932
 OpenBabel04121316073D

 43 46  0  0  0  0  0  0  0  0999 V2000
    0.8856    0.0783   -0.1668 O   0  0  0  0  0  0  0  0  0  0  0  0
    2.1077    0.1186    0.0365 C   0  0  0  0  0  0  0  0  0  0  0  0
    2.7982   -0.5891    1.2226 C   0  0  0  0  0  0  0  0  0  0  0  0
    1.9176   -1.3363    2.1129 N   0  0  0  0  0  0  0  0  0  0  0  0
    1.1225   -0.5805    2.9652 C   0  0  0  0  0  0  0  0  0  0  0  0
    0.5640    0.4627    2.6695 O   0  0  0  0  0  0  0  0  0  0  0  0
    1.2035   -1.0808    4.3761 C   0  0  0  0  0  0  0  0  0  0  0  0
    0.7366   -2.5169    4.4485 C   0  0  0  0  0  0  0  0  0  0  0  0
    1.3806   -3.3613    3.3904 C   0  0  0  0  0  0  0  0  0  0  0  0
    1.9863   -2.7537    2.2917 C   0  0  0  0  0  0  0  0  0  0  0  0
    2.5663   -3.5962    1.3603 C   0  0  0  0  0  0  0  0  0  0  0  0
    2.5215   -4.9891    1.4361 C   0  0  0  0  0  0  0  0  0  0  0  0
    1.9175   -5.5809    2.5253 C   0  0  0  0  0  0  0  0  0  0  0  0
    1.3545   -4.7665    3.5049 C   0  0  0  0  0  0  0  0  0  0  0  0
    2.8630    0.8148   -0.8765 N   0  0  0  0  0  0  0  0  0  0  0  0
    4.2296    0.7665   -0.9670 C   0  0  0  0  0  0  0  0  0  0  0  0
    5.0071    2.2680   -1.0556 S   0  0  0  0  0  0  0  0  0  0  0  0
    6.5472    1.5181   -0.9644 C   0  0  0  0  0  0  0  0  0  0  0  0
    6.4663    0.1358   -0.9703 C   0  0  0  0  0  0  0  0  0  0  0  0
    5.1013   -0.2925   -1.0402 C   0  0  0  0  0  0  0  0  0  0  0  0
    4.6779   -1.7107   -1.2400 C   0  0  0  0  0  0  0  0  0  0  0  0
    5.4357   -2.7670   -1.0366 N   0  0  0  0  0  0  0  0  0  0  0  0
    4.6005   -3.8111   -1.2944 C   0  0  0  0  0  0  0  0  0  0  0  0
    3.3759   -3.4711   -1.7041 N   0  0  0  0  0  0  0  0  0  0  0  0
    3.4226   -2.1331   -1.5907 N   0  0  0  0  0  0  0  0  0  0  0  0
    2.5575   -1.6018   -1.5979 H   0  0  0  0  0  0  0  0  0  0  0  0
    7.6283   -0.7997   -0.9840 C   0  0  0  0  0  0  0  0  0  0  0  0
    3.3331    0.1689    1.8144 H   0  0  0  0  0  0  0  0  0  0  0  0
    3.5789   -1.2579    0.8850 H   0  0  0  0  0  0  0  0  0  0  0  0
    0.6232   -0.4279    5.0300 H   0  0  0  0  0  0  0  0  0  0  0  0
    2.2608   -0.9931    4.6665 H   0  0  0  0  0  0  0  0  0  0  0  0
   -0.3484   -2.5665    4.3150 H   0  0  0  0  0  0  0  0  0  0  0  0
    0.9994   -2.9174    5.4322 H   0  0  0  0  0  0  0  0  0  0  0  0
    3.0351   -3.1684    0.5125 H   0  0  0  0  0  0  0  0  0  0  0  0
    2.9425   -5.5912    0.6341 H   0  0  0  0  0  0  0  0  0  0  0  0
    1.8853   -6.6633    2.6068 H   0  0  0  0  0  0  0  0  0  0  0  0
    0.8835   -5.2321    4.3654 H   0  0  0  0  0  0  0  0  0  0  0  0
    2.3617    1.4820   -1.4538 H   0  0  0  0  0  0  0  0  0  0  0  0
    7.4404    2.1288   -0.9530 H   0  0  0  0  0  0  0  0  0  0  0  0
    4.8647   -4.8449   -1.1169 H   0  0  0  0  0  0  0  0  0  0  0  0
    8.5794   -0.2637   -0.9842 H   0  0  0  0  0  0  0  0  0  0  0  0
    7.5914   -1.4274   -1.8815 H   0  0  0  0  0  0  0  0  0  0  0  0
    7.5971   -1.4494   -0.1025 H   0  0  0  0  0  0  0  0  0  0  0  0
  1  2  2  0  0  0  0
  2  3  1  0  0  0  0
  2 15  1  0  0  0  0
  3  4  1  0  0  0  0
  3 28  1  0  0  0  0
  3 29  1  0  0  0  0
  4  5  1  0  0  0  0
  4 10  1  0  0  0  0
  5  6  2  0  0  0  0
  5  7  1  0  0  0  0
  7  8  1  0  0  0  0
  7 30  1  0  0  0  0
  7 31  1  0  0  0  0
  8  9  1  0  0  0  0
  8 32  1  0  0  0  0
  8 33  1  0  0  0  0
  9 10  2  0  0  0  0
  9 14  1  0  0  0  0
 10 11  1  0  0  0  0
 11 12  2  0  0  0  0
 11 34  1  0  0  0  0
 12 13  1  0  0  0  0
 12 35  1  0  0  0  0
 13 14  2  0  0  0  0
 13 36  1  0  0  0  0
 14 37  1  0  0  0  0
 15 16  1  0  0  0  0
 15 38  1  0  0  0  0
 16 17  1  0  0  0  0
 16 20  2  0  0  0  0
 17 18  1  0  0  0  0
 18 19  2  0  0  0  0
 18 39  1  0  0  0  0
 19 20  1  0  0  0  0
 19 27  1  0  0  0  0
 20 21  1  0  0  0  0
 21 22  2  0  0  0  0
 21 25  1  0  0  0  0
 22 23  1  0  0  0  0
 23 24  2  0  0  0  0
 23 40  1  0  0  0  0
 24 25  1  0  0  0  0
 25 26  1  0  0  0  0
 27 41  1  0  0  0  0
 27 42  1  0  0  0  0
 27 43  1  0  0  0  0
M  END
$$$$
