937
 OpenBabel04121316073D

 65 69  0  0  0  0  0  0  0  0999 V2000
    0.9163    0.0223   -0.0411 O   0  0  0  0  0  0  0  0  0  0  0  0
    2.3451   -0.0266   -0.0508 C   0  0  0  0  0  0  0  0  0  0  0  0
    2.8924    1.0021    0.9228 C   0  0  0  0  0  0  0  0  0  0  0  0
    4.3385    1.1067    0.9290 N   0  0  0  0  0  0  0  0  0  0  0  0
    5.1085   -0.0213    0.9232 N   0  0  0  0  0  0  0  0  0  0  0  0
    6.3949    0.3996    0.9428 C   0  0  0  0  0  0  0  0  0  0  0  0
    6.4014    1.8221    0.9899 C   0  0  0  0  0  0  0  0  0  0  0  0
    5.0818    2.2521    0.8974 C   0  0  0  0  0  0  0  0  0  0  0  0
    4.6953    3.6553    0.6742 C   0  0  0  0  0  0  0  0  0  0  0  0
    3.3998    4.0483    0.8378 N   0  0  0  0  0  0  0  0  0  0  0  0
    3.1489    5.3753    0.7064 C   0  0  0  0  0  0  0  0  0  0  0  0
    4.0874    6.2554    0.2547 N   0  0  0  0  0  0  0  0  0  0  0  0
    5.3761    5.8365    0.1819 C   0  0  0  0  0  0  0  0  0  0  0  0
    5.7481    4.5308    0.3925 C   0  0  0  0  0  0  0  0  0  0  0  0
    7.1727    4.0716    0.2799 C   0  0  0  0  0  0  0  0  0  0  0  0
    7.5177    2.7898    1.0348 C   0  0  0  0  0  0  0  0  0  0  0  0
    2.0407    5.8971    1.4177 N   0  0  0  0  0  0  0  0  0  0  0  0
    1.8128    7.2329    1.8269 C   0  0  0  0  0  0  0  0  0  0  0  0
    0.5272    7.7850    1.5442 C   0  0  0  0  0  0  0  0  0  0  0  0
    0.2871    9.1642    1.3811 C   0  0  0  0  0  0  0  0  0  0  0  0
    1.3582    9.9930    1.7234 C   0  0  0  0  0  0  0  0  0  0  0  0
    2.5727    9.4712    2.2215 C   0  0  0  0  0  0  0  0  0  0  0  0
    2.8269    8.0859    2.2707 C   0  0  0  0  0  0  0  0  0  0  0  0
    4.0938    7.7419    2.6708 O   0  0  0  0  0  0  0  0  0  0  0  0
    4.4634    6.4878    3.2654 C   0  0  0  0  0  0  0  0  0  0  0  0
    3.6218    6.0606    4.2211 F   0  0  0  0  0  0  0  0  0  0  0  0
    4.6281    5.4614    2.4444 F   0  0  0  0  0  0  0  0  0  0  0  0
    5.7131    6.6260    3.7783 F   0  0  0  0  0  0  0  0  0  0  0  0
   -0.9064    9.6469    0.8670 N   0  0  0  0  0  0  0  0  0  0  0  0
   -1.3344   11.0551    0.9918 C   0  0  0  0  0  0  0  0  0  0  0  0
   -1.6234   11.6691   -0.3991 C   0  0  0  0  0  0  0  0  0  0  0  0
   -2.6109   10.9046   -1.1991 N   0  0  0  0  0  0  0  0  0  0  0  0
   -2.0964    9.5207   -1.3365 C   0  0  0  0  0  0  0  0  0  0  0  0
   -1.7912    8.8158    0.0129 C   0  0  0  0  0  0  0  0  0  0  0  0
   -3.9161   10.9035   -0.5293 C   0  0  0  0  0  0  0  0  0  0  0  0
    7.5622   -0.5291    0.8698 C   0  0  0  0  0  0  0  0  0  0  0  0
    7.4636   -1.7718    0.7646 O   0  0  0  0  0  0  0  0  0  0  0  0
    8.8339   -0.0148    0.8965 N   0  0  0  0  0  0  0  0  0  0  0  0
    0.6103   -0.6628   -0.6607 H   0  0  0  0  0  0  0  0  0  0  0  0
    2.6840    0.1927   -1.0686 H   0  0  0  0  0  0  0  0  0  0  0  0
    2.6565   -1.0386    0.2211 H   0  0  0  0  0  0  0  0  0  0  0  0
    2.5598    0.8042    1.9485 H   0  0  0  0  0  0  0  0  0  0  0  0
    2.4650    1.9653    0.6442 H   0  0  0  0  0  0  0  0  0  0  0  0
    6.1298    6.6255    0.1460 H   0  0  0  0  0  0  0  0  0  0  0  0
    7.9094    4.8308    0.5675 H   0  0  0  0  0  0  0  0  0  0  0  0
    7.3188    3.8606   -0.7853 H   0  0  0  0  0  0  0  0  0  0  0  0
    7.7843    2.9662    2.0859 H   0  0  0  0  0  0  0  0  0  0  0  0
    8.4029    2.4241    0.5209 H   0  0  0  0  0  0  0  0  0  0  0  0
    1.3737    5.2159    1.7475 H   0  0  0  0  0  0  0  0  0  0  0  0
   -0.2951    7.0969    1.3702 H   0  0  0  0  0  0  0  0  0  0  0  0
    1.3000   11.0693    1.5762 H   0  0  0  0  0  0  0  0  0  0  0  0
    3.3386   10.1838    2.5231 H   0  0  0  0  0  0  0  0  0  0  0  0
   -0.6271   11.6966    1.5207 H   0  0  0  0  0  0  0  0  0  0  0  0
   -2.2430   11.0832    1.6053 H   0  0  0  0  0  0  0  0  0  0  0  0
   -0.6837   11.7293   -0.9663 H   0  0  0  0  0  0  0  0  0  0  0  0
   -1.9694   12.7036   -0.2852 H   0  0  0  0  0  0  0  0  0  0  0  0
   -1.1751    9.5492   -1.9364 H   0  0  0  0  0  0  0  0  0  0  0  0
   -2.8053    8.9204   -1.9218 H   0  0  0  0  0  0  0  0  0  0  0  0
   -1.3759    7.8332   -0.2263 H   0  0  0  0  0  0  0  0  0  0  0  0
   -2.7265    8.6306    0.5542 H   0  0  0  0  0  0  0  0  0  0  0  0
   -4.2725   11.9283   -0.3864 H   0  0  0  0  0  0  0  0  0  0  0  0
   -3.9055   10.4288    0.4570 H   0  0  0  0  0  0  0  0  0  0  0  0
   -4.6582   10.3718   -1.1316 H   0  0  0  0  0  0  0  0  0  0  0  0
    9.0743    0.9333    1.1223 H   0  0  0  0  0  0  0  0  0  0  0  0
    9.6133   -0.6558    0.8419 H   0  0  0  0  0  0  0  0  0  0  0  0
  1  2  1  0  0  0  0
  1 39  1  0  0  0  0
  2  3  1  0  0  0  0
  2 40  1  0  0  0  0
  2 41  1  0  0  0  0
  3  4  1  0  0  0  0
  3 42  1  0  0  0  0
  3 43  1  0  0  0  0
  4  5  1  0  0  0  0
  4  8  1  0  0  0  0
  5  6  2  0  0  0  0
  6  7  1  0  0  0  0
  6 36  1  0  0  0  0
  7  8  2  0  0  0  0
  7 16  1  0  0  0  0
  8  9  1  0  0  0  0
  9 10  2  0  0  0  0
  9 14  1  0  0  0  0
 10 11  1  0  0  0  0
 11 12  2  0  0  0  0
 11 17  1  0  0  0  0
 12 13  1  0  0  0  0
 13 14  2  0  0  0  0
 13 44  1  0  0  0  0
 14 15  1  0  0  0  0
 15 16  1  0  0  0  0
 15 45  1  0  0  0  0
 15 46  1  0  0  0  0
 16 47  1  0  0  0  0
 16 48  1  0  0  0  0
 17 18  1  0  0  0  0
 17 49  1  0  0  0  0
 18 19  2  0  0  0  0
 18 23  1  0  0  0  0
 19 20  1  0  0  0  0
 19 50  1  0  0  0  0
 20 21  2  0  0  0  0
 20 29  1  0  0  0  0
 21 22  1  0  0  0  0
 21 51  1  0  0  0  0
 22 23  2  0  0  0  0
 22 52  1  0  0  0  0
 23 24  1  0  0  0  0
 24 25  1  0  0  0  0
 25 26  1  0  0  0  0
 25 27  1  0  0  0  0
 25 28  1  0  0  0  0
 29 30  1  0  0  0  0
 29 34  1  0  0  0  0
 30 31  1  0  0  0  0
 30 53  1  0  0  0  0
 30 54  1  0  0  0  0
 31 32  1  0  0  0  0
 31 55  1  0  0  0  0
 31 56  1  0  0  0  0
 32 33  1  0  0  0  0
 32 35  1  0  0  0  0
 33 34  1  0  0  0  0
 33 57  1  0  0  0  0
 33 58  1  0  0  0  0
 34 59  1  0  0  0  0
 34 60  1  0  0  0  0
 35 61  1  0  0  0  0
 35 62  1  0  0  0  0
 35 63  1  0  0  0  0
 36 37  2  0  0  0  0
 36 38  1  0  0  0  0
 38 64  1  0  0  0  0
 38 65  1  0  0  0  0
M  END
$$$$
