950
 OpenBabel04121316073D

 44 46  0  0  0  0  0  0  0  0999 V2000
    0.9308   -0.0036    0.0598 C   0  0  0  0  0  0  0  0  0  0  0  0
    2.4644    0.0251    0.0482 C   0  0  0  0  0  0  0  0  0  0  0  0
    3.0188   -1.2125    0.7495 C   0  0  0  0  0  0  0  0  0  0  0  0
    2.6480   -1.2032    2.1222 O   0  0  0  0  0  0  0  0  0  0  0  0
    2.8009   -2.3898    2.8168 C   0  0  0  0  0  0  0  0  0  0  0  0
    2.8822   -2.1615    4.2063 C   0  0  0  0  0  0  0  0  0  0  0  0
    2.8234   -3.2135    5.1084 C   0  0  0  0  0  0  0  0  0  0  0  0
    2.8914   -4.5086    4.6259 C   0  0  0  0  0  0  0  0  0  0  0  0
    2.9367   -4.7461    3.2413 C   0  0  0  0  0  0  0  0  0  0  0  0
    2.7903   -3.7035    2.2693 C   0  0  0  0  0  0  0  0  0  0  0  0
    2.6499   -3.9955    1.0222 O   0  5  0  0  0  0  0  0  0  0  0  0
    3.1484   -6.1246    2.7797 C   0  0  0  0  0  0  0  0  0  0  0  0
    3.6816   -6.3626    1.5270 N   0  0  0  0  0  0  0  0  0  0  0  0
    3.8433   -5.5919    0.8825 H   0  0  0  0  0  0  0  0  0  0  0  0
    3.6540   -7.7003    1.2856 C   0  0  0  0  0  0  0  0  0  0  0  0
    3.1375   -8.2179    2.4605 C   0  0  0  0  0  0  0  0  0  0  0  0
    2.8868   -7.2605    3.3962 N   0  0  0  0  0  0  0  0  0  0  0  0
    2.9213   -9.5903    2.5683 C   0  0  0  0  0  0  0  0  0  0  0  0
    3.2547  -10.4273    1.4901 C   0  0  0  0  0  0  0  0  0  0  0  0
    3.7855   -9.8392    0.3251 C   0  0  0  0  0  0  0  0  0  0  0  0
    3.9911   -8.4685    0.1776 C   0  0  0  0  0  0  0  0  0  0  0  0
    4.1203  -10.6339   -0.7072 F   0  0  0  0  0  0  0  0  0  0  0  0
    3.0589  -11.8833    1.5841 C   0  0  0  0  0  0  0  0  0  0  0  0
    2.5585  -12.4297    2.6694 N   0  3  0  0  0  0  0  0  0  0  0  0
    2.4154  -13.4243    2.7645 H   0  0  0  0  0  0  0  0  0  0  0  0
    2.2871  -11.8647    3.4679 H   0  0  0  0  0  0  0  0  0  0  0  0
    3.3918  -12.6675    0.5742 N   0  0  0  0  0  0  0  0  0  0  0  0
    2.9716    0.0273   -1.3934 C   0  0  0  0  0  0  0  0  0  0  0  0
    0.5381   -0.0234    1.0817 H   0  0  0  0  0  0  0  0  0  0  0  0
    0.5457   -0.8907   -0.4589 H   0  0  0  0  0  0  0  0  0  0  0  0
    0.5252    0.8791   -0.4426 H   0  0  0  0  0  0  0  0  0  0  0  0
    2.8039    0.9236    0.5736 H   0  0  0  0  0  0  0  0  0  0  0  0
    4.1119   -1.2553    0.6844 H   0  0  0  0  0  0  0  0  0  0  0  0
    2.5847   -2.0229    0.1746 H   0  0  0  0  0  0  0  0  0  0  0  0
    2.9681   -1.1429    4.5736 H   0  0  0  0  0  0  0  0  0  0  0  0
    2.7284   -3.0237    6.1712 H   0  0  0  0  0  0  0  0  0  0  0  0
    2.9222   -5.3462    5.3150 H   0  0  0  0  0  0  0  0  0  0  0  0
    2.4938   -9.9183    3.5032 H   0  0  0  0  0  0  0  0  0  0  0  0
    4.3851   -8.0325   -0.7331 H   0  0  0  0  0  0  0  0  0  0  0  0
    3.7779  -12.2536   -0.2716 H   0  0  0  0  0  0  0  0  0  0  0  0
    3.2780  -13.6673    0.5946 H   0  0  0  0  0  0  0  0  0  0  0  0
    2.6210   -0.8596   -1.9368 H   0  0  0  0  0  0  0  0  0  0  0  0
    4.0662    0.0175   -1.4191 H   0  0  0  0  0  0  0  0  0  0  0  0
    2.6198    0.9122   -1.9288 H   0  0  0  0  0  0  0  0  0  0  0  0
  1  2  1  0  0  0  0
  1 29  1  0  0  0  0
  1 30  1  0  0  0  0
  1 31  1  0  0  0  0
  2  3  1  0  0  0  0
  2 28  1  0  0  0  0
  2 32  1  0  0  0  0
  3  4  1  0  0  0  0
  3 33  1  0  0  0  0
  3 34  1  0  0  0  0
  4  5  1  0  0  0  0
  5  6  2  0  0  0  0
  5 10  1  0  0  0  0
  6  7  1  0  0  0  0
  6 35  1  0  0  0  0
  7  8  2  0  0  0  0
  7 36  1  0  0  0  0
  8  9  1  0  0  0  0
  8 37  1  0  0  0  0
  9 10  2  0  0  0  0
  9 12  1  0  0  0  0
 10 11  1  0  0  0  0
 12 13  1  0  0  0  0
 12 17  2  0  0  0  0
 13 14  1  0  0  0  0
 13 15  1  0  0  0  0
 15 16  2  0  0  0  0
 15 21  1  0  0  0  0
 16 17  1  0  0  0  0
 16 18  1  0  0  0  0
 18 19  2  0  0  0  0
 18 38  1  0  0  0  0
 19 20  1  0  0  0  0
 19 23  1  0  0  0  0
 20 21  2  0  0  0  0
 20 22  1  0  0  0  0
 21 39  1  0  0  0  0
 23 24  2  0  0  0  0
 23 27  1  0  0  0  0
 24 25  1  0  0  0  0
 24 26  1  0  0  0  0
 27 40  1  0  0  0  0
 27 41  1  0  0  0  0
 28 42  1  0  0  0  0
 28 43  1  0  0  0  0
 28 44  1  0  0  0  0
M  CHG  2  11  -1  24   1
M  END
$$$$
