956
 OpenBabel04121316073D

 45 48  0  0  0  0  0  0  0  0999 V2000
    0.9905    0.0649   -0.0755 N   0  0  0  0  0  0  0  0  0  0  0  0
    2.1415    0.0649   -0.0755 C   0  0  0  0  0  0  0  0  0  0  0  0
    3.5475    0.0649   -0.0755 C   0  0  0  0  0  0  0  0  0  0  0  0
    4.1619    1.2586    0.0076 C   0  0  0  0  0  0  0  0  0  0  0  0
    3.4723    2.4848   -0.1172 N   0  0  0  0  0  0  0  0  0  0  0  0
    3.5476    3.6280    0.8298 C   0  0  0  0  0  0  0  0  0  0  0  0
    3.5372    4.9354    0.0015 C   0  0  0  0  0  0  0  0  0  0  0  0
    2.3767    4.9830   -0.8957 N   0  0  0  0  0  0  0  0  0  0  0  0
    2.3073    3.8470   -1.8030 C   0  0  0  0  0  0  0  0  0  0  0  0
    2.2540    2.5857   -0.9766 C   0  0  0  0  0  0  0  0  0  0  0  0
    1.4036    5.9548   -0.6901 C   0  0  0  0  0  0  0  0  0  0  0  0
    1.6009    6.8400    0.1353 O   0  0  0  0  0  0  0  0  0  0  0  0
    0.1960    5.9116   -1.5043 C   0  0  0  0  0  0  0  0  0  0  0  0
   -0.5929    4.8651   -1.9511 C   0  0  0  0  0  0  0  0  0  0  0  0
   -1.6332    5.2976   -2.8200 C   0  0  0  0  0  0  0  0  0  0  0  0
   -1.6872    6.6679   -2.9014 C   0  0  0  0  0  0  0  0  0  0  0  0
   -0.4447    7.4213   -2.0130 S   0  0  0  0  0  0  0  0  0  0  0  0
    5.6390    1.2267    0.0072 C   0  0  0  0  0  0  0  0  0  0  0  0
    6.3868    2.4102   -0.0626 C   0  0  0  0  0  0  0  0  0  0  0  0
    7.7472    2.3862   -0.3254 C   0  0  0  0  0  0  0  0  0  0  0  0
    8.3923    1.1719   -0.4509 C   0  0  0  0  0  0  0  0  0  0  0  0
    7.7114   -0.0060   -0.1692 C   0  0  0  0  0  0  0  0  0  0  0  0
    6.3221   -0.0102   -0.0330 C   0  0  0  0  0  0  0  0  0  0  0  0
    5.5898   -1.2313   -0.0206 N   0  0  0  0  0  0  0  0  0  0  0  0
    4.2109   -1.2420   -0.0593 C   0  0  0  0  0  0  0  0  0  0  0  0
    3.5444   -2.2811   -0.1054 O   0  0  0  0  0  0  0  0  0  0  0  0
    6.2119   -2.5359   -0.0960 C   0  0  0  0  0  0  0  0  0  0  0  0
    4.4341    3.5940    1.4701 H   0  0  0  0  0  0  0  0  0  0  0  0
    2.6805    3.6034    1.5033 H   0  0  0  0  0  0  0  0  0  0  0  0
    4.4154    4.9680   -0.6536 H   0  0  0  0  0  0  0  0  0  0  0  0
    3.5797    5.8011    0.6639 H   0  0  0  0  0  0  0  0  0  0  0  0
    3.2073    3.8401   -2.4227 H   0  0  0  0  0  0  0  0  0  0  0  0
    1.4718    3.8559   -2.4954 H   0  0  0  0  0  0  0  0  0  0  0  0
    2.2012    1.7682   -1.7023 H   0  0  0  0  0  0  0  0  0  0  0  0
    1.3591    2.5769   -0.3357 H   0  0  0  0  0  0  0  0  0  0  0  0
   -0.4302    3.8197   -1.7153 H   0  0  0  0  0  0  0  0  0  0  0  0
   -2.3223    4.6342   -3.3275 H   0  0  0  0  0  0  0  0  0  0  0  0
   -2.3970    7.2774   -3.4382 H   0  0  0  0  0  0  0  0  0  0  0  0
    5.9255    3.3831    0.0165 H   0  0  0  0  0  0  0  0  0  0  0  0
    8.2896    3.3183   -0.4405 H   0  0  0  0  0  0  0  0  0  0  0  0
    9.4282    1.1297   -0.7688 H   0  0  0  0  0  0  0  0  0  0  0  0
    8.3070   -0.9051   -0.1010 H   0  0  0  0  0  0  0  0  0  0  0  0
    7.2966   -2.5246   -0.1159 H   0  0  0  0  0  0  0  0  0  0  0  0
    5.8592   -3.0422   -1.0020 H   0  0  0  0  0  0  0  0  0  0  0  0
    5.8898   -3.1156    0.7749 H   0  0  0  0  0  0  0  0  0  0  0  0
  1  2  3  0  0  0  0
  2  3  1  0  0  0  0
  3  4  2  0  0  0  0
  3 25  1  0  0  0  0
  4  5  1  0  0  0  0
  4 18  1  0  0  0  0
  5  6  1  0  0  0  0
  5 10  1  0  0  0  0
  6  7  1  0  0  0  0
  6 28  1  0  0  0  0
  6 29  1  0  0  0  0
  7  8  1  0  0  0  0
  7 30  1  0  0  0  0
  7 31  1  0  0  0  0
  8  9  1  0  0  0  0
  8 11  1  0  0  0  0
  9 10  1  0  0  0  0
  9 32  1  0  0  0  0
  9 33  1  0  0  0  0
 10 34  1  0  0  0  0
 10 35  1  0  0  0  0
 11 12  2  0  0  0  0
 11 13  1  0  0  0  0
 13 14  2  0  0  0  0
 13 17  1  0  0  0  0
 14 15  1  0  0  0  0
 14 36  1  0  0  0  0
 15 16  2  0  0  0  0
 15 37  1  0  0  0  0
 16 17  1  0  0  0  0
 16 38  1  0  0  0  0
 18 19  2  0  0  0  0
 18 23  1  0  0  0  0
 19 20  1  0  0  0  0
 19 39  1  0  0  0  0
 20 21  2  0  0  0  0
 20 40  1  0  0  0  0
 21 22  1  0  0  0  0
 21 41  1  0  0  0  0
 22 23  2  0  0  0  0
 22 42  1  0  0  0  0
 23 24  1  0  0  0  0
 24 25  1  0  0  0  0
 24 27  1  0  0  0  0
 25 26  2  0  0  0  0
 27 43  1  0  0  0  0
 27 44  1  0  0  0  0
 27 45  1  0  0  0  0
M  END
$$$$
