982
 OpenBabel04121316073D

 24 25  0  0  0  0  0  0  0  0999 V2000
    0.8731    0.0348    0.1250 O   0  0  0  0  0  0  0  0  0  0  0  0
    2.2245    0.0599    0.2546 C   0  0  0  0  0  0  0  0  0  0  0  0
    2.7737    0.7350    1.1096 O   0  0  0  0  0  0  0  0  0  0  0  0
    2.8770   -0.6846   -0.7933 C   0  0  0  0  0  0  0  0  0  0  0  0
    2.5925   -2.3726   -0.8094 S   0  0  0  0  0  0  0  0  0  0  0  0
    3.5817   -2.5941   -2.1656 C   0  0  0  0  0  0  0  0  0  0  0  0
    4.1468   -1.4128   -2.6278 C   0  0  0  0  0  0  0  0  0  0  0  0
    3.7447   -0.2954   -1.8043 C   0  0  0  0  0  0  0  0  0  0  0  0
    4.1866    0.9577   -2.1091 O   0  0  0  0  0  0  0  0  0  0  0  0
    3.7960    2.0181   -1.2485 C   0  0  0  0  0  0  0  0  0  0  0  0
    4.3650    3.3401   -1.7265 C   0  0  0  0  0  0  0  0  0  0  0  0
    5.0858    3.4761   -2.7038 O   0  0  0  0  0  0  0  0  0  0  0  0
    3.9990    4.3949   -0.9541 O   0  0  0  0  0  0  0  0  0  0  0  0
    4.9682   -1.5207   -3.7755 C   0  0  0  0  0  0  0  0  0  0  0  0
    5.1472   -2.7800   -4.3508 C   0  0  0  0  0  0  0  0  0  0  0  0
    4.5190   -3.8702   -3.7751 C   0  0  0  0  0  0  0  0  0  0  0  0
    3.7299   -3.8267   -2.6865 N   0  0  0  0  0  0  0  0  0  0  0  0
    0.5646   -0.5522   -0.5929 H   0  0  0  0  0  0  0  0  0  0  0  0
    4.2162    1.8568   -0.2528 H   0  0  0  0  0  0  0  0  0  0  0  0
    2.7037    2.1165   -1.2516 H   0  0  0  0  0  0  0  0  0  0  0  0
    3.4391    4.1813   -0.1814 H   0  0  0  0  0  0  0  0  0  0  0  0
    5.4463   -0.6444   -4.2081 H   0  0  0  0  0  0  0  0  0  0  0  0
    5.7644   -2.9086   -5.2338 H   0  0  0  0  0  0  0  0  0  0  0  0
    4.6366   -4.8641   -4.2006 H   0  0  0  0  0  0  0  0  0  0  0  0
  1  2  1  0  0  0  0
  1 18  1  0  0  0  0
  2  3  2  0  0  0  0
  2  4  1  0  0  0  0
  4  5  1  0  0  0  0
  4  8  2  0  0  0  0
  5  6  1  0  0  0  0
  6  7  2  0  0  0  0
  6 17  1  0  0  0  0
  7  8  1  0  0  0  0
  7 14  1  0  0  0  0
  8  9  1  0  0  0  0
  9 10  1  0  0  0  0
 10 11  1  0  0  0  0
 10 19  1  0  0  0  0
 10 20  1  0  0  0  0
 11 12  2  0  0  0  0
 11 13  1  0  0  0  0
 13 21  1  0  0  0  0
 14 15  2  0  0  0  0
 14 22  1  0  0  0  0
 15 16  1  0  0  0  0
 15 23  1  0  0  0  0
 16 17  2  0  0  0  0
 16 24  1  0  0  0  0
M  END
$$$$
