983
 OpenBabel04121316073D

 84 86  0  0  1  0  0  0  0  0999 V2000
    2.7498   -7.3604   -3.7723 N   0  0  0  0  0  0  0  0  0  0  0  0
    3.0690   -7.7423   -2.4037 C   0  0  0  0  0  0  0  0  0  0  0  0
    1.9622   -8.6015   -1.8181 C   0  0  0  0  0  0  0  0  0  0  0  0
    0.6449   -8.1613   -1.8814 C   0  0  0  0  0  0  0  0  0  0  0  0
   -0.3248   -8.7435   -1.0895 C   0  0  0  0  0  0  0  0  0  0  0  0
    0.0710   -9.5213   -0.0177 C   0  0  0  0  0  0  0  0  0  0  0  0
    1.3766  -10.0165    0.0553 C   0  0  0  0  0  0  0  0  0  0  0  0
    2.2266   -9.7352   -1.0280 C   0  0  0  0  0  0  0  0  0  0  0  0
    1.9301  -10.5785    1.3766 C   0  0  1  0  0  0  0  0  0  0  0  0
    1.5400   -9.9029    2.1329 H   0  0  0  0  0  0  0  0  0  0  0  0
    1.4134  -11.9852    1.6484 C   0  0  0  0  0  0  0  0  0  0  0  0
    2.1356  -12.9308    1.9315 O   0  0  0  0  0  0  0  0  0  0  0  0
    0.0713  -12.1568    1.6087 O   0  0  0  0  0  0  0  0  0  0  0  0
    3.4945  -10.5164    1.6849 C   0  0  0  0  0  0  0  0  0  0  0  0
    4.1160   -8.7795    1.8281 P   0  0  2  0  0  0  0  0  0  0  0  0
    3.3455   -8.4588    0.5287 O   0  0  0  0  0  0  0  0  0  0  0  0
    5.3357   -7.7642    0.8309 C   0  0  2  0  0  0  0  0  0  0  0  0
    4.7734   -7.3169   -0.0297 H   0  0  0  0  0  0  0  0  0  0  0  0
    6.3927   -8.4786    0.0325 C   0  0  0  0  0  0  0  0  0  0  0  0
    7.4135   -8.9103    1.0186 C   0  0  0  0  0  0  0  0  0  0  0  0
    5.9463   -9.7308   -0.6954 C   0  0  0  0  0  0  0  0  0  0  0  0
    5.6175   -6.3879    1.4407 N   0  0  0  0  0  0  0  0  0  0  0  0
    6.7004   -6.3197    2.6910 S   0  0  0  0  0  0  0  0  0  0  0  0
    6.2927   -7.2502    3.6700 O   0  0  0  0  0  0  0  0  0  0  0  0
    8.0735   -6.3272    2.1775 O   0  0  0  0  0  0  0  0  0  0  0  0
    6.6441   -4.7472    3.3433 C   0  0  0  0  0  0  0  0  0  0  0  0
    5.4625   -4.2012    4.0994 C   0  0  2  0  0  0  0  0  0  0  0  0
    5.3321   -3.1855    3.6975 H   0  0  0  0  0  0  0  0  0  0  0  0
    5.8051   -4.0703    5.6142 C   0  0  0  0  0  0  0  0  0  0  0  0
    7.1358   -3.4136    5.8912 C   0  0  0  0  0  0  0  0  0  0  0  0
    7.2315   -2.0271    5.9092 C   0  0  0  0  0  0  0  0  0  0  0  0
    8.4866   -1.4274    5.9117 C   0  0  0  0  0  0  0  0  0  0  0  0
    9.6441   -2.2055    5.9859 C   0  0  0  0  0  0  0  0  0  0  0  0
    9.5537   -3.5888    6.0887 C   0  0  0  0  0  0  0  0  0  0  0  0
    8.3053   -4.1927    6.0221 C   0  0  0  0  0  0  0  0  0  0  0  0
    4.1877   -4.8790    3.8618 N   0  0  0  0  0  0  0  0  0  0  0  0
    3.8664   -6.0509    4.5060 C   0  0  0  0  0  0  0  0  0  0  0  0
    4.5071   -6.5520    5.4102 O   0  0  0  0  0  0  0  0  0  0  0  0
    2.7848   -6.6373    3.9573 O   0  0  0  0  0  0  0  0  0  0  0  0
    2.4920   -7.8999    4.5895 C   0  0  0  0  0  0  0  0  0  0  0  0
    1.1057   -8.3449    4.2495 C   0  0  0  0  0  0  0  0  0  0  0  0
    0.7600   -9.7022    4.3245 C   0  0  0  0  0  0  0  0  0  0  0  0
   -0.4600  -10.1271    3.8012 C   0  0  0  0  0  0  0  0  0  0  0  0
   -1.3594   -9.1987    3.2809 C   0  0  0  0  0  0  0  0  0  0  0  0
   -1.0756   -7.8395    3.3524 C   0  0  0  0  0  0  0  0  0  0  0  0
    0.1662   -7.4176    3.7996 C   0  0  0  0  0  0  0  0  0  0  0  0
    4.9792   -9.1388    3.2836 O   0  0  0  0  0  0  0  0  0  0  0  0
    3.5077   -6.8096   -4.1604 H   0  0  0  0  0  0  0  0  0  0  0  0
    1.9410   -6.7463   -3.7347 H   0  0  0  0  0  0  0  0  0  0  0  0
    3.2161   -6.8272   -1.8012 H   0  0  0  0  0  0  0  0  0  0  0  0
    4.0348   -8.2469   -2.3975 H   0  0  0  0  0  0  0  0  0  0  0  0
    0.3657   -7.3501   -2.5390 H   0  0  0  0  0  0  0  0  0  0  0  0
   -1.3682   -8.5093   -1.2428 H   0  0  0  0  0  0  0  0  0  0  0  0
   -0.6628   -9.6577    0.7614 H   0  0  0  0  0  0  0  0  0  0  0  0
    3.2429  -10.1157   -0.9846 H   0  0  0  0  0  0  0  0  0  0  0  0
   -0.4465  -11.3480    1.4655 H   0  0  0  0  0  0  0  0  0  0  0  0
    4.0155  -11.1401    0.9679 H   0  0  0  0  0  0  0  0  0  0  0  0
    3.6493  -10.9756    2.6729 H   0  0  0  0  0  0  0  0  0  0  0  0
    6.7993   -7.7718   -0.7050 H   0  0  0  0  0  0  0  0  0  0  0  0
    6.9645   -9.3884    1.8917 H   0  0  0  0  0  0  0  0  0  0  0  0
    7.8620   -7.9991    1.2937 H   0  0  0  0  0  0  0  0  0  0  0  0
    8.2540   -9.4639    0.6306 H   0  0  0  0  0  0  0  0  0  0  0  0
    5.5043  -10.4382   -0.0023 H   0  0  0  0  0  0  0  0  0  0  0  0
    6.8162  -10.2281   -1.1271 H   0  0  0  0  0  0  0  0  0  0  0  0
    5.2462   -9.5461   -1.5047 H   0  0  0  0  0  0  0  0  0  0  0  0
    4.7100   -5.9416    1.6380 H   0  0  0  0  0  0  0  0  0  0  0  0
    7.0651   -4.0573    2.6108 H   0  0  0  0  0  0  0  0  0  0  0  0
    7.4459   -4.9437    4.0454 H   0  0  0  0  0  0  0  0  0  0  0  0
    5.8604   -5.0469    6.0955 H   0  0  0  0  0  0  0  0  0  0  0  0
    4.9960   -3.5262    6.1114 H   0  0  0  0  0  0  0  0  0  0  0  0
    6.3325   -1.4178    5.9039 H   0  0  0  0  0  0  0  0  0  0  0  0
    8.5627   -0.3464    5.8527 H   0  0  0  0  0  0  0  0  0  0  0  0
   10.6198   -1.7297    5.9753 H   0  0  0  0  0  0  0  0  0  0  0  0
   10.4464   -4.1994    6.1974 H   0  0  0  0  0  0  0  0  0  0  0  0
    8.2589   -5.2837    5.9933 H   0  0  0  0  0  0  0  0  0  0  0  0
    3.4760   -4.4434    3.2851 H   0  0  0  0  0  0  0  0  0  0  0  0
    2.6403   -7.8903    5.6717 H   0  0  0  0  0  0  0  0  0  0  0  0
    3.1504   -8.6488    4.1729 H   0  0  0  0  0  0  0  0  0  0  0  0
    1.4841  -10.4499    4.6547 H   0  0  0  0  0  0  0  0  0  0  0  0
   -0.6703  -11.1923    3.7331 H   0  0  0  0  0  0  0  0  0  0  0  0
   -2.2707   -9.5289    2.7908 H   0  0  0  0  0  0  0  0  0  0  0  0
   -1.8049   -7.1013    3.0379 H   0  0  0  0  0  0  0  0  0  0  0  0
    0.4182   -6.3615    3.7583 H   0  0  0  0  0  0  0  0  0  0  0  0
    5.5740   -8.4437    3.6582 H   0  0  0  0  0  0  0  0  0  0  0  0
  1  2  1  0  0  0  0
  1 48  1  0  0  0  0
  1 49  1  0  0  0  0
  2  3  1  0  0  0  0
  2 50  1  0  0  0  0
  2 51  1  0  0  0  0
  3  4  2  0  0  0  0
  3  8  1  0  0  0  0
  4  5  1  0  0  0  0
  4 52  1  0  0  0  0
  5  6  2  0  0  0  0
  5 53  1  0  0  0  0
  6  7  1  0  0  0  0
  6 54  1  0  0  0  0
  7  8  2  0  0  0  0
  7  9  1  0  0  0  0
  8 55  1  0  0  0  0
  9 10  1  1  0  0  0
  9 11  1  0  0  0  0
  9 14  1  0  0  0  0
 11 12  2  0  0  0  0
 11 13  1  0  0  0  0
 13 56  1  0  0  0  0
 14 57  1  0  0  0  0
 14 58  1  0  0  0  0
 15 47  1  1  0  0  0
 15 16  2  0  0  0  0
 15 14  1  0  0  0  0
 17 19  1  0  0  0  0
 17 22  1  0  0  0  0
 17 18  1  6  0  0  0
 17 15  1  0  0  0  0
 19 20  1  0  0  0  0
 19 21  1  0  0  0  0
 19 59  1  0  0  0  0
 20 60  1  0  0  0  0
 20 61  1  0  0  0  0
 20 62  1  0  0  0  0
 21 63  1  0  0  0  0
 21 64  1  0  0  0  0
 21 65  1  0  0  0  0
 22 23  1  0  0  0  0
 22 66  1  0  0  0  0
 23 24  2  0  0  0  0
 23 25  2  0  0  0  0
 23 26  1  0  0  0  0
 26 67  1  0  0  0  0
 26 68  1  0  0  0  0
 27 29  1  0  0  0  0
 27 36  1  0  0  0  0
 27 28  1  6  0  0  0
 27 26  1  0  0  0  0
 29 30  1  0  0  0  0
 29 69  1  0  0  0  0
 29 70  1  0  0  0  0
 30 31  2  0  0  0  0
 30 35  1  0  0  0  0
 31 32  1  0  0  0  0
 31 71  1  0  0  0  0
 32 33  2  0  0  0  0
 32 72  1  0  0  0  0
 33 34  1  0  0  0  0
 33 73  1  0  0  0  0
 34 35  2  0  0  0  0
 34 74  1  0  0  0  0
 35 75  1  0  0  0  0
 36 37  1  0  0  0  0
 36 76  1  0  0  0  0
 37 38  2  0  0  0  0
 37 39  1  0  0  0  0
 39 40  1  0  0  0  0
 40 41  1  0  0  0  0
 40 77  1  0  0  0  0
 40 78  1  0  0  0  0
 41 42  2  0  0  0  0
 41 46  1  0  0  0  0
 42 43  1  0  0  0  0
 42 79  1  0  0  0  0
 43 44  2  0  0  0  0
 43 80  1  0  0  0  0
 44 45  1  0  0  0  0
 44 81  1  0  0  0  0
 45 46  2  0  0  0  0
 45 82  1  0  0  0  0
 46 83  1  0  0  0  0
 47 84  1  0  0  0  0
M  END
$$$$
