985
 OpenBabel04121316073D

 47 49  0  0  0  0  0  0  0  0999 V2000
    0.9098    0.0342    0.0389 C   0  0  0  0  0  0  0  0  0  0  0  0
    2.3721    0.0434    0.0285 N   0  0  0  0  0  0  0  0  0  0  0  0
    2.8823   -1.2501   -0.4452 C   0  0  0  0  0  0  0  0  0  0  0  0
    4.4134   -1.3643   -0.4487 C   0  0  0  0  0  0  0  0  0  0  0  0
    5.0479   -0.6020   -1.6206 C   0  0  0  0  0  0  0  0  0  0  0  0
    5.3076    0.8009   -1.2935 N   0  0  0  0  0  0  0  0  0  0  0  0
    4.3449    1.4979   -0.4217 C   0  0  0  0  0  0  0  0  0  0  0  0
    2.8776    1.1713   -0.7738 C   0  0  0  0  0  0  0  0  0  0  0  0
    6.4589    1.4326   -1.7631 C   0  0  0  0  0  0  0  0  0  0  0  0
    6.5421    2.8306   -1.8403 C   0  0  0  0  0  0  0  0  0  0  0  0
    7.6030    3.5412   -2.2843 N   0  0  0  0  0  0  0  0  0  0  0  0
    8.6465    2.7928   -2.6673 C   0  0  0  0  0  0  0  0  0  0  0  0
    8.6565    1.4047   -2.6196 C   0  0  0  0  0  0  0  0  0  0  0  0
    7.5424    0.7166   -2.1806 N   0  0  0  0  0  0  0  0  0  0  0  0
    9.8376    0.6303   -3.0804 C   0  0  0  0  0  0  0  0  0  0  0  0
   10.9836    1.2228   -3.6486 C   0  0  0  0  0  0  0  0  0  0  0  0
   12.0450    0.4615   -4.1438 C   0  0  0  0  0  0  0  0  0  0  0  0
   11.9319   -0.9213   -4.1973 C   0  0  0  0  0  0  0  0  0  0  0  0
   10.8207   -1.5500   -3.6299 C   0  0  0  0  0  0  0  0  0  0  0  0
    9.8424   -0.7634   -2.9986 C   0  0  0  0  0  0  0  0  0  0  0  0
   10.6731   -3.0050   -3.7574 C   0  0  0  0  0  0  0  0  0  0  0  0
    9.6244   -3.6880   -3.2719 C   0  0  0  0  0  0  0  0  0  0  0  0
    9.5379   -5.1375   -3.4744 C   0  0  0  0  0  0  0  0  0  0  0  0
   10.3628   -5.8000   -4.0878 O   0  0  0  0  0  0  0  0  0  0  0  0
    8.4385   -5.6621   -2.9015 O   0  0  0  0  0  0  0  0  0  0  0  0
    0.5353   -0.7876    0.6592 H   0  0  0  0  0  0  0  0  0  0  0  0
    0.4945   -0.0706   -0.9690 H   0  0  0  0  0  0  0  0  0  0  0  0
    0.5231    0.9584    0.4830 H   0  0  0  0  0  0  0  0  0  0  0  0
    2.4947   -1.4675   -1.4496 H   0  0  0  0  0  0  0  0  0  0  0  0
    2.4950   -2.0377    0.2139 H   0  0  0  0  0  0  0  0  0  0  0  0
    4.6653   -2.4273   -0.5435 H   0  0  0  0  0  0  0  0  0  0  0  0
    4.8276   -1.0405    0.5148 H   0  0  0  0  0  0  0  0  0  0  0  0
    4.3732   -0.6354   -2.4874 H   0  0  0  0  0  0  0  0  0  0  0  0
    5.9528   -1.1355   -1.9281 H   0  0  0  0  0  0  0  0  0  0  0  0
    4.4351    2.5844   -0.4558 H   0  0  0  0  0  0  0  0  0  0  0  0
    4.5554    1.2432    0.6256 H   0  0  0  0  0  0  0  0  0  0  0  0
    2.7496    0.9932   -1.8501 H   0  0  0  0  0  0  0  0  0  0  0  0
    2.2882    2.0681   -0.5421 H   0  0  0  0  0  0  0  0  0  0  0  0
    5.7170    3.4730   -1.5726 H   0  0  0  0  0  0  0  0  0  0  0  0
    9.4843    3.3710   -3.0298 H   0  0  0  0  0  0  0  0  0  0  0  0
   11.0859    2.2996   -3.7379 H   0  0  0  0  0  0  0  0  0  0  0  0
   12.9386    0.9557   -4.5175 H   0  0  0  0  0  0  0  0  0  0  0  0
   12.7148   -1.4950   -4.6890 H   0  0  0  0  0  0  0  0  0  0  0  0
    9.0284   -1.2253   -2.4496 H   0  0  0  0  0  0  0  0  0  0  0  0
   11.4482   -3.5246   -4.3204 H   0  0  0  0  0  0  0  0  0  0  0  0
    8.8191   -3.2102   -2.7357 H   0  0  0  0  0  0  0  0  0  0  0  0
    7.8603   -5.0299   -2.4359 H   0  0  0  0  0  0  0  0  0  0  0  0
  1  2  1  0  0  0  0
  1 26  1  0  0  0  0
  1 27  1  0  0  0  0
  1 28  1  0  0  0  0
  2  3  1  0  0  0  0
  2  8  1  0  0  0  0
  3  4  1  0  0  0  0
  3 29  1  0  0  0  0
  3 30  1  0  0  0  0
  4  5  1  0  0  0  0
  4 31  1  0  0  0  0
  4 32  1  0  0  0  0
  5  6  1  0  0  0  0
  5 33  1  0  0  0  0
  5 34  1  0  0  0  0
  6  7  1  0  0  0  0
  6  9  1  0  0  0  0
  7  8  1  0  0  0  0
  7 35  1  0  0  0  0
  7 36  1  0  0  0  0
  8 37  1  0  0  0  0
  8 38  1  0  0  0  0
  9 10  2  0  0  0  0
  9 14  1  0  0  0  0
 10 11  1  0  0  0  0
 10 39  1  0  0  0  0
 11 12  2  0  0  0  0
 12 13  1  0  0  0  0
 12 40  1  0  0  0  0
 13 14  2  0  0  0  0
 13 15  1  0  0  0  0
 15 16  2  0  0  0  0
 15 20  1  0  0  0  0
 16 17  1  0  0  0  0
 16 41  1  0  0  0  0
 17 18  2  0  0  0  0
 17 42  1  0  0  0  0
 18 19  1  0  0  0  0
 18 43  1  0  0  0  0
 19 20  2  0  0  0  0
 19 21  1  0  0  0  0
 20 44  1  0  0  0  0
 21 22  2  0  0  0  0
 21 45  1  0  0  0  0
 22 23  1  0  0  0  0
 22 46  1  0  0  0  0
 23 24  2  0  0  0  0
 23 25  1  0  0  0  0
 25 47  1  0  0  0  0
M  END
$$$$
