991
 OpenBabel04121316073D

 46 49  0  0  0  0  0  0  0  0999 V2000
    1.3364   -0.1300   -1.1968 O   0  5  0  0  0  0  0  0  0  0  0  0
    2.4073   -0.1940   -0.4736 C   0  0  0  0  0  0  0  0  0  0  0  0
    3.0423    0.9868   -0.0222 C   0  0  0  0  0  0  0  0  0  0  0  0
    4.4108    0.9879    0.2814 C   0  0  0  0  0  0  0  0  0  0  0  0
    5.0780   -0.2163    0.4795 C   0  0  0  0  0  0  0  0  0  0  0  0
    4.3974   -1.4276    0.3018 C   0  0  0  0  0  0  0  0  0  0  0  0
    3.0603   -1.4381   -0.1664 C   0  0  0  0  0  0  0  0  0  0  0  0
    2.3819   -2.7234   -0.5205 C   0  0  0  0  0  0  0  0  0  0  0  0
    2.4466   -3.9439    0.1221 N   0  0  0  0  0  0  0  0  0  0  0  0
    2.8507   -4.0956    1.0367 H   0  0  0  0  0  0  0  0  0  0  0  0
    1.9408   -4.9333   -0.7111 C   0  0  0  0  0  0  0  0  0  0  0  0
    1.3019   -4.2867   -1.7529 C   0  0  0  0  0  0  0  0  0  0  0  0
    1.4460   -2.9234   -1.5255 C   0  0  0  0  0  0  0  0  0  0  0  0
    0.7051   -4.9980   -2.8005 C   0  0  0  0  0  0  0  0  0  0  0  0
    0.7884   -6.3963   -2.8474 C   0  0  0  0  0  0  0  0  0  0  0  0
    1.4293   -7.0286   -1.7512 C   0  0  0  0  0  0  0  0  0  0  0  0
    1.9843   -6.3224   -0.6601 C   0  0  0  0  0  0  0  0  0  0  0  0
    1.6206   -8.7520   -1.6522 Cl  0  0  0  0  0  0  0  0  0  0  0  0
    0.2259   -7.1067   -4.0272 C   0  0  0  0  0  0  0  0  0  0  0  0
   -0.3431   -6.4503   -5.0232 N   0  3  0  0  0  0  0  0  0  0  0  0
   -0.7317   -6.9176   -5.8293 H   0  0  0  0  0  0  0  0  0  0  0  0
   -0.4156   -5.4399   -5.0308 H   0  0  0  0  0  0  0  0  0  0  0  0
    0.2773   -8.4160   -4.1253 N   0  0  0  0  0  0  0  0  0  0  0  0
    2.4122    2.2129    0.1596 O   0  0  0  0  0  0  0  0  0  0  0  0
    0.9671    2.2090    0.2417 C   0  0  0  0  0  0  0  0  0  0  0  0
    0.3078    1.1456    1.1495 C   0  0  0  0  0  0  0  0  0  0  0  0
   -1.0614    1.6903    1.4479 C   0  0  0  0  0  0  0  0  0  0  0  0
   -0.8053    3.1582    1.6855 C   0  0  0  0  0  0  0  0  0  0  0  0
    0.4815    3.5068    0.9205 C   0  0  0  0  0  0  0  0  0  0  0  0
    4.9454    1.9324    0.3216 H   0  0  0  0  0  0  0  0  0  0  0  0
    6.1250   -0.1997    0.7735 H   0  0  0  0  0  0  0  0  0  0  0  0
    4.9582   -2.3503    0.4084 H   0  0  0  0  0  0  0  0  0  0  0  0
    1.0255   -2.1497   -2.1494 H   0  0  0  0  0  0  0  0  0  0  0  0
    0.2549   -4.3822   -3.5711 H   0  0  0  0  0  0  0  0  0  0  0  0
    2.4741   -6.8346    0.1602 H   0  0  0  0  0  0  0  0  0  0  0  0
    0.7163   -8.9529   -3.3825 H   0  0  0  0  0  0  0  0  0  0  0  0
   -0.0950   -8.9342   -4.9054 H   0  0  0  0  0  0  0  0  0  0  0  0
    0.5634    2.2233   -0.7805 H   0  0  0  0  0  0  0  0  0  0  0  0
    0.9138    0.9707    2.0434 H   0  0  0  0  0  0  0  0  0  0  0  0
    0.1126    0.1707    0.7071 H   0  0  0  0  0  0  0  0  0  0  0  0
   -1.5073    1.1701    2.2999 H   0  0  0  0  0  0  0  0  0  0  0  0
   -1.7184    1.5415    0.5805 H   0  0  0  0  0  0  0  0  0  0  0  0
   -0.6566    3.3248    2.7573 H   0  0  0  0  0  0  0  0  0  0  0  0
   -1.6635    3.7545    1.3637 H   0  0  0  0  0  0  0  0  0  0  0  0
    1.2354    3.8991    1.6117 H   0  0  0  0  0  0  0  0  0  0  0  0
    0.2909    4.2930    0.1809 H   0  0  0  0  0  0  0  0  0  0  0  0
  1  2  1  0  0  0  0
  2  3  2  0  0  0  0
  2  7  1  0  0  0  0
  3  4  1  0  0  0  0
  3 24  1  0  0  0  0
  4  5  2  0  0  0  0
  4 30  1  0  0  0  0
  5  6  1  0  0  0  0
  5 31  1  0  0  0  0
  6  7  2  0  0  0  0
  6 32  1  0  0  0  0
  7  8  1  0  0  0  0
  8  9  1  0  0  0  0
  8 13  2  0  0  0  0
  9 10  1  0  0  0  0
  9 11  1  0  0  0  0
 11 12  2  0  0  0  0
 11 17  1  0  0  0  0
 12 13  1  0  0  0  0
 12 14  1  0  0  0  0
 13 33  1  0  0  0  0
 14 15  2  0  0  0  0
 14 34  1  0  0  0  0
 15 16  1  0  0  0  0
 15 19  1  0  0  0  0
 16 17  2  0  0  0  0
 16 18  1  0  0  0  0
 17 35  1  0  0  0  0
 19 20  2  0  0  0  0
 19 23  1  0  0  0  0
 20 21  1  0  0  0  0
 20 22  1  0  0  0  0
 23 36  1  0  0  0  0
 23 37  1  0  0  0  0
 24 25  1  0  0  0  0
 25 26  1  0  0  0  0
 25 29  1  0  0  0  0
 25 38  1  0  0  0  0
 26 27  1  0  0  0  0
 26 39  1  0  0  0  0
 26 40  1  0  0  0  0
 27 28  1  0  0  0  0
 27 41  1  0  0  0  0
 27 42  1  0  0  0  0
 28 29  1  0  0  0  0
 28 43  1  0  0  0  0
 28 44  1  0  0  0  0
 29 45  1  0  0  0  0
 29 46  1  0  0  0  0
M  CHG  2   1  -1  20   1
M  END
$$$$
