995
 OpenBabel04121316073D

 66 66  0  0  1  0  0  0  0  0999 V2000
    5.7748    3.4493   -6.7536 C   0  0  0  0  0  0  0  0  0  0  0  0
    6.7857    3.6074   -5.6137 C   0  0  0  0  0  0  0  0  0  0  0  0
    8.2286    3.1680   -6.0321 C   0  0  0  0  0  0  0  0  0  0  0  0
    8.2729    1.7943   -6.6393 C   0  0  0  0  0  0  0  0  0  0  0  0
    9.5895    0.9564   -6.7763 C   0  0  0  0  0  0  0  0  0  0  0  0
   10.6603    1.5770   -6.6546 O   0  0  0  0  0  0  0  0  0  0  0  0
    9.7506   -0.4258   -6.7481 N   0  0  0  0  0  0  0  0  0  0  0  0
    9.0476   -1.8205   -6.7470 C   0  0  2  0  0  0  0  0  0  0  0  0
    8.3215   -1.7668   -7.5298 H   0  0  0  0  0  0  0  0  0  0  0  0
    8.3517   -2.5050   -5.4569 C   0  0  0  0  0  0  0  0  0  0  0  0
    8.7112   -3.5733   -4.9563 O   0  0  0  0  0  0  0  0  0  0  0  0
    7.2151   -1.9884   -4.9064 N   0  0  0  0  0  0  0  0  0  0  0  0
    6.6103   -0.7406   -5.2492 C   0  0  2  0  0  0  0  0  0  0  0  0
    5.5455   -0.7857   -5.0051 H   0  0  0  0  0  0  0  0  0  0  0  0
    6.5109   -0.6537   -6.8774 C   0  0  0  0  0  0  0  0  0  0  0  0
    7.1900    0.0739   -7.5449 O   0  0  0  0  0  0  0  0  0  0  0  0
    5.9182   -1.6918   -7.7225 C   0  0  0  0  0  0  0  0  0  0  0  0
    6.3044   -2.9482   -7.6404 N   0  0  0  0  0  0  0  0  0  0  0  0
    6.5720   -3.4309   -8.9166 C   0  0  0  0  0  0  0  0  0  0  0  0
    6.2836   -2.5797   -9.9606 C   0  0  0  0  0  0  0  0  0  0  0  0
    5.5867   -1.1411   -9.3636 S   0  0  0  0  0  0  0  0  0  0  0  0
    7.1754    0.2819   -4.1466 C   0  0  0  0  0  0  0  0  0  0  0  0
    8.7143    0.3490   -3.9336 C   0  0  0  0  0  0  0  0  0  0  0  0
    9.2528    1.5671   -3.2262 C   0  0  0  0  0  0  0  0  0  0  0  0
   10.6982    1.8434   -3.5258 N   0  0  0  0  0  0  0  0  0  0  0  0
   11.3076    2.8560   -2.7201 C   0  0  0  0  0  0  0  0  0  0  0  0
   10.8463    2.6551   -1.3984 N   0  0  0  0  0  0  0  0  0  0  0  0
   12.7125    2.7715   -2.6300 N   0  0  0  0  0  0  0  0  0  0  0  0
    9.9651   -2.8888   -7.3989 C   0  0  0  0  0  0  0  0  0  0  0  0
   10.2972   -2.4494   -8.8332 C   0  0  0  0  0  0  0  0  0  0  0  0
   11.1908   -3.0922   -6.5267 C   0  0  0  0  0  0  0  0  0  0  0  0
    6.9085    5.0458   -5.1517 C   0  0  0  0  0  0  0  0  0  0  0  0
    5.5491    2.3927   -6.9482 H   0  0  0  0  0  0  0  0  0  0  0  0
    6.1819    3.8838   -7.6695 H   0  0  0  0  0  0  0  0  0  0  0  0
    4.8192    3.9348   -6.5292 H   0  0  0  0  0  0  0  0  0  0  0  0
    6.3760    3.0584   -4.7575 H   0  0  0  0  0  0  0  0  0  0  0  0
    8.9089    3.2552   -5.1930 H   0  0  0  0  0  0  0  0  0  0  0  0
    8.6101    3.8448   -6.7941 H   0  0  0  0  0  0  0  0  0  0  0  0
    7.7593    1.9346   -7.5925 H   0  0  0  0  0  0  0  0  0  0  0  0
    7.6284    1.2595   -5.9845 H   0  0  0  0  0  0  0  0  0  0  0  0
   10.7288   -0.5646   -6.9500 H   0  0  0  0  0  0  0  0  0  0  0  0
    6.9302   -2.4375   -4.0413 H   0  0  0  0  0  0  0  0  0  0  0  0
    7.0052   -4.4181   -9.0248 H   0  0  0  0  0  0  0  0  0  0  0  0
    6.4070   -2.7260  -11.0236 H   0  0  0  0  0  0  0  0  0  0  0  0
    6.7625    0.0226   -3.1616 H   0  0  0  0  0  0  0  0  0  0  0  0
    6.7610    1.2718   -4.3052 H   0  0  0  0  0  0  0  0  0  0  0  0
    9.1945    0.4252   -4.8608 H   0  0  0  0  0  0  0  0  0  0  0  0
    9.1450   -0.5725   -3.5374 H   0  0  0  0  0  0  0  0  0  0  0  0
    9.1023    1.4087   -2.1625 H   0  0  0  0  0  0  0  0  0  0  0  0
    8.7339    2.4906   -3.4779 H   0  0  0  0  0  0  0  0  0  0  0  0
   11.0797    1.6695   -4.4670 H   0  0  0  0  0  0  0  0  0  0  0  0
   11.0141    3.8370   -3.1068 H   0  0  0  0  0  0  0  0  0  0  0  0
   11.1971    1.8600   -0.8774 H   0  0  0  0  0  0  0  0  0  0  0  0
    9.9258    2.9771   -1.1243 H   0  0  0  0  0  0  0  0  0  0  0  0
   13.2264    1.8990   -2.6064 H   0  0  0  0  0  0  0  0  0  0  0  0
   13.2409    3.5987   -2.3628 H   0  0  0  0  0  0  0  0  0  0  0  0
    9.4269   -3.8501   -7.4782 H   0  0  0  0  0  0  0  0  0  0  0  0
   10.7255   -1.4442   -8.8558 H   0  0  0  0  0  0  0  0  0  0  0  0
    9.3911   -2.4124   -9.4526 H   0  0  0  0  0  0  0  0  0  0  0  0
   11.0021   -3.1304   -9.3108 H   0  0  0  0  0  0  0  0  0  0  0  0
   11.7018   -2.1466   -6.3462 H   0  0  0  0  0  0  0  0  0  0  0  0
   11.8892   -3.7928   -6.9805 H   0  0  0  0  0  0  0  0  0  0  0  0
   10.9128   -3.4847   -5.5448 H   0  0  0  0  0  0  0  0  0  0  0  0
    7.3936    5.6340   -5.9336 H   0  0  0  0  0  0  0  0  0  0  0  0
    7.5326    5.0841   -4.2510 H   0  0  0  0  0  0  0  0  0  0  0  0
    5.9365    5.4843   -4.9183 H   0  0  0  0  0  0  0  0  0  0  0  0
  1  2  1  0  0  0  0
  1 33  1  0  0  0  0
  1 34  1  0  0  0  0
  1 35  1  0  0  0  0
  2  3  1  0  0  0  0
  2 32  1  0  0  0  0
  2 36  1  0  0  0  0
  3  4  1  0  0  0  0
  3 37  1  0  0  0  0
  3 38  1  0  0  0  0
  4  5  1  0  0  0  0
  4 39  1  0  0  0  0
  4 40  1  0  0  0  0
  5  6  2  0  0  0  0
  5  7  1  0  0  0  0
  7 41  1  0  0  0  0
  8 10  1  0  0  0  0
  8 29  1  0  0  0  0
  8  9  1  6  0  0  0
  8  7  1  0  0  0  0
 10 11  2  0  0  0  0
 10 12  1  0  0  0  0
 12 42  1  0  0  0  0
 13 15  1  0  0  0  0
 13 22  1  0  0  0  0
 13 14  1  1  0  0  0
 13 12  1  0  0  0  0
 15 16  2  0  0  0  0
 15 17  1  0  0  0  0
 17 18  2  0  0  0  0
 17 21  1  0  0  0  0
 18 19  1  0  0  0  0
 19 20  2  0  0  0  0
 19 43  1  0  0  0  0
 20 21  1  0  0  0  0
 20 44  1  0  0  0  0
 22 23  1  0  0  0  0
 22 45  1  0  0  0  0
 22 46  1  0  0  0  0
 23 24  1  0  0  0  0
 23 47  1  0  0  0  0
 23 48  1  0  0  0  0
 24 25  1  0  0  0  0
 24 49  1  0  0  0  0
 24 50  1  0  0  0  0
 25 26  1  0  0  0  0
 25 51  1  0  0  0  0
 26 27  1  0  0  0  0
 26 28  1  0  0  0  0
 26 52  1  0  0  0  0
 27 53  1  0  0  0  0
 27 54  1  0  0  0  0
 28 55  1  0  0  0  0
 28 56  1  0  0  0  0
 29 30  1  0  0  0  0
 29 31  1  0  0  0  0
 29 57  1  0  0  0  0
 30 58  1  0  0  0  0
 30 59  1  0  0  0  0
 30 60  1  0  0  0  0
 31 61  1  0  0  0  0
 31 62  1  0  0  0  0
 31 63  1  0  0  0  0
 32 64  1  0  0  0  0
 32 65  1  0  0  0  0
 32 66  1  0  0  0  0
M  END
$$$$
