9CA
 OpenBabel04121316073D

 22 24  0  0  0  0  0  0  0  0999 V2000
    3.4340   -0.2175   -0.0003 C   0  0  0  0  0  0  0  0  0  0  0  0
    3.0553    1.1231   -0.0006 C   0  0  0  0  0  0  0  0  0  0  0  0
    1.7022    1.4829   -0.0003 C   0  0  0  0  0  0  0  0  0  0  0  0
    0.7165    0.4739   -0.0000 C   0  0  0  0  0  0  0  0  0  0  0  0
    1.1299   -0.8578    0.0000 C   0  0  0  0  0  0  0  0  0  0  0  0
    2.4772   -1.2359    0.0001 C   0  0  0  0  0  0  0  0  0  0  0  0
   -0.0052   -1.6322    0.0001 N   0  0  0  0  0  0  0  0  0  0  0  0
   -0.0077   -2.6412    0.0000 H   0  0  0  0  0  0  0  0  0  0  0  0
   -1.1362   -0.8518    0.0001 C   0  0  0  0  0  0  0  0  0  0  0  0
   -0.7157    0.4778    0.0001 C   0  0  0  0  0  0  0  0  0  0  0  0
   -1.6961    1.4920    0.0000 C   0  0  0  0  0  0  0  0  0  0  0  0
   -3.0510    1.1395    0.0000 C   0  0  0  0  0  0  0  0  0  0  0  0
   -3.4368   -0.1990    0.0000 C   0  0  0  0  0  0  0  0  0  0  0  0
   -2.4855   -1.2226    0.0000 C   0  0  0  0  0  0  0  0  0  0  0  0
    4.4899   -0.4777   -0.0003 H   0  0  0  0  0  0  0  0  0  0  0  0
    3.8166    1.8992   -0.0011 H   0  0  0  0  0  0  0  0  0  0  0  0
    1.4165    2.5304   -0.0002 H   0  0  0  0  0  0  0  0  0  0  0  0
    2.7743   -2.2794    0.0003 H   0  0  0  0  0  0  0  0  0  0  0  0
   -1.4049    2.5381    0.0000 H   0  0  0  0  0  0  0  0  0  0  0  0
   -3.8082    1.9195   -0.0000 H   0  0  0  0  0  0  0  0  0  0  0  0
   -4.4941   -0.4534   -0.0000 H   0  0  0  0  0  0  0  0  0  0  0  0
   -2.7884   -2.2644    0.0000 H   0  0  0  0  0  0  0  0  0  0  0  0
  1  2  2  0  0  0  0
  1  6  1  0  0  0  0
  1 15  1  0  0  0  0
  2  3  1  0  0  0  0
  2 16  1  0  0  0  0
  3  4  2  0  0  0  0
  3 17  1  0  0  0  0
  4  5  1  0  0  0  0
  4 10  1  0  0  0  0
  5  6  2  0  0  0  0
  5  7  1  0  0  0  0
  6 18  1  0  0  0  0
  7  8  1  0  0  0  0
  7  9  1  0  0  0  0
  9 10  2  0  0  0  0
  9 14  1  0  0  0  0
 10 11  1  0  0  0  0
 11 12  2  0  0  0  0
 11 19  1  0  0  0  0
 12 13  1  0  0  0  0
 12 20  1  0  0  0  0
 13 14  2  0  0  0  0
 13 21  1  0  0  0  0
 14 22  1  0  0  0  0
M  END
$$$$
