9CL
 OpenBabel04121316073D

 15 15  0  0  0  0  0  0  0  0999 V2000
    0.9965   -0.0238    0.0882 Cl  0  0  0  0  0  0  0  0  0  0  0  0
    2.7775    0.0726    0.0648 C   0  0  0  0  0  0  0  0  0  0  0  0
    3.2046    1.2875   -0.7110 C   0  0  0  0  0  0  0  0  0  0  0  0
    3.0502    2.5654   -0.1502 C   0  0  0  0  0  0  0  0  0  0  0  0
    3.2105    3.7019   -0.9437 C   0  0  0  0  0  0  0  0  0  0  0  0
    3.6159    3.5769   -2.2674 C   0  0  0  0  0  0  0  0  0  0  0  0
    3.8937    2.3168   -2.7980 C   0  0  0  0  0  0  0  0  0  0  0  0
    3.6591    1.1742   -2.0297 C   0  0  0  0  0  0  0  0  0  0  0  0
    3.1496   -0.8500   -0.3905 H   0  0  0  0  0  0  0  0  0  0  0  0
    3.1326    0.1157    1.0983 H   0  0  0  0  0  0  0  0  0  0  0  0
    2.7526    2.6775    0.8883 H   0  0  0  0  0  0  0  0  0  0  0  0
    2.9906    4.6832   -0.5290 H   0  0  0  0  0  0  0  0  0  0  0  0
    3.7096    4.4609   -2.8939 H   0  0  0  0  0  0  0  0  0  0  0  0
    4.2566    2.2239   -3.8162 H   0  0  0  0  0  0  0  0  0  0  0  0
    3.8034    0.1956   -2.4848 H   0  0  0  0  0  0  0  0  0  0  0  0
  1  2  1  0  0  0  0
  2  3  1  0  0  0  0
  2  9  1  0  0  0  0
  2 10  1  0  0  0  0
  3  4  2  0  0  0  0
  3  8  1  0  0  0  0
  4  5  1  0  0  0  0
  4 11  1  0  0  0  0
  5  6  2  0  0  0  0
  5 12  1  0  0  0  0
  6  7  1  0  0  0  0
  6 13  1  0  0  0  0
  7  8  2  0  0  0  0
  7 14  1  0  0  0  0
  8 15  1  0  0  0  0
M  END
$$$$
