9DI
 OpenBabel04121316073D

 32 34  0  0  1  0  0  0  0  0999 V2000
    0.9704   -0.0917    0.0466 O   0  0  0  0  0  0  0  0  0  0  0  0
    2.3931   -0.0921    0.1237 C   0  0  0  0  0  0  0  0  0  0  0  0
    2.9703   -1.4826    0.4053 C   0  0  1  0  0  0  0  0  0  0  0  0
    4.0520   -1.3501    0.5451 H   0  0  0  0  0  0  0  0  0  0  0  0
    2.4614   -2.1118    1.5978 O   0  0  0  0  0  0  0  0  0  0  0  0
    2.8075   -3.5050    1.4542 C   0  0  2  0  0  0  0  0  0  0  0  0
    3.8669   -3.5930    1.7388 H   0  0  0  0  0  0  0  0  0  0  0  0
    2.6642   -3.8297   -0.0472 C   0  0  1  0  0  0  0  0  0  0  0  0
    1.6984   -4.3061   -0.2538 H   0  0  0  0  0  0  0  0  0  0  0  0
    2.7112   -2.4629   -0.7314 C   0  0  2  0  0  0  0  0  0  0  0  0
    1.7477   -2.2730   -1.2141 H   0  0  0  0  0  0  0  0  0  0  0  0
    3.7219   -2.3436   -1.7336 O   0  0  0  0  0  0  0  0  0  0  0  0
    3.6810   -4.7037   -0.5554 O   0  0  0  0  0  0  0  0  0  0  0  0
    2.0552   -4.4709    2.3328 C   0  0  0  0  0  0  0  0  0  0  0  0
    2.4799   -5.7772    2.5786 C   0  0  0  0  0  0  0  0  0  0  0  0
    1.5959   -6.3940    3.4284 N   0  0  0  0  0  0  0  0  0  0  0  0
    1.6683   -7.3398    3.7850 H   0  0  0  0  0  0  0  0  0  0  0  0
    0.6000   -5.5160    3.7345 C   0  0  0  0  0  0  0  0  0  0  0  0
    0.8501   -4.3424    3.0695 C   0  0  0  0  0  0  0  0  0  0  0  0
   -0.0057   -3.2423    3.1757 N   0  0  0  0  0  0  0  0  0  0  0  0
   -1.0170   -3.4385    3.9647 C   0  0  0  0  0  0  0  0  0  0  0  0
   -1.3079   -4.5916    4.6633 N   0  0  0  0  0  0  0  0  0  0  0  0
   -2.1223   -4.6517    5.2553 H   0  0  0  0  0  0  0  0  0  0  0  0
   -0.5207   -5.7105    4.5896 C   0  0  0  0  0  0  0  0  0  0  0  0
   -0.7744   -6.7465    5.1999 O   0  0  0  0  0  0  0  0  0  0  0  0
    0.7000    0.8339   -0.0827 H   0  0  0  0  0  0  0  0  0  0  0  0
    2.6940    0.6114    0.9060 H   0  0  0  0  0  0  0  0  0  0  0  0
    2.7725    0.2757   -0.8368 H   0  0  0  0  0  0  0  0  0  0  0  0
    3.6875   -3.1730   -2.2455 H   0  0  0  0  0  0  0  0  0  0  0  0
    3.6135   -5.5386   -0.0595 H   0  0  0  0  0  0  0  0  0  0  0  0
    3.3522   -6.3106    2.2256 H   0  0  0  0  0  0  0  0  0  0  0  0
   -1.7583   -2.6403    4.1348 H   0  0  0  0  0  0  0  0  0  0  0  0
  1  2  1  0  0  0  0
  1 26  1  0  0  0  0
  2  3  1  0  0  0  0
  2 27  1  0  0  0  0
  2 28  1  0  0  0  0
  3  4  1  1  0  0  0
  3  5  1  0  0  0  0
  3 10  1  0  0  0  0
  5  6  1  0  0  0  0
  6  8  1  0  0  0  0
  6 14  1  0  0  0  0
  6  7  1  1  0  0  0
  8  9  1  6  0  0  0
  8 10  1  0  0  0  0
  8 13  1  0  0  0  0
 10 11  1  6  0  0  0
 10 12  1  0  0  0  0
 12 29  1  0  0  0  0
 13 30  1  0  0  0  0
 14 15  2  0  0  0  0
 14 19  1  0  0  0  0
 15 16  1  0  0  0  0
 15 31  1  0  0  0  0
 16 17  1  0  0  0  0
 16 18  1  0  0  0  0
 18 19  2  0  0  0  0
 18 24  1  0  0  0  0
 19 20  1  0  0  0  0
 20 21  2  0  0  0  0
 21 22  1  0  0  0  0
 21 32  1  0  0  0  0
 22 23  1  0  0  0  0
 22 24  1  0  0  0  0
 24 25  2  0  0  0  0
M  END
$$$$
