9DP
 OpenBabel04121316073D

 59 62  0  0  1  0  0  0  0  0999 V2000
    0.8140    0.0025   -0.3568 O   0  0  0  0  0  0  0  0  0  0  0  0
    2.0347    0.0354   -0.2012 C   0  0  0  0  0  0  0  0  0  0  0  0
    2.5889   -0.0777    1.0670 N   0  0  0  0  0  0  0  0  0  0  0  0
    1.9131   -0.5638    2.1540 C   0  0  0  0  0  0  0  0  0  0  0  0
    1.9853   -1.8344    2.6499 C   0  0  0  0  0  0  0  0  0  0  0  0
    1.3769   -1.7386    3.9212 C   0  0  0  0  0  0  0  0  0  0  0  0
    1.1249   -0.4628    4.2591 N   0  0  0  0  0  0  0  0  0  0  0  0
    1.4186    0.2218    3.1487 N   0  0  0  0  0  0  0  0  0  0  0  0
    1.3665    1.6059    3.0421 C   0  0  0  0  0  0  0  0  0  0  0  0
    0.5412    2.1357    2.0479 C   0  0  0  0  0  0  0  0  0  0  0  0
    0.5108    3.4990    1.8590 C   0  0  0  0  0  0  0  0  0  0  0  0
    1.3167    4.3212    2.6494 C   0  0  0  0  0  0  0  0  0  0  0  0
    2.2322    3.7610    3.5672 C   0  0  0  0  0  0  0  0  0  0  0  0
    2.2491    2.3862    3.7795 C   0  0  0  0  0  0  0  0  0  0  0  0
    3.1568    4.6497    4.3591 C   0  0  0  0  0  0  0  0  0  0  0  0
    3.2838    6.0454    3.7238 C   0  0  2  0  0  0  0  0  0  0  0  0
    3.7677    6.7093    4.4503 H   0  0  0  0  0  0  0  0  0  0  0  0
    1.9425    6.5877    3.4178 N   0  0  0  0  0  0  0  0  0  0  0  0
    1.2054    5.8028    2.4372 C   0  0  0  0  0  0  0  0  0  0  0  0
    4.2195    5.9804    2.4976 C   0  0  0  0  0  0  0  0  0  0  0  0
    5.2640    5.3434    2.4713 O   0  0  0  0  0  0  0  0  0  0  0  0
    3.8280    6.7065    1.4226 O   0  0  0  0  0  0  0  0  0  0  0  0
    1.0213   -2.8627    4.8563 C   0  0  0  0  0  0  0  0  0  0  0  0
    1.6541   -2.6240    6.2335 C   0  0  0  0  0  0  0  0  0  0  0  0
   -0.5105   -2.9275    4.9892 C   0  0  0  0  0  0  0  0  0  0  0  0
    1.5197   -4.2156    4.3099 C   0  0  0  0  0  0  0  0  0  0  0  0
    2.9480    0.2836   -1.1736 N   0  0  0  0  0  0  0  0  0  0  0  0
    4.3777    0.2624   -1.1487 C   0  0  0  0  0  0  0  0  0  0  0  0
    4.9913    0.9858   -2.1816 C   0  0  0  0  0  0  0  0  0  0  0  0
    6.3508    1.3045   -2.1130 C   0  0  0  0  0  0  0  0  0  0  0  0
    7.1634    0.7292   -1.1437 C   0  0  0  0  0  0  0  0  0  0  0  0
    6.6170   -0.1244   -0.2056 C   0  0  0  0  0  0  0  0  0  0  0  0
    5.2370   -0.3679   -0.2020 C   0  0  0  0  0  0  0  0  0  0  0  0
    4.7380   -1.5963    0.9149 Cl  0  0  0  0  0  0  0  0  0  0  0  0
    7.7075   -0.8679    0.9213 Cl  0  0  0  0  0  0  0  0  0  0  0  0
    3.5536    0.1568    1.2371 H   0  0  0  0  0  0  0  0  0  0  0  0
    2.4184   -2.7127    2.1913 H   0  0  0  0  0  0  0  0  0  0  0  0
   -0.1007    1.4980    1.4453 H   0  0  0  0  0  0  0  0  0  0  0  0
   -0.1554    3.9218    1.1117 H   0  0  0  0  0  0  0  0  0  0  0  0
    2.9599    1.9380    4.4720 H   0  0  0  0  0  0  0  0  0  0  0  0
    4.1438    4.1753    4.4404 H   0  0  0  0  0  0  0  0  0  0  0  0
    2.7483    4.7254    5.3753 H   0  0  0  0  0  0  0  0  0  0  0  0
    1.9172    7.5905    3.2730 H   0  0  0  0  0  0  0  0  0  0  0  0
    1.5519    5.9945    1.4182 H   0  0  0  0  0  0  0  0  0  0  0  0
    0.1523    6.1021    2.4537 H   0  0  0  0  0  0  0  0  0  0  0  0
    3.0045    7.2001    1.5859 H   0  0  0  0  0  0  0  0  0  0  0  0
    1.3117   -1.6796    6.6726 H   0  0  0  0  0  0  0  0  0  0  0  0
    2.7467   -2.5723    6.1576 H   0  0  0  0  0  0  0  0  0  0  0  0
    1.3958   -3.4286    6.9284 H   0  0  0  0  0  0  0  0  0  0  0  0
   -0.9168   -1.9899    5.3872 H   0  0  0  0  0  0  0  0  0  0  0  0
   -0.8150   -3.7373    5.6585 H   0  0  0  0  0  0  0  0  0  0  0  0
   -0.9827   -3.0954    4.0129 H   0  0  0  0  0  0  0  0  0  0  0  0
    2.6107   -4.2176    4.1943 H   0  0  0  0  0  0  0  0  0  0  0  0
    1.0851   -4.4316    3.3253 H   0  0  0  0  0  0  0  0  0  0  0  0
    1.2512   -5.0399    4.9768 H   0  0  0  0  0  0  0  0  0  0  0  0
    2.4926    0.6441   -2.0082 H   0  0  0  0  0  0  0  0  0  0  0  0
    4.4354    1.3245   -3.0565 H   0  0  0  0  0  0  0  0  0  0  0  0
    6.7890    2.0067   -2.8182 H   0  0  0  0  0  0  0  0  0  0  0  0
    8.2356    0.8962   -1.1460 H   0  0  0  0  0  0  0  0  0  0  0  0
  1  2  2  0  0  0  0
  2  3  1  0  0  0  0
  2 27  1  0  0  0  0
  3  4  1  0  0  0  0
  3 36  1  0  0  0  0
  4  5  2  0  0  0  0
  4  8  1  0  0  0  0
  5  6  1  0  0  0  0
  5 37  1  0  0  0  0
  6  7  2  0  0  0  0
  6 23  1  0  0  0  0
  7  8  1  0  0  0  0
  8  9  1  0  0  0  0
  9 10  2  0  0  0  0
  9 14  1  0  0  0  0
 10 11  1  0  0  0  0
 10 38  1  0  0  0  0
 11 12  2  0  0  0  0
 11 39  1  0  0  0  0
 12 13  1  0  0  0  0
 12 19  1  0  0  0  0
 13 14  2  0  0  0  0
 13 15  1  0  0  0  0
 14 40  1  0  0  0  0
 15 16  1  0  0  0  0
 15 41  1  0  0  0  0
 15 42  1  0  0  0  0
 16 18  1  0  0  0  0
 16 20  1  0  0  0  0
 16 17  1  1  0  0  0
 18 19  1  0  0  0  0
 18 43  1  0  0  0  0
 19 44  1  0  0  0  0
 19 45  1  0  0  0  0
 20 21  2  0  0  0  0
 20 22  1  0  0  0  0
 22 46  1  0  0  0  0
 23 24  1  0  0  0  0
 23 25  1  0  0  0  0
 23 26  1  0  0  0  0
 24 47  1  0  0  0  0
 24 48  1  0  0  0  0
 24 49  1  0  0  0  0
 25 50  1  0  0  0  0
 25 51  1  0  0  0  0
 25 52  1  0  0  0  0
 26 53  1  0  0  0  0
 26 54  1  0  0  0  0
 26 55  1  0  0  0  0
 27 28  1  0  0  0  0
 27 56  1  0  0  0  0
 28 29  2  0  0  0  0
 28 33  1  0  0  0  0
 29 30  1  0  0  0  0
 29 57  1  0  0  0  0
 30 31  2  0  0  0  0
 30 58  1  0  0  0  0
 31 32  1  0  0  0  0
 31 59  1  0  0  0  0
 32 33  2  0  0  0  0
 32 35  1  0  0  0  0
 33 34  1  0  0  0  0
M  END
$$$$
