9HP
 OpenBabel04121316073D

 33 36  0  0  0  0  0  0  0  0999 V2000
    0.9690   -0.0880    0.0312 O   0  0  0  0  0  0  0  0  0  0  0  0
    2.3261   -0.0242   -0.0297 C   0  0  0  0  0  0  0  0  0  0  0  0
    2.9894    1.1893   -0.0384 C   0  0  0  0  0  0  0  0  0  0  0  0
    4.3689    1.2038   -0.2395 C   0  0  0  0  0  0  0  0  0  0  0  0
    5.1263    0.0156   -0.3443 C   0  0  0  0  0  0  0  0  0  0  0  0
    4.4239   -1.1901   -0.1816 C   0  0  0  0  0  0  0  0  0  0  0  0
    3.0322   -1.2133   -0.0891 C   0  0  0  0  0  0  0  0  0  0  0  0
    6.5757    0.0350   -0.6528 C   0  0  0  0  0  0  0  0  0  0  0  0
    7.3441   -1.1091   -0.8512 C   0  0  0  0  0  0  0  0  0  0  0  0
    8.6634   -1.1272   -1.1604 N   0  0  0  0  0  0  0  0  0  0  0  0
    9.2931    0.0462   -1.3007 C   0  0  0  0  0  0  0  0  0  0  0  0
    8.6392    1.2844   -1.1476 C   0  0  0  0  0  0  0  0  0  0  0  0
    7.2764    1.2320   -0.8226 C   0  0  0  0  0  0  0  0  0  0  0  0
    9.3510    2.5129   -1.3170 C   0  0  0  0  0  0  0  0  0  0  0  0
    8.7892    3.8020   -1.1945 C   0  0  0  0  0  0  0  0  0  0  0  0
    9.4565    4.9681   -1.3469 N   0  0  0  0  0  0  0  0  0  0  0  0
   10.7627    4.8692   -1.6401 C   0  0  0  0  0  0  0  0  0  0  0  0
   11.4292    3.6642   -1.7890 C   0  0  0  0  0  0  0  0  0  0  0  0
   10.7182    2.4697   -1.6273 C   0  0  0  0  0  0  0  0  0  0  0  0
   11.3534    1.2293   -1.7693 C   0  0  0  0  0  0  0  0  0  0  0  0
   10.6373    0.0420   -1.6078 C   0  0  0  0  0  0  0  0  0  0  0  0
    0.6210    0.8173   -0.0177 H   0  0  0  0  0  0  0  0  0  0  0  0
    2.4659    2.1317    0.0846 H   0  0  0  0  0  0  0  0  0  0  0  0
    4.8211    2.1868   -0.3278 H   0  0  0  0  0  0  0  0  0  0  0  0
    4.9341   -2.1478   -0.1456 H   0  0  0  0  0  0  0  0  0  0  0  0
    2.5083   -2.1636   -0.0725 H   0  0  0  0  0  0  0  0  0  0  0  0
    6.9215   -2.1062   -0.7820 H   0  0  0  0  0  0  0  0  0  0  0  0
    6.7504    2.1694   -0.7075 H   0  0  0  0  0  0  0  0  0  0  0  0
    7.7404    3.9540   -0.9605 H   0  0  0  0  0  0  0  0  0  0  0  0
   11.2818    5.8149   -1.7575 H   0  0  0  0  0  0  0  0  0  0  0  0
   12.4860    3.6630   -2.0269 H   0  0  0  0  0  0  0  0  0  0  0  0
   12.4117    1.1715   -2.0073 H   0  0  0  0  0  0  0  0  0  0  0  0
   11.1461   -0.9132   -1.7234 H   0  0  0  0  0  0  0  0  0  0  0  0
  1  2  1  0  0  0  0
  1 22  1  0  0  0  0
  2  3  2  0  0  0  0
  2  7  1  0  0  0  0
  3  4  1  0  0  0  0
  3 23  1  0  0  0  0
  4  5  2  0  0  0  0
  4 24  1  0  0  0  0
  5  6  1  0  0  0  0
  5  8  1  0  0  0  0
  6  7  2  0  0  0  0
  6 25  1  0  0  0  0
  7 26  1  0  0  0  0
  8  9  2  0  0  0  0
  8 13  1  0  0  0  0
  9 10  1  0  0  0  0
  9 27  1  0  0  0  0
 10 11  2  0  0  0  0
 11 12  1  0  0  0  0
 11 21  1  0  0  0  0
 12 13  2  0  0  0  0
 12 14  1  0  0  0  0
 13 28  1  0  0  0  0
 14 15  2  0  0  0  0
 14 19  1  0  0  0  0
 15 16  1  0  0  0  0
 15 29  1  0  0  0  0
 16 17  2  0  0  0  0
 17 18  1  0  0  0  0
 17 30  1  0  0  0  0
 18 19  2  0  0  0  0
 18 31  1  0  0  0  0
 19 20  1  0  0  0  0
 20 21  2  0  0  0  0
 20 32  1  0  0  0  0
 21 33  1  0  0  0  0
M  END
$$$$
