9IP
 OpenBabel04121316073D

 41 43  0  0  0  0  0  0  0  0999 V2000
    0.9320   -0.0590    0.0311 C   0  0  0  0  0  0  0  0  0  0  0  0
    2.3577   -0.0981    0.0963 O   0  0  0  0  0  0  0  0  0  0  0  0
    2.9229    0.5712   -0.9498 C   0  0  0  0  0  0  0  0  0  0  0  0
    2.8122    1.9351   -1.1359 C   0  0  0  0  0  0  0  0  0  0  0  0
    3.3733    2.5923   -2.1714 N   0  0  0  0  0  0  0  0  0  0  0  0
    4.1014    1.8474   -3.0427 C   0  0  0  0  0  0  0  0  0  0  0  0
    4.3353    0.4738   -2.9407 C   0  0  0  0  0  0  0  0  0  0  0  0
    3.7103   -0.1485   -1.8394 C   0  0  0  0  0  0  0  0  0  0  0  0
    5.0877   -0.2812   -3.9773 C   0  0  0  0  0  0  0  0  0  0  0  0
    5.7840    0.3089   -5.0402 C   0  0  0  0  0  0  0  0  0  0  0  0
    6.3272   -0.4594   -6.0784 C   0  0  0  0  0  0  0  0  0  0  0  0
    6.0981   -1.8306   -6.1274 C   0  0  0  0  0  0  0  0  0  0  0  0
    5.4275   -2.4569   -5.0802 C   0  0  0  0  0  0  0  0  0  0  0  0
    5.0487   -1.6779   -3.9799 C   0  0  0  0  0  0  0  0  0  0  0  0
    5.0900   -3.9260   -5.1809 C   0  0  0  0  0  0  0  0  0  0  0  0
    4.1843   -4.3557   -4.1326 N   0  0  0  0  0  0  0  0  0  0  0  0
    3.9364   -5.7056   -3.8627 C   0  0  0  0  0  0  0  0  0  0  0  0
    4.5549   -6.7407   -4.5522 C   0  0  0  0  0  0  0  0  0  0  0  0
    4.2908   -8.0536   -4.1773 C   0  0  0  0  0  0  0  0  0  0  0  0
    3.2818   -8.2723   -3.2624 C   0  0  0  0  0  0  0  0  0  0  0  0
    2.6022   -7.2997   -2.6148 N   0  0  0  0  0  0  0  0  0  0  0  0
    2.9737   -6.0309   -2.8833 C   0  0  0  0  0  0  0  0  0  0  0  0
    2.5013   -5.0432   -2.0067 N   0  0  0  0  0  0  0  0  0  0  0  0
    0.5428   -0.5756    0.9135 H   0  0  0  0  0  0  0  0  0  0  0  0
    0.5712   -0.5872   -0.8588 H   0  0  0  0  0  0  0  0  0  0  0  0
    0.5501    0.9664    0.0476 H   0  0  0  0  0  0  0  0  0  0  0  0
    2.2630    2.5561   -0.4386 H   0  0  0  0  0  0  0  0  0  0  0  0
    4.4854    2.4273   -3.8752 H   0  0  0  0  0  0  0  0  0  0  0  0
    3.7885   -1.2135   -1.6453 H   0  0  0  0  0  0  0  0  0  0  0  0
    5.9160    1.3850   -5.0992 H   0  0  0  0  0  0  0  0  0  0  0  0
    6.8914    0.0228   -6.8713 H   0  0  0  0  0  0  0  0  0  0  0  0
    6.4363   -2.4048   -6.9867 H   0  0  0  0  0  0  0  0  0  0  0  0
    4.6591   -2.1680   -3.1049 H   0  0  0  0  0  0  0  0  0  0  0  0
    6.0275   -4.4914   -5.1980 H   0  0  0  0  0  0  0  0  0  0  0  0
    4.5624   -4.0774   -6.1320 H   0  0  0  0  0  0  0  0  0  0  0  0
    4.2550   -3.8881   -3.2400 H   0  0  0  0  0  0  0  0  0  0  0  0
    5.2758   -6.5583   -5.3369 H   0  0  0  0  0  0  0  0  0  0  0  0
    4.8673   -8.8686   -4.5965 H   0  0  0  0  0  0  0  0  0  0  0  0
    2.9866   -9.2879   -3.0035 H   0  0  0  0  0  0  0  0  0  0  0  0
    1.6995   -5.3587   -1.4833 H   0  0  0  0  0  0  0  0  0  0  0  0
    2.4590   -4.1015   -2.3778 H   0  0  0  0  0  0  0  0  0  0  0  0
  1  2  1  0  0  0  0
  1 24  1  0  0  0  0
  1 25  1  0  0  0  0
  1 26  1  0  0  0  0
  2  3  1  0  0  0  0
  3  4  2  0  0  0  0
  3  8  1  0  0  0  0
  4  5  1  0  0  0  0
  4 27  1  0  0  0  0
  5  6  2  0  0  0  0
  6  7  1  0  0  0  0
  6 28  1  0  0  0  0
  7  8  2  0  0  0  0
  7  9  1  0  0  0  0
  8 29  1  0  0  0  0
  9 10  2  0  0  0  0
  9 14  1  0  0  0  0
 10 11  1  0  0  0  0
 10 30  1  0  0  0  0
 11 12  2  0  0  0  0
 11 31  1  0  0  0  0
 12 13  1  0  0  0  0
 12 32  1  0  0  0  0
 13 14  2  0  0  0  0
 13 15  1  0  0  0  0
 14 33  1  0  0  0  0
 15 16  1  0  0  0  0
 15 34  1  0  0  0  0
 15 35  1  0  0  0  0
 16 17  1  0  0  0  0
 16 36  1  0  0  0  0
 17 18  2  0  0  0  0
 17 22  1  0  0  0  0
 18 19  1  0  0  0  0
 18 37  1  0  0  0  0
 19 20  2  0  0  0  0
 19 38  1  0  0  0  0
 20 21  1  0  0  0  0
 20 39  1  0  0  0  0
 21 22  2  0  0  0  0
 22 23  1  0  0  0  0
 23 40  1  0  0  0  0
 23 41  1  0  0  0  0
M  END
$$$$
