9TA
 OpenBabel04121316073D

 24 26  0  0  0  0  0  0  0  0999 V2000
    0.9611   -0.0068    0.0742 O   0  0  0  0  0  0  0  0  0  0  0  0
    2.1885   -0.0048    0.0743 C   0  0  0  0  0  0  0  0  0  0  0  0
    2.9291    1.2586    0.0742 C   0  0  0  0  0  0  0  0  0  0  0  0
    2.1972    2.4483    0.0741 C   0  0  0  0  0  0  0  0  0  0  0  0
    2.8639    3.6660    0.0751 C   0  0  0  0  0  0  0  0  0  0  0  0
    4.2592    3.6932    0.0755 C   0  0  0  0  0  0  0  0  0  0  0  0
    4.9931    2.5014    0.0737 C   0  0  0  0  0  0  0  0  0  0  0  0
    4.3235    1.2733    0.0741 C   0  0  0  0  0  0  0  0  0  0  0  0
    5.0809    0.0002    0.0752 C   0  0  0  0  0  0  0  0  0  0  0  0
    6.3071    0.0021    0.0768 O   0  0  0  0  0  0  0  0  0  0  0  0
    4.3278   -1.2754    0.0749 C   0  0  0  0  0  0  0  0  0  0  0  0
    2.9333   -1.2657    0.0744 C   0  0  0  0  0  0  0  0  0  0  0  0
    2.2058   -2.4581    0.0742 C   0  0  0  0  0  0  0  0  0  0  0  0
    2.8771   -3.6734    0.0744 C   0  0  0  0  0  0  0  0  0  0  0  0
    4.2725   -3.6953    0.0750 C   0  0  0  0  0  0  0  0  0  0  0  0
    5.0018   -2.5009    0.0753 C   0  0  0  0  0  0  0  0  0  0  0  0
    1.1089    2.4197    0.0736 H   0  0  0  0  0  0  0  0  0  0  0  0
    2.2891    4.5883    0.0754 H   0  0  0  0  0  0  0  0  0  0  0  0
    4.7756    4.6498    0.0772 H   0  0  0  0  0  0  0  0  0  0  0  0
    6.0812    2.5380    0.0723 H   0  0  0  0  0  0  0  0  0  0  0  0
    1.1173   -2.4335    0.0739 H   0  0  0  0  0  0  0  0  0  0  0  0
    2.3060   -4.5980    0.0742 H   0  0  0  0  0  0  0  0  0  0  0  0
    4.7929   -4.6498    0.0753 H   0  0  0  0  0  0  0  0  0  0  0  0
    6.0900   -2.5335    0.0758 H   0  0  0  0  0  0  0  0  0  0  0  0
  1  2  2  0  0  0  0
  2  3  1  0  0  0  0
  2 12  1  0  0  0  0
  3  4  2  0  0  0  0
  3  8  1  0  0  0  0
  4  5  1  0  0  0  0
  4 17  1  0  0  0  0
  5  6  2  0  0  0  0
  5 18  1  0  0  0  0
  6  7  1  0  0  0  0
  6 19  1  0  0  0  0
  7  8  2  0  0  0  0
  7 20  1  0  0  0  0
  8  9  1  0  0  0  0
  9 10  2  0  0  0  0
  9 11  1  0  0  0  0
 11 12  2  0  0  0  0
 11 16  1  0  0  0  0
 12 13  1  0  0  0  0
 13 14  2  0  0  0  0
 13 21  1  0  0  0  0
 14 15  1  0  0  0  0
 14 22  1  0  0  0  0
 15 16  2  0  0  0  0
 15 23  1  0  0  0  0
 16 24  1  0  0  0  0
M  END
$$$$
