A14
 OpenBabel04121316073D

 46 47  0  0  1  0  0  0  0  0999 V2000
    4.4114    0.4592   -1.5479 O   0  0  0  0  0  0  0  0  0  0  0  0
    4.1641    0.0051   -2.6620 C   0  0  0  0  0  0  0  0  0  0  0  0
    3.1710   -0.9304   -2.8609 N   0  0  0  0  0  0  0  0  0  0  0  0
    2.2929   -1.3590   -1.7298 C   0  0  2  0  0  0  0  0  0  0  0  0
    2.5937   -0.8868   -0.7919 H   0  0  0  0  0  0  0  0  0  0  0  0
    2.0956   -2.8991   -1.5862 C   0  0  0  0  0  0  0  0  0  0  0  0
    2.7438   -3.7966   -1.0725 O   0  0  0  0  0  0  0  0  0  0  0  0
    0.7255   -2.8287   -2.3080 C   0  0  1  0  0  0  0  0  0  0  0  0
   -0.0760   -3.3759   -1.7996 H   0  0  0  0  0  0  0  0  0  0  0  0
    0.7508   -1.3192   -1.9444 C   0  0  2  0  0  0  0  0  0  0  0  0
    0.2095   -1.0550   -1.0297 H   0  0  0  0  0  0  0  0  0  0  0  0
    0.1773   -0.3856   -3.3854 S   0  0  0  0  0  0  0  0  0  0  0  0
   -0.1597   -1.8928   -4.3952 C   0  0  0  0  0  0  0  0  0  0  0  0
    0.7427   -3.0194   -3.8377 C   0  0  2  0  0  0  0  0  0  0  0  0
    1.7761   -2.9097   -4.1977 H   0  0  0  0  0  0  0  0  0  0  0  0
    0.3379   -4.4247   -4.2498 C   0  0  0  0  0  0  0  0  0  0  0  0
    0.1220   -5.3200   -3.4477 O   0  0  0  0  0  0  0  0  0  0  0  0
    0.2824   -4.6619   -5.5741 O   0  0  0  0  0  0  0  0  0  0  0  0
   -1.6446   -2.1998   -4.3677 C   0  0  0  0  0  0  0  0  0  0  0  0
    0.2556   -1.4570   -5.7835 C   0  0  0  0  0  0  0  0  0  0  0  0
    4.9658    0.4725   -3.8677 C   0  0  0  0  0  0  0  0  0  0  0  0
    4.4849   -0.0886   -5.1882 C   0  0  0  0  0  0  0  0  0  0  0  0
    5.2651    0.4087   -6.4010 C   0  0  0  0  0  0  0  0  0  0  0  0
    4.7695   -0.2098   -7.7230 C   0  0  1  0  0  0  0  0  0  0  0  0
    4.7913   -1.3063   -7.6623 H   0  0  0  0  0  0  0  0  0  0  0  0
    3.3295    0.2254   -8.1034 C   0  0  0  0  0  0  0  0  0  0  0  0
    3.0092    0.9344   -9.0433 O   0  0  0  0  0  0  0  0  0  0  0  0
    2.3967   -0.2840   -7.2839 O   0  0  0  0  0  0  0  0  0  0  0  0
    5.6599    0.2009   -8.8109 N   0  0  0  0  0  0  0  0  0  0  0  0
    2.8870   -1.1493   -3.8026 H   0  0  0  0  0  0  0  0  0  0  0  0
    0.5018   -3.9552   -6.2019 H   0  0  0  0  0  0  0  0  0  0  0  0
   -1.9809   -2.4801   -3.3660 H   0  0  0  0  0  0  0  0  0  0  0  0
   -1.8717   -3.0265   -5.0486 H   0  0  0  0  0  0  0  0  0  0  0  0
   -2.2298   -1.3384   -4.7072 H   0  0  0  0  0  0  0  0  0  0  0  0
    1.3201   -1.2831   -5.7168 H   0  0  0  0  0  0  0  0  0  0  0  0
   -0.2421   -0.5391   -6.1177 H   0  0  0  0  0  0  0  0  0  0  0  0
    0.0869   -2.1956   -6.5651 H   0  0  0  0  0  0  0  0  0  0  0  0
    6.0161    0.2161   -3.7004 H   0  0  0  0  0  0  0  0  0  0  0  0
    4.8753    1.5654   -3.9033 H   0  0  0  0  0  0  0  0  0  0  0  0
    3.4489    0.2465   -5.2668 H   0  0  0  0  0  0  0  0  0  0  0  0
    4.5087   -1.1860   -5.1680 H   0  0  0  0  0  0  0  0  0  0  0  0
    6.3235    0.1552   -6.2530 H   0  0  0  0  0  0  0  0  0  0  0  0
    5.1935    1.5013   -6.4459 H   0  0  0  0  0  0  0  0  0  0  0  0
    2.8050   -0.8882   -6.6456 H   0  0  0  0  0  0  0  0  0  0  0  0
    6.6354    0.0401   -8.5829 H   0  0  0  0  0  0  0  0  0  0  0  0
    5.5384    1.2078   -8.9535 H   0  0  0  0  0  0  0  0  0  0  0  0
  1  2  2  0  0  0  0
  2  3  1  0  0  0  0
  2 21  1  0  0  0  0
  3 30  1  0  0  0  0
  4  6  1  0  0  0  0
  4 10  1  0  0  0  0
  4  5  1  1  0  0  0
  4  3  1  0  0  0  0
  6  7  2  0  0  0  0
  6  8  1  0  0  0  0
  8  9  1  1  0  0  0
  8 10  1  0  0  0  0
  8 14  1  0  0  0  0
 10 11  1  1  0  0  0
 10 12  1  0  0  0  0
 12 13  1  0  0  0  0
 13 14  1  0  0  0  0
 13 19  1  0  0  0  0
 13 20  1  0  0  0  0
 14 16  1  0  0  0  0
 14 15  1  6  0  0  0
 16 17  2  0  0  0  0
 16 18  1  0  0  0  0
 18 31  1  0  0  0  0
 19 32  1  0  0  0  0
 19 33  1  0  0  0  0
 19 34  1  0  0  0  0
 20 35  1  0  0  0  0
 20 36  1  0  0  0  0
 20 37  1  0  0  0  0
 21 22  1  0  0  0  0
 21 38  1  0  0  0  0
 21 39  1  0  0  0  0
 22 23  1  0  0  0  0
 22 40  1  0  0  0  0
 22 41  1  0  0  0  0
 23 24  1  0  0  0  0
 23 42  1  0  0  0  0
 23 43  1  0  0  0  0
 24 25  1  1  0  0  0
 24 26  1  0  0  0  0
 24 29  1  0  0  0  0
 26 27  2  0  0  0  0
 26 28  1  0  0  0  0
 28 44  1  0  0  0  0
 29 45  1  0  0  0  0
 29 46  1  0  0  0  0
M  END
$$$$
