A18
 OpenBabel04121316073D

 25 26  0  0  0  0  0  0  0  0999 V2000
    1.4244    0.8338    0.6653 Cl  0  0  0  0  0  0  0  0  0  0  0  0
    2.9544    0.2381    0.1896 C   0  0  0  0  0  0  0  0  0  0  0  0
    3.7789    1.3568    0.0846 C   0  0  0  0  0  0  0  0  0  0  0  0
    5.1116    1.2367   -0.1971 C   0  0  0  0  0  0  0  0  0  0  0  0
    5.6610   -0.0304   -0.2571 C   0  0  0  0  0  0  0  0  0  0  0  0
    4.8530   -1.1718   -0.1065 C   0  0  0  0  0  0  0  0  0  0  0  0
    3.4416   -1.0770    0.0135 C   0  0  0  0  0  0  0  0  0  0  0  0
    2.6843   -2.4142   -0.0855 C   0  0  0  0  0  0  0  0  0  0  0  0
    1.1814   -2.4357   -0.1539 C   0  0  0  0  0  0  0  0  0  0  0  0
    0.2354   -3.4410   -0.0783 C   0  0  0  0  0  0  0  0  0  0  0  0
   -1.0308   -2.7914   -0.0646 C   0  0  0  0  0  0  0  0  0  0  0  0
   -0.8102   -1.4325   -0.1672 C   0  0  0  0  0  0  0  0  0  0  0  0
    0.5260   -1.2619   -0.3800 O   0  0  0  0  0  0  0  0  0  0  0  0
   -1.7601   -0.3295   -0.1122 C   0  0  0  0  0  0  0  0  0  0  0  0
   -2.9813   -0.4926   -0.0165 O   0  0  0  0  0  0  0  0  0  0  0  0
   -1.2626    0.9313   -0.1537 O   0  0  0  0  0  0  0  0  0  0  0  0
    3.3562    2.3472    0.2445 H   0  0  0  0  0  0  0  0  0  0  0  0
    5.6851    2.1455   -0.3217 H   0  0  0  0  0  0  0  0  0  0  0  0
    6.7288   -0.1193   -0.4263 H   0  0  0  0  0  0  0  0  0  0  0  0
    5.3549   -2.1414   -0.0864 H   0  0  0  0  0  0  0  0  0  0  0  0
    3.0112   -3.0594    0.7470 H   0  0  0  0  0  0  0  0  0  0  0  0
    3.0396   -2.9357   -0.9936 H   0  0  0  0  0  0  0  0  0  0  0  0
    0.4201   -4.5055   -0.0117 H   0  0  0  0  0  0  0  0  0  0  0  0
   -2.0147   -3.2268    0.0222 H   0  0  0  0  0  0  0  0  0  0  0  0
   -0.2851    0.9838   -0.1302 H   0  0  0  0  0  0  0  0  0  0  0  0
  1  2  1  0  0  0  0
  2  3  2  0  0  0  0
  2  7  1  0  0  0  0
  3  4  1  0  0  0  0
  3 17  1  0  0  0  0
  4  5  2  0  0  0  0
  4 18  1  0  0  0  0
  5  6  1  0  0  0  0
  5 19  1  0  0  0  0
  6  7  2  0  0  0  0
  6 20  1  0  0  0  0
  7  8  1  0  0  0  0
  8  9  1  0  0  0  0
  8 21  1  0  0  0  0
  8 22  1  0  0  0  0
  9 10  2  0  0  0  0
  9 13  1  0  0  0  0
 10 11  1  0  0  0  0
 10 23  1  0  0  0  0
 11 12  2  0  0  0  0
 11 24  1  0  0  0  0
 12 13  1  0  0  0  0
 12 14  1  0  0  0  0
 14 15  2  0  0  0  0
 14 16  1  0  0  0  0
 16 25  1  0  0  0  0
M  END
$$$$
