A1R
 OpenBabel04121316073D

 59 62  0  0  1  0  0  0  0  0999 V2000
    5.1197    0.3869    0.5211 O   0  0  0  0  0  0  0  0  0  0  0  0
    3.7863    0.4917    0.0185 C   0  0  2  0  0  0  0  0  0  0  0  0
    3.8193    1.1743   -0.8355 H   0  0  0  0  0  0  0  0  0  0  0  0
    2.8678    0.9983    1.1041 C   0  0  1  0  0  0  0  0  0  0  0  0
    3.3776    1.7094    1.7675 H   0  0  0  0  0  0  0  0  0  0  0  0
    1.5312    1.5187    0.5747 C   0  0  0  0  0  0  0  0  0  0  0  0
    1.5297    2.6045   -0.3290 O   0  0  0  0  0  0  0  0  0  0  0  0
    0.2117    3.5238   -0.1108 P   0  0  1  0  0  0  0  0  0  0  0  0
   -1.0107    2.6789    0.0633 O   0  0  0  0  0  0  0  0  0  0  0  0
    0.5749    4.5635    1.0606 O   0  0  0  0  0  0  0  0  0  0  0  0
    1.6917    4.0118    2.1299 P   0  0  2  0  0  0  0  0  0  0  0  0
    0.6861    3.7219    3.2655 O   0  0  0  0  0  0  0  0  0  0  0  0
    2.2472    5.4007    2.8977 O   0  0  0  0  0  0  0  0  0  0  0  0
    1.8816    5.4259    4.3106 C   0  0  0  0  0  0  0  0  0  0  0  0
    2.5692    6.4152    5.2316 C   0  0  1  0  0  0  0  0  0  0  0  0
    3.6529    6.2583    5.1952 H   0  0  0  0  0  0  0  0  0  0  0  0
    2.2349    7.8008    4.8619 N   0  0  0  0  0  0  0  0  0  0  0  0
    2.3995    8.5479    6.1070 C   0  0  0  0  0  0  0  0  0  0  0  0
    1.9297    7.6399    7.2474 C   0  0  1  0  0  0  0  0  0  0  0  0
    0.8839    7.8604    7.4925 H   0  0  0  0  0  0  0  0  0  0  0  0
    2.0238    6.2196    6.6731 C   0  0  2  0  0  0  0  0  0  0  0  0
    1.0158    5.7833    6.6716 H   0  0  0  0  0  0  0  0  0  0  0  0
    2.8459    5.3438    7.4407 O   0  0  0  0  0  0  0  0  0  0  0  0
    2.6973    7.7837    8.4372 O   0  0  0  0  0  0  0  0  0  0  0  0
    2.8182    4.3365    0.8578 O   0  0  0  0  0  0  0  0  0  0  0  0
    0.0554    4.3964   -1.4419 O   0  0  0  0  0  0  0  0  0  0  0  0
    2.5541   -0.1774    1.8885 O   0  0  0  0  0  0  0  0  0  0  0  0
    2.3495   -1.2710    0.9589 C   0  0  2  0  0  0  0  0  0  0  0  0
    2.7435   -2.1876    1.4085 H   0  0  0  0  0  0  0  0  0  0  0  0
    3.1383   -0.8558   -0.3185 C   0  0  2  0  0  0  0  0  0  0  0  0
    2.4864   -0.6759   -1.1764 H   0  0  0  0  0  0  0  0  0  0  0  0
    4.0966   -1.8329   -0.7008 O   0  0  0  0  0  0  0  0  0  0  0  0
    0.9112   -1.5113    0.7726 N   0  0  0  0  0  0  0  0  0  0  0  0
    0.2733   -1.7302   -0.4264 C   0  0  0  0  0  0  0  0  0  0  0  0
   -1.0326   -1.8507   -0.2894 N   0  0  0  0  0  0  0  0  0  0  0  0
   -1.2554   -1.7366    1.0573 C   0  0  0  0  0  0  0  0  0  0  0  0
   -0.0613   -1.5320    1.7519 C   0  0  0  0  0  0  0  0  0  0  0  0
    0.0720   -1.3927    3.0726 N   0  0  0  0  0  0  0  0  0  0  0  0
   -1.1274   -1.4707    3.7004 C   0  0  0  0  0  0  0  0  0  0  0  0
   -2.3503   -1.6740    3.1553 N   0  0  0  0  0  0  0  0  0  0  0  0
   -2.4342   -1.8135    1.8187 C   0  0  0  0  0  0  0  0  0  0  0  0
   -3.6647   -2.0619    1.2426 N   0  0  0  0  0  0  0  0  0  0  0  0
    5.1731   -0.3914    1.1027 H   0  0  0  0  0  0  0  0  0  0  0  0
    0.9332    1.7426    1.4639 H   0  0  0  0  0  0  0  0  0  0  0  0
    0.9708    0.7603    0.0522 H   0  0  0  0  0  0  0  0  0  0  0  0
    2.0805    4.4359    4.7507 H   0  0  0  0  0  0  0  0  0  0  0  0
    0.8013    5.6341    4.3573 H   0  0  0  0  0  0  0  0  0  0  0  0
    1.2595    7.8316    4.5578 H   0  0  0  0  0  0  0  0  0  0  0  0
    1.8150    9.4718    6.0699 H   0  0  0  0  0  0  0  0  0  0  0  0
    3.4512    8.8264    6.2281 H   0  0  0  0  0  0  0  0  0  0  0  0
    2.6642    5.5576    8.3771 H   0  0  0  0  0  0  0  0  0  0  0  0
    2.6970    8.7291    8.6703 H   0  0  0  0  0  0  0  0  0  0  0  0
    3.7191    4.4127    1.2266 H   0  0  0  0  0  0  0  0  0  0  0  0
   -0.8726    4.3129   -1.7401 H   0  0  0  0  0  0  0  0  0  0  0  0
    3.6215   -2.6347   -0.9820 H   0  0  0  0  0  0  0  0  0  0  0  0
    0.7688   -1.7686   -1.3817 H   0  0  0  0  0  0  0  0  0  0  0  0
   -1.1100   -1.3654    4.7791 H   0  0  0  0  0  0  0  0  0  0  0  0
   -4.4824   -2.0242    1.8302 H   0  0  0  0  0  0  0  0  0  0  0  0
   -3.7286   -2.0669    0.2360 H   0  0  0  0  0  0  0  0  0  0  0  0
  1 43  1  0  0  0  0
  2  4  1  0  0  0  0
  2 30  1  0  0  0  0
  2  3  1  6  0  0  0
  2  1  1  0  0  0  0
  4  5  1  1  0  0  0
  4  6  1  0  0  0  0
  4 27  1  0  0  0  0
  6  7  1  0  0  0  0
  6 44  1  0  0  0  0
  6 45  1  0  0  0  0
  8  7  1  6  0  0  0
  8  9  2  0  0  0  0
  8 10  1  0  0  0  0
  8 26  1  0  0  0  0
 11 13  1  1  0  0  0
 11 25  1  0  0  0  0
 11 12  2  0  0  0  0
 11 10  1  0  0  0  0
 13 14  1  0  0  0  0
 14 15  1  0  0  0  0
 14 46  1  0  0  0  0
 14 47  1  0  0  0  0
 15 16  1  6  0  0  0
 15 17  1  0  0  0  0
 15 21  1  0  0  0  0
 17 18  1  0  0  0  0
 17 48  1  0  0  0  0
 18 19  1  0  0  0  0
 18 49  1  0  0  0  0
 18 50  1  0  0  0  0
 19 20  1  1  0  0  0
 19 21  1  0  0  0  0
 19 24  1  0  0  0  0
 21 22  1  6  0  0  0
 21 23  1  0  0  0  0
 23 51  1  0  0  0  0
 24 52  1  0  0  0  0
 25 53  1  0  0  0  0
 26 54  1  0  0  0  0
 27 28  1  0  0  0  0
 28 30  1  0  0  0  0
 28 33  1  0  0  0  0
 28 29  1  1  0  0  0
 30 31  1  6  0  0  0
 30 32  1  0  0  0  0
 32 55  1  0  0  0  0
 33 34  1  0  0  0  0
 33 37  1  0  0  0  0
 34 35  2  0  0  0  0
 34 56  1  0  0  0  0
 35 36  1  0  0  0  0
 36 37  2  0  0  0  0
 36 41  1  0  0  0  0
 37 38  1  0  0  0  0
 38 39  2  0  0  0  0
 39 40  1  0  0  0  0
 39 57  1  0  0  0  0
 40 41  2  0  0  0  0
 41 42  1  0  0  0  0
 42 58  1  0  0  0  0
 42 59  1  0  0  0  0
M  END
$$$$
