A22
 OpenBabel04121316073D

 76 81  0  0  1  0  0  0  0  0999 V2000
    2.8405   -0.0293   -1.4152 O   0  0  0  0  0  0  0  0  0  0  0  0
    2.3168   -0.2316   -0.0908 C   0  0  2  0  0  0  0  0  0  0  0  0
    1.2383   -0.1124   -0.1324 H   0  0  0  0  0  0  0  0  0  0  0  0
    2.7752    0.8006    0.8436 C   0  0  2  0  0  0  0  0  0  0  0  0
    2.1716    0.8453    1.7465 H   0  0  0  0  0  0  0  0  0  0  0  0
    2.9080    2.0818    0.3913 O   0  0  0  0  0  0  0  0  0  0  0  0
    4.1107    0.2740    1.0206 C   0  0  2  0  0  0  0  0  0  0  0  0
    4.8464    0.4644    0.2033 H   0  0  0  0  0  0  0  0  0  0  0  0
    4.1235   -1.0833    1.2659 O   0  0  0  0  0  0  0  0  0  0  0  0
    2.9425   -1.4983    0.5902 C   0  0  1  0  0  0  0  0  0  0  0  0
    3.2707   -2.1933   -0.1717 H   0  0  0  0  0  0  0  0  0  0  0  0
    2.0923   -2.2066    1.5094 N   0  0  0  0  0  0  0  0  0  0  0  0
    0.7519   -2.3134    1.2396 C   0  0  0  0  0  0  0  0  0  0  0  0
    0.0874   -2.8594    2.2237 N   0  0  0  0  0  0  0  0  0  0  0  0
    1.0454   -3.1143    3.1838 C   0  0  0  0  0  0  0  0  0  0  0  0
    2.3363   -2.7925    2.7438 C   0  0  0  0  0  0  0  0  0  0  0  0
    3.4491   -2.7498    3.5376 N   0  0  0  0  0  0  0  0  0  0  0  0
    3.1372   -2.9429    4.8471 C   0  0  0  0  0  0  0  0  0  0  0  0
    1.9291   -3.2349    5.3885 N   0  0  0  0  0  0  0  0  0  0  0  0
    0.8741   -3.4089    4.5541 C   0  0  0  0  0  0  0  0  0  0  0  0
   -0.3753   -3.6081    5.1077 N   0  0  0  0  0  0  0  0  0  0  0  0
    4.5309    1.0683    2.1745 C   0  0  0  0  0  0  0  0  0  0  0  0
    3.3755    2.1313    3.1147 O   0  0  0  0  0  0  0  0  0  0  0  0
    3.3329    2.7986    5.0161 P   0  0  1  0  0  0  0  0  0  0  0  0
    3.0943    4.2569    5.1882 O   0  0  0  0  0  0  0  0  0  0  0  0
    3.6826    1.4423    5.8156 O   0  0  0  0  0  0  0  0  0  0  0  0
    2.7934    0.3295    4.8338 P   0  0  1  0  0  0  0  0  0  0  0  0
    1.5535    1.1999    4.9334 O   0  0  0  0  0  0  0  0  0  0  0  0
    4.3178    0.5847    4.0945 O   0  0  0  0  0  0  0  0  0  0  0  0
    5.3763    2.0635    3.8775 C   0  0  0  0  0  0  0  0  0  0  0  0
    5.5318    3.1342    2.5249 C   0  0  1  0  0  0  0  0  0  0  0  0
    6.3820    2.6486    2.0301 H   0  0  0  0  0  0  0  0  0  0  0  0
    4.3487    3.4465    1.6593 O   0  0  0  0  0  0  0  0  0  0  0  0
    4.7949    4.1570    0.5166 C   0  0  2  0  0  0  0  0  0  0  0  0
    5.3911    3.4765   -0.1087 H   0  0  0  0  0  0  0  0  0  0  0  0
    5.5915    5.1792    1.4232 C   0  0  1  0  0  0  0  0  0  0  0  0
    4.8504    5.9597    1.6356 H   0  0  0  0  0  0  0  0  0  0  0  0
    5.9160    4.5256    2.8286 C   0  0  2  0  0  0  0  0  0  0  0  0
    5.2941    5.0192    3.5837 H   0  0  0  0  0  0  0  0  0  0  0  0
    7.1526    4.1970    3.4033 O   0  0  0  0  0  0  0  0  0  0  0  0
    6.6768    5.7318    0.7628 O   0  0  0  0  0  0  0  0  0  0  0  0
    8.0295    6.1727    1.4758 P   0  0  0  0  0  0  0  0  0  0  0  0
    8.9178    5.0753    1.9399 O   0  0  0  0  0  0  0  0  0  0  0  0
    8.5539    7.0384    0.2682 O   0  0  0  0  0  0  0  0  0  0  0  0
    7.6146    7.1845    2.6331 O   0  0  0  0  0  0  0  0  0  0  0  0
    3.7049    4.6653   -0.4202 N   0  0  0  0  0  0  0  0  0  0  0  0
    3.7078    5.9865   -0.8355 C   0  0  0  0  0  0  0  0  0  0  0  0
    2.7843    6.2876   -1.7223 N   0  0  0  0  0  0  0  0  0  0  0  0
    2.1212    5.1146   -1.9715 C   0  0  0  0  0  0  0  0  0  0  0  0
    2.7358    4.0777   -1.2952 C   0  0  0  0  0  0  0  0  0  0  0  0
    2.3915    2.7945   -1.5562 N   0  0  0  0  0  0  0  0  0  0  0  0
    1.2143    2.6158   -2.1816 C   0  0  0  0  0  0  0  0  0  0  0  0
    0.5354    3.5392   -2.8494 N   0  0  0  0  0  0  0  0  0  0  0  0
    1.0369    4.7885   -2.8264 C   0  0  0  0  0  0  0  0  0  0  0  0
    0.4469    5.7010   -3.6626 N   0  0  0  0  0  0  0  0  0  0  0  0
    1.9043   -0.7834    3.8521 O   0  0  0  0  0  0  0  0  0  0  0  0
    4.8784    3.0607    5.7911 O   0  0  0  0  0  0  0  0  0  0  0  0
    3.8041    0.1143   -1.3967 H   0  0  0  0  0  0  0  0  0  0  0  0
    3.2541    2.0535   -0.5242 H   0  0  0  0  0  0  0  0  0  0  0  0
    0.3280   -1.9482    0.3125 H   0  0  0  0  0  0  0  0  0  0  0  0
    3.9140   -2.7067    5.5800 H   0  0  0  0  0  0  0  0  0  0  0  0
   -0.4091   -4.0081    6.0330 H   0  0  0  0  0  0  0  0  0  0  0  0
   -1.1366   -3.7660    4.4563 H   0  0  0  0  0  0  0  0  0  0  0  0
    5.3879    0.5238    2.6448 H   0  0  0  0  0  0  0  0  0  0  0  0
    5.0940    1.6714    1.4742 H   0  0  0  0  0  0  0  0  0  0  0  0
    6.2095    1.8950    4.5280 H   0  0  0  0  0  0  0  0  0  0  0  0
    4.8468    2.9774    4.0218 H   0  0  0  0  0  0  0  0  0  0  0  0
    7.8555    4.8398    3.2977 H   0  0  0  0  0  0  0  0  0  0  0  0
    7.9317    6.8138   -0.4549 H   0  0  0  0  0  0  0  0  0  0  0  0
    8.2709    7.1787    3.3653 H   0  0  0  0  0  0  0  0  0  0  0  0
    4.4340    6.6866   -0.4590 H   0  0  0  0  0  0  0  0  0  0  0  0
    0.7765    1.6156   -2.1448 H   0  0  0  0  0  0  0  0  0  0  0  0
   -0.3213    5.3887   -4.2348 H   0  0  0  0  0  0  0  0  0  0  0  0
    0.7939    6.6457   -3.6484 H   0  0  0  0  0  0  0  0  0  0  0  0
    1.2398   -1.1115    4.4926 H   0  0  0  0  0  0  0  0  0  0  0  0
    5.2817    3.9467    5.7466 H   0  0  0  0  0  0  0  0  0  0  0  0
  1 58  1  0  0  0  0
  2  4  1  0  0  0  0
  2 10  1  0  0  0  0
  2  3  1  6  0  0  0
  2  1  1  0  0  0  0
  4  7  1  0  0  0  0
  4  6  1  0  0  0  0
  4  5  1  1  0  0  0
  6 59  1  0  0  0  0
  7  9  1  0  0  0  0
  7 22  1  0  0  0  0
  7  8  1  6  0  0  0
  9 10  1  0  0  0  0
 10 12  1  0  0  0  0
 10 11  1  6  0  0  0
 12 13  1  0  0  0  0
 12 16  1  0  0  0  0
 13 14  2  0  0  0  0
 13 60  1  0  0  0  0
 14 15  1  0  0  0  0
 15 16  2  0  0  0  0
 15 20  1  0  0  0  0
 16 17  1  0  0  0  0
 17 18  2  0  0  0  0
 18 19  1  0  0  0  0
 18 61  1  0  0  0  0
 19 20  2  0  0  0  0
 20 21  1  0  0  0  0
 21 62  1  0  0  0  0
 21 63  1  0  0  0  0
 22 23  1  0  0  0  0
 22 64  1  0  0  0  0
 22 65  1  0  0  0  0
 24 23  1  6  0  0  0
 24 25  2  0  0  0  0
 24 26  1  0  0  0  0
 24 57  1  0  0  0  0
 27 26  1  1  0  0  0
 27 28  2  0  0  0  0
 27 29  1  0  0  0  0
 27 56  1  0  0  0  0
 29 30  1  0  0  0  0
 30 31  1  0  0  0  0
 30 66  1  0  0  0  0
 30 67  1  0  0  0  0
 31 32  1  6  0  0  0
 31 33  1  0  0  0  0
 31 38  1  0  0  0  0
 33 34  1  0  0  0  0
 34 36  1  0  0  0  0
 34 46  1  0  0  0  0
 34 35  1  6  0  0  0
 36 37  1  1  0  0  0
 36 38  1  0  0  0  0
 36 41  1  0  0  0  0
 38 39  1  1  0  0  0
 38 40  1  0  0  0  0
 40 68  1  0  0  0  0
 41 42  1  0  0  0  0
 42 43  2  0  0  0  0
 42 44  1  0  0  0  0
 42 45  1  0  0  0  0
 44 69  1  0  0  0  0
 45 70  1  0  0  0  0
 46 47  1  0  0  0  0
 46 50  1  0  0  0  0
 47 48  2  0  0  0  0
 47 71  1  0  0  0  0
 48 49  1  0  0  0  0
 49 50  2  0  0  0  0
 49 54  1  0  0  0  0
 50 51  1  0  0  0  0
 51 52  2  0  0  0  0
 52 53  1  0  0  0  0
 52 72  1  0  0  0  0
 53 54  2  0  0  0  0
 54 55  1  0  0  0  0
 55 73  1  0  0  0  0
 55 74  1  0  0  0  0
 56 75  1  0  0  0  0
 57 76  1  0  0  0  0
M  END
$$$$
