A26
 OpenBabel04121316073D

 28 28  0  0  0  0  0  0  0  0999 V2000
    0.9264   -0.0609    0.0295 N   0  0  0  0  0  0  0  0  0  0  0  0
    2.0774   -0.0609    0.0295 C   0  0  0  0  0  0  0  0  0  0  0  0
    3.4834   -0.0609    0.0295 C   0  0  0  0  0  0  0  0  0  0  0  0
    4.0877   -0.7515    1.0451 C   0  0  0  0  0  0  0  0  0  0  0  0
    5.4305   -0.9492    1.2842 O   0  0  0  0  0  0  0  0  0  0  0  0
    3.3272   -1.4694    2.1357 C   0  0  0  0  0  0  0  0  0  0  0  0
    4.1855    0.7062   -1.0425 C   0  0  0  0  0  0  0  0  0  0  0  0
    3.5003    1.2887   -1.8984 O   0  0  0  0  0  0  0  0  0  0  0  0
    5.5784    0.7317   -1.0560 N   0  0  0  0  0  0  0  0  0  0  0  0
    6.2383    1.4138   -2.0778 C   0  0  0  0  0  0  0  0  0  0  0  0
    6.1822    2.7995   -2.0802 C   0  0  0  0  0  0  0  0  0  0  0  0
    6.6267    3.4742   -3.1986 C   0  0  0  0  0  0  0  0  0  0  0  0
    7.2178    2.7642   -4.2559 C   0  0  0  0  0  0  0  0  0  0  0  0
    7.4453    1.3830   -4.1404 C   0  0  0  0  0  0  0  0  0  0  0  0
    6.9222    0.6937   -3.0562 C   0  0  0  0  0  0  0  0  0  0  0  0
    7.5260    3.4969   -5.5288 C   0  0  0  0  0  0  0  0  0  0  0  0
    6.4055    4.0286   -6.0910 F   0  0  0  0  0  0  0  0  0  0  0  0
    8.3812    4.5343   -5.3315 F   0  0  0  0  0  0  0  0  0  0  0  0
    8.0890    2.7098   -6.4845 F   0  0  0  0  0  0  0  0  0  0  0  0
    6.0216   -0.3436    0.8351 H   0  0  0  0  0  0  0  0  0  0  0  0
    2.2421   -1.4119    2.0575 H   0  0  0  0  0  0  0  0  0  0  0  0
    3.6125   -1.0424    3.1040 H   0  0  0  0  0  0  0  0  0  0  0  0
    3.6099   -2.5266    2.1258 H   0  0  0  0  0  0  0  0  0  0  0  0
    6.1295   -0.0355   -0.7244 H   0  0  0  0  0  0  0  0  0  0  0  0
    5.7689    3.3357   -1.2310 H   0  0  0  0  0  0  0  0  0  0  0  0
    6.4660    4.5476   -3.2653 H   0  0  0  0  0  0  0  0  0  0  0  0
    7.9696    0.8376   -4.9237 H   0  0  0  0  0  0  0  0  0  0  0  0
    6.9725   -0.3924   -3.0332 H   0  0  0  0  0  0  0  0  0  0  0  0
  1  2  3  0  0  0  0
  2  3  1  0  0  0  0
  3  4  2  0  0  0  0
  3  7  1  0  0  0  0
  4  5  1  0  0  0  0
  4  6  1  0  0  0  0
  5 20  1  0  0  0  0
  6 21  1  0  0  0  0
  6 22  1  0  0  0  0
  6 23  1  0  0  0  0
  7  8  2  0  0  0  0
  7  9  1  0  0  0  0
  9 10  1  0  0  0  0
  9 24  1  0  0  0  0
 10 11  2  0  0  0  0
 10 15  1  0  0  0  0
 11 12  1  0  0  0  0
 11 25  1  0  0  0  0
 12 13  2  0  0  0  0
 12 26  1  0  0  0  0
 13 14  1  0  0  0  0
 13 16  1  0  0  0  0
 14 15  2  0  0  0  0
 14 27  1  0  0  0  0
 15 28  1  0  0  0  0
 16 17  1  0  0  0  0
 16 18  1  0  0  0  0
 16 19  1  0  0  0  0
M  END
$$$$
