A28
 OpenBabel04121316073D

 38 40  0  0  0  0  0  0  0  0999 V2000
    1.0230   -0.0909    0.0163 C   0  0  0  0  0  0  0  0  0  0  0  0
    2.5397   -0.0915    0.0073 C   0  0  0  0  0  0  0  0  0  0  0  0
    3.1273   -0.4040   -1.3728 C   0  0  0  0  0  0  0  0  0  0  0  0
    4.6507   -0.4031   -1.2984 C   0  0  0  0  0  0  0  0  0  0  0  0
    5.2461   -0.2149   -0.2467 O   0  0  0  0  0  0  0  0  0  0  0  0
    5.2767   -0.6754   -2.4995 N   0  0  0  0  0  0  0  0  0  0  0  0
    6.6547   -0.6699   -2.5477 C   0  0  0  0  0  0  0  0  0  0  0  0
    7.3780    0.3873   -2.9284 N   0  0  0  0  0  0  0  0  0  0  0  0
    8.6527   -0.0135   -2.7341 N   0  0  0  0  0  0  0  0  0  0  0  0
    9.4089    0.6480   -2.8778 H   0  0  0  0  0  0  0  0  0  0  0  0
    8.7700   -1.3260   -2.3838 C   0  0  0  0  0  0  0  0  0  0  0  0
    7.4733   -1.7911   -2.2553 C   0  0  0  0  0  0  0  0  0  0  0  0
    7.2622   -3.1408   -1.9124 C   0  0  0  0  0  0  0  0  0  0  0  0
    8.3580   -4.0061   -1.6739 C   0  0  0  0  0  0  0  0  0  0  0  0
    8.1318   -5.4398   -1.3621 C   0  0  0  0  0  0  0  0  0  0  0  0
    9.1075   -6.4121   -1.6485 C   0  0  0  0  0  0  0  0  0  0  0  0
    8.8590   -7.7743   -1.4982 C   0  0  0  0  0  0  0  0  0  0  0  0
    7.6502   -8.2008   -0.9699 C   0  0  0  0  0  0  0  0  0  0  0  0
    6.7015   -7.2636   -0.5771 C   0  0  0  0  0  0  0  0  0  0  0  0
    6.9230   -5.9029   -0.8079 C   0  0  0  0  0  0  0  0  0  0  0  0
    9.6514   -3.4564   -1.7923 C   0  0  0  0  0  0  0  0  0  0  0  0
    9.8739   -2.1312   -2.1586 C   0  0  0  0  0  0  0  0  0  0  0  0
   11.1202   -1.6604   -2.2914 F   0  0  0  0  0  0  0  0  0  0  0  0
   10.7433   -4.1985   -1.5477 F   0  0  0  0  0  0  0  0  0  0  0  0
    0.6550    0.1380    1.0224 H   0  0  0  0  0  0  0  0  0  0  0  0
    0.6290   -1.0693   -0.2739 H   0  0  0  0  0  0  0  0  0  0  0  0
    0.6276    0.6640   -0.6694 H   0  0  0  0  0  0  0  0  0  0  0  0
    2.8985   -0.8285    0.7370 H   0  0  0  0  0  0  0  0  0  0  0  0
    2.8995    0.8874    0.3479 H   0  0  0  0  0  0  0  0  0  0  0  0
    2.7926    0.3418   -2.1027 H   0  0  0  0  0  0  0  0  0  0  0  0
    2.7885   -1.3914   -1.7078 H   0  0  0  0  0  0  0  0  0  0  0  0
    4.7821   -0.7159   -3.3764 H   0  0  0  0  0  0  0  0  0  0  0  0
    6.2353   -3.4913   -1.8610 H   0  0  0  0  0  0  0  0  0  0  0  0
   10.0904   -6.1390   -2.0207 H   0  0  0  0  0  0  0  0  0  0  0  0
    9.6202   -8.4885   -1.7986 H   0  0  0  0  0  0  0  0  0  0  0  0
    7.4551   -9.2621   -0.8570 H   0  0  0  0  0  0  0  0  0  0  0  0
    5.7828   -7.5873   -0.0960 H   0  0  0  0  0  0  0  0  0  0  0  0
    6.1251   -5.2145   -0.5383 H   0  0  0  0  0  0  0  0  0  0  0  0
  1  2  1  0  0  0  0
  1 25  1  0  0  0  0
  1 26  1  0  0  0  0
  1 27  1  0  0  0  0
  2  3  1  0  0  0  0
  2 28  1  0  0  0  0
  2 29  1  0  0  0  0
  3  4  1  0  0  0  0
  3 30  1  0  0  0  0
  3 31  1  0  0  0  0
  4  5  2  0  0  0  0
  4  6  1  0  0  0  0
  6  7  1  0  0  0  0
  6 32  1  0  0  0  0
  7  8  2  0  0  0  0
  7 12  1  0  0  0  0
  8  9  1  0  0  0  0
  9 10  1  0  0  0  0
  9 11  1  0  0  0  0
 11 12  2  0  0  0  0
 11 22  1  0  0  0  0
 12 13  1  0  0  0  0
 13 14  2  0  0  0  0
 13 33  1  0  0  0  0
 14 15  1  0  0  0  0
 14 21  1  0  0  0  0
 15 16  2  0  0  0  0
 15 20  1  0  0  0  0
 16 17  1  0  0  0  0
 16 34  1  0  0  0  0
 17 18  2  0  0  0  0
 17 35  1  0  0  0  0
 18 19  1  0  0  0  0
 18 36  1  0  0  0  0
 19 20  2  0  0  0  0
 19 37  1  0  0  0  0
 20 38  1  0  0  0  0
 21 22  2  0  0  0  0
 21 24  1  0  0  0  0
 22 23  1  0  0  0  0
M  END
$$$$
