A2E
 OpenBabel04121316073D

 81 85  0  0  1  0  0  0  0  0999 V2000
    0.8516   -0.2729    0.0672 O   0  0  0  0  0  0  0  0  0  0  0  0
    2.0807   -0.2286    0.0246 C   0  0  0  0  0  0  0  0  0  0  0  0
    2.7699    1.0569   -0.1323 C   0  0  0  0  0  0  0  0  0  0  0  0
    4.0883    1.0367   -0.3296 C   0  0  0  0  0  0  0  0  0  0  0  0
    4.9102   -0.1420   -0.0879 C   0  0  0  0  0  0  0  0  0  0  0  0
    4.2646   -1.3217    0.0193 C   0  0  0  0  0  0  0  0  0  0  0  0
    2.8818   -1.3437    0.0504 N   0  0  0  0  0  0  0  0  0  0  0  0
    2.3884   -2.2238    0.1150 H   0  0  0  0  0  0  0  0  0  0  0  0
    4.9814   -2.6446    0.0895 C   0  0  0  0  0  0  0  0  0  0  0  0
    6.4476   -2.5195   -0.3327 C   0  0  0  0  0  0  0  0  0  0  0  0
    7.0917   -1.3600    0.4167 C   0  0  0  0  0  0  0  0  0  0  0  0
    6.4436   -0.0107    0.0077 C   0  0  2  0  0  0  0  0  0  0  0  0
    6.8070    0.2353   -1.0004 H   0  0  0  0  0  0  0  0  0  0  0  0
    7.0068    0.9909    0.9474 N   0  0  0  0  0  0  0  0  0  0  0  0
    6.2257    2.2057    1.0603 C   0  0  0  0  0  0  0  0  0  0  0  0
    6.7872    3.2713    1.9549 C   0  0  0  0  0  0  0  0  0  0  0  0
    5.7697    4.4130    2.0180 C   0  0  0  0  0  0  0  0  0  0  0  0
    6.3432    5.5012    2.8917 C   0  0  0  0  0  0  0  0  0  0  0  0
    5.3867    6.6682    2.9989 C   0  0  0  0  0  0  0  0  0  0  0  0
    6.0101    7.7304    3.8822 C   0  0  0  0  0  0  0  0  0  0  0  0
    5.0701    8.9097    4.0049 C   0  0  0  0  0  0  0  0  0  0  0  0
    5.6954    9.9669    4.8899 C   0  0  0  0  0  0  0  0  0  0  0  0
    4.7503   11.1421    5.0152 C   0  0  0  0  0  0  0  0  0  0  0  0
    5.3679   12.1924    5.9076 C   0  0  0  0  0  0  0  0  0  0  0  0
    4.4621   13.3084    5.9758 N   0  0  0  0  0  0  0  0  0  0  0  0
    4.8461   14.3853    6.7601 C   0  0  0  0  0  0  0  0  0  0  0  0
    5.6527   15.3693    6.1968 C   0  0  0  0  0  0  0  0  0  0  0  0
    6.1158   15.1946    4.7746 C   0  0  0  0  0  0  0  0  0  0  0  0
    6.6561   16.4730    4.1762 C   0  0  0  0  0  0  0  0  0  0  0  0
    7.6715   17.0592    5.1461 C   0  0  0  0  0  0  0  0  0  0  0  0
    6.9566   17.5074    6.4276 C   0  0  0  0  0  0  0  0  0  0  0  0
    6.0526   16.4351    6.9993 C   0  0  0  0  0  0  0  0  0  0  0  0
    5.6318   16.5822    8.2864 N   0  0  0  0  0  0  0  0  0  0  0  0
    4.8084   15.6421    8.8134 C   0  0  0  0  0  0  0  0  0  0  0  0
    4.3841   14.5263    8.0698 C   0  0  0  0  0  0  0  0  0  0  0  0
    3.5368   13.5525    8.6315 C   0  0  0  0  0  0  0  0  0  0  0  0
    3.1027   13.6566    9.9396 C   0  0  0  0  0  0  0  0  0  0  0  0
    3.5084   14.7480   10.6921 C   0  0  0  0  0  0  0  0  0  0  0  0
    4.3471   15.7255   10.1284 C   0  0  0  0  0  0  0  0  0  0  0  0
    2.1953    1.9707   -0.1839 H   0  0  0  0  0  0  0  0  0  0  0  0
    4.5381    1.9713   -0.6216 H   0  0  0  0  0  0  0  0  0  0  0  0
    4.4902   -3.3756   -0.5630 H   0  0  0  0  0  0  0  0  0  0  0  0
    4.9263   -3.0310    1.1149 H   0  0  0  0  0  0  0  0  0  0  0  0
    6.5176   -2.3416   -1.4136 H   0  0  0  0  0  0  0  0  0  0  0  0
    6.9801   -3.4541   -0.1251 H   0  0  0  0  0  0  0  0  0  0  0  0
    8.1731   -1.3420    0.2305 H   0  0  0  0  0  0  0  0  0  0  0  0
    6.9649   -1.5348    1.4961 H   0  0  0  0  0  0  0  0  0  0  0  0
    7.1085    0.5822    1.8737 H   0  0  0  0  0  0  0  0  0  0  0  0
    5.2563    1.9600    1.5064 H   0  0  0  0  0  0  0  0  0  0  0  0
    6.1373    2.6729    0.0752 H   0  0  0  0  0  0  0  0  0  0  0  0
    7.7352    3.6310    1.5444 H   0  0  0  0  0  0  0  0  0  0  0  0
    6.9606    2.8686    2.9574 H   0  0  0  0  0  0  0  0  0  0  0  0
    4.8105    4.0641    2.4272 H   0  0  0  0  0  0  0  0  0  0  0  0
    5.5527    4.8045    1.0141 H   0  0  0  0  0  0  0  0  0  0  0  0
    7.2972    5.8377    2.4691 H   0  0  0  0  0  0  0  0  0  0  0  0
    6.5494    5.0939    3.8885 H   0  0  0  0  0  0  0  0  0  0  0  0
    4.4309    6.3378    3.4235 H   0  0  0  0  0  0  0  0  0  0  0  0
    5.1777    7.0801    2.0040 H   0  0  0  0  0  0  0  0  0  0  0  0
    6.9679    8.0563    3.4573 H   0  0  0  0  0  0  0  0  0  0  0  0
    6.2220    7.3146    4.8754 H   0  0  0  0  0  0  0  0  0  0  0  0
    4.1133    8.5837    4.4306 H   0  0  0  0  0  0  0  0  0  0  0  0
    4.8607    9.3273    3.0125 H   0  0  0  0  0  0  0  0  0  0  0  0
    6.6515   10.2966    4.4640 H   0  0  0  0  0  0  0  0  0  0  0  0
    5.9088    9.5506    5.8822 H   0  0  0  0  0  0  0  0  0  0  0  0
    3.7892   10.8183    5.4332 H   0  0  0  0  0  0  0  0  0  0  0  0
    4.5421   11.5673    4.0247 H   0  0  0  0  0  0  0  0  0  0  0  0
    6.3349   12.4960    5.4920 H   0  0  0  0  0  0  0  0  0  0  0  0
    5.5619   11.7824    6.9061 H   0  0  0  0  0  0  0  0  0  0  0  0
    3.5460   13.3049    5.5472 H   0  0  0  0  0  0  0  0  0  0  0  0
    5.2933   14.8343    4.1452 H   0  0  0  0  0  0  0  0  0  0  0  0
    6.9081   14.4363    4.7614 H   0  0  0  0  0  0  0  0  0  0  0  0
    5.8333   17.1782    4.0073 H   0  0  0  0  0  0  0  0  0  0  0  0
    7.1096   16.2516    3.2049 H   0  0  0  0  0  0  0  0  0  0  0  0
    8.1926   17.8991    4.6787 H   0  0  0  0  0  0  0  0  0  0  0  0
    8.4281   16.2997    5.3888 H   0  0  0  0  0  0  0  0  0  0  0  0
    6.3425   18.3875    6.2014 H   0  0  0  0  0  0  0  0  0  0  0  0
    7.7036   17.8027    7.1720 H   0  0  0  0  0  0  0  0  0  0  0  0
    3.2237   12.6961    8.0389 H   0  0  0  0  0  0  0  0  0  0  0  0
    2.4604   12.8856   10.3534 H   0  0  0  0  0  0  0  0  0  0  0  0
    3.1737   14.8381   11.7212 H   0  0  0  0  0  0  0  0  0  0  0  0
    4.6522   16.5709   10.7403 H   0  0  0  0  0  0  0  0  0  0  0  0
  1  2  2  0  0  0  0
  2  3  1  0  0  0  0
  2  7  1  0  0  0  0
  3  4  2  0  0  0  0
  3 40  1  0  0  0  0
  4  5  1  0  0  0  0
  4 41  1  0  0  0  0
  5  6  2  0  0  0  0
  5 12  1  0  0  0  0
  6  7  1  0  0  0  0
  6  9  1  0  0  0  0
  7  8  1  0  0  0  0
  9 10  1  0  0  0  0
  9 42  1  0  0  0  0
  9 43  1  0  0  0  0
 10 11  1  0  0  0  0
 10 44  1  0  0  0  0
 10 45  1  0  0  0  0
 11 12  1  0  0  0  0
 11 46  1  0  0  0  0
 11 47  1  0  0  0  0
 12 14  1  0  0  0  0
 12 13  1  6  0  0  0
 14 15  1  0  0  0  0
 14 48  1  0  0  0  0
 15 16  1  0  0  0  0
 15 49  1  0  0  0  0
 15 50  1  0  0  0  0
 16 17  1  0  0  0  0
 16 51  1  0  0  0  0
 16 52  1  0  0  0  0
 17 18  1  0  0  0  0
 17 53  1  0  0  0  0
 17 54  1  0  0  0  0
 18 19  1  0  0  0  0
 18 55  1  0  0  0  0
 18 56  1  0  0  0  0
 19 20  1  0  0  0  0
 19 57  1  0  0  0  0
 19 58  1  0  0  0  0
 20 21  1  0  0  0  0
 20 59  1  0  0  0  0
 20 60  1  0  0  0  0
 21 22  1  0  0  0  0
 21 61  1  0  0  0  0
 21 62  1  0  0  0  0
 22 23  1  0  0  0  0
 22 63  1  0  0  0  0
 22 64  1  0  0  0  0
 23 24  1  0  0  0  0
 23 65  1  0  0  0  0
 23 66  1  0  0  0  0
 24 25  1  0  0  0  0
 24 67  1  0  0  0  0
 24 68  1  0  0  0  0
 25 26  1  0  0  0  0
 25 69  1  0  0  0  0
 26 27  2  0  0  0  0
 26 35  1  0  0  0  0
 27 28  1  0  0  0  0
 27 32  1  0  0  0  0
 28 29  1  0  0  0  0
 28 70  1  0  0  0  0
 28 71  1  0  0  0  0
 29 30  1  0  0  0  0
 29 72  1  0  0  0  0
 29 73  1  0  0  0  0
 30 31  1  0  0  0  0
 30 74  1  0  0  0  0
 30 75  1  0  0  0  0
 31 32  1  0  0  0  0
 31 76  1  0  0  0  0
 31 77  1  0  0  0  0
 32 33  2  0  0  0  0
 33 34  1  0  0  0  0
 34 35  2  0  0  0  0
 34 39  1  0  0  0  0
 35 36  1  0  0  0  0
 36 37  2  0  0  0  0
 36 78  1  0  0  0  0
 37 38  1  0  0  0  0
 37 79  1  0  0  0  0
 38 39  2  0  0  0  0
 38 80  1  0  0  0  0
 39 81  1  0  0  0  0
M  END
$$$$
