A2F
 OpenBabel04121316073D

 15 16  0  0  0  0  0  0  0  0999 V2000
    1.0693    0.0912   -0.0560 F   0  0  0  0  0  0  0  0  0  0  0  0
    2.4122    0.0951   -0.0605 C   0  0  0  0  0  0  0  0  0  0  0  0
    3.0065   -1.1214   -0.0640 N   0  0  0  0  0  0  0  0  0  0  0  0
    4.3445   -1.1793   -0.0698 C   0  0  0  0  0  0  0  0  0  0  0  0
    4.9733   -2.3974   -0.0721 N   0  0  0  0  0  0  0  0  0  0  0  0
    5.0236    0.0158   -0.0723 C   0  0  0  0  0  0  0  0  0  0  0  0
    4.3370    1.2148   -0.0680 C   0  0  0  0  0  0  0  0  0  0  0  0
    2.9994    1.2997   -0.0619 N   0  0  0  0  0  0  0  0  0  0  0  0
    5.2081    2.2729   -0.0711 N   0  0  0  0  0  0  0  0  0  0  0  0
    6.4068    1.7314   -0.0772 C   0  0  0  0  0  0  0  0  0  0  0  0
    6.3426    0.3668   -0.0778 N   0  0  0  0  0  0  0  0  0  0  0  0
    7.1271   -0.2700   -0.0817 H   0  0  0  0  0  0  0  0  0  0  0  0
    4.3827   -3.2177   -0.0787 H   0  0  0  0  0  0  0  0  0  0  0  0
    5.9724   -2.4982   -0.0899 H   0  0  0  0  0  0  0  0  0  0  0  0
    7.3474    2.2659   -0.0812 H   0  0  0  0  0  0  0  0  0  0  0  0
  1  2  1  0  0  0  0
  2  3  2  0  0  0  0
  2  8  1  0  0  0  0
  3  4  1  0  0  0  0
  4  5  1  0  0  0  0
  4  6  2  0  0  0  0
  5 13  1  0  0  0  0
  5 14  1  0  0  0  0
  6  7  1  0  0  0  0
  6 11  1  0  0  0  0
  7  8  2  0  0  0  0
  7  9  1  0  0  0  0
  9 10  2  0  0  0  0
 10 11  1  0  0  0  0
 10 15  1  0  0  0  0
 11 12  1  0  0  0  0
M  END
$$$$
