A32
 OpenBabel04121316073D

 62 64  0  0  1  0  0  0  0  0999 V2000
    0.8870    0.0746   -0.1499 O   0  0  0  0  0  0  0  0  0  0  0  0
    2.2992   -0.0063   -0.2577 C   0  0  0  0  0  0  0  0  0  0  0  0
    2.9850    1.3333   -0.6464 C   0  0  1  0  0  0  0  0  0  0  0  0
    3.7135    1.0601   -1.4212 H   0  0  0  0  0  0  0  0  0  0  0  0
    2.1601    2.3428   -1.2654 O   0  0  0  0  0  0  0  0  0  0  0  0
    1.3055    3.1009   -0.3901 C   0  0  2  0  0  0  0  0  0  0  0  0
    0.5145    2.4239   -0.0667 H   0  0  0  0  0  0  0  0  0  0  0  0
    0.7010    4.1955   -1.1253 O   0  0  0  0  0  0  0  0  0  0  0  0
   -0.1998    4.9249   -0.3907 C   0  0  0  0  0  0  0  0  0  0  0  0
   -1.2257    4.3407    0.3465 C   0  0  0  0  0  0  0  0  0  0  0  0
   -2.0674    5.1352    1.1307 C   0  0  0  0  0  0  0  0  0  0  0  0
   -1.8869    6.5222    1.1660 C   0  0  0  0  0  0  0  0  0  0  0  0
   -0.8674    7.1005    0.4076 C   0  0  0  0  0  0  0  0  0  0  0  0
   -0.0268    6.3095   -0.3813 C   0  0  0  0  0  0  0  0  0  0  0  0
   -0.6785    8.5541    0.4592 N   0  3  0  0  0  0  0  0  0  0  0  0
   -1.4645    9.2065    1.1665 O   0  0  0  0  0  0  0  0  0  0  0  0
    0.2488    9.0388   -0.1958 O   0  5  0  0  0  0  0  0  0  0  0  0
   -3.1088    4.4370    1.9147 C   0  0  0  0  0  0  0  0  0  0  0  0
   -3.2276    3.2105    1.8487 O   0  0  0  0  0  0  0  0  0  0  0  0
   -3.9037    5.2038    2.7092 N   0  0  0  0  0  0  0  0  0  0  0  0
   -4.9308    4.5836    3.5004 C   0  0  0  0  0  0  0  0  0  0  0  0
   -5.6592    5.6732    4.2283 C   0  0  0  0  0  0  0  0  0  0  0  0
   -6.8137    5.1512    5.0485 C   0  0  0  0  0  0  0  0  0  0  0  0
   -7.7544    6.1556    5.5871 N   0  0  0  0  0  0  0  0  0  0  0  0
   -7.4810    7.5869    5.2924 C   0  0  0  0  0  0  0  0  0  0  0  0
   -7.6900    8.0241    3.8229 C   0  0  0  0  0  0  0  0  0  0  0  0
   -8.9335    7.5561    3.2854 O   0  0  0  0  0  0  0  0  0  0  0  0
   -9.1436    6.1575    3.5350 C   0  0  0  0  0  0  0  0  0  0  0  0
   -9.0978    5.8541    5.0448 C   0  0  0  0  0  0  0  0  0  0  0  0
    2.0842    3.6829    0.8230 C   0  0  1  0  0  0  0  0  0  0  0  0
    1.3935    4.1641    1.5227 H   0  0  0  0  0  0  0  0  0  0  0  0
    2.8264    2.5655    1.5407 C   0  0  2  0  0  0  0  0  0  0  0  0
    3.4090    2.9748    2.3714 H   0  0  0  0  0  0  0  0  0  0  0  0
    3.7839    1.8890    0.5471 C   0  0  1  0  0  0  0  0  0  0  0  0
    4.4984    2.6323    0.1748 H   0  0  0  0  0  0  0  0  0  0  0  0
    4.5630    0.8673    1.1812 O   0  0  0  0  0  0  0  0  0  0  0  0
    1.9107    1.6286    2.1340 O   0  0  0  0  0  0  0  0  0  0  0  0
    3.0226    4.6965    0.4212 O   0  0  0  0  0  0  0  0  0  0  0  0
    0.5951   -0.8000    0.1743 H   0  0  0  0  0  0  0  0  0  0  0  0
    2.5969   -0.8087   -0.9400 H   0  0  0  0  0  0  0  0  0  0  0  0
    2.6281   -0.3542    0.7241 H   0  0  0  0  0  0  0  0  0  0  0  0
   -1.3869    3.2640    0.3336 H   0  0  0  0  0  0  0  0  0  0  0  0
   -2.5195    7.1654    1.7670 H   0  0  0  0  0  0  0  0  0  0  0  0
    0.7781    6.7520   -0.9618 H   0  0  0  0  0  0  0  0  0  0  0  0
   -3.8662    6.2138    2.6999 H   0  0  0  0  0  0  0  0  0  0  0  0
   -4.4846    3.8517    4.1742 H   0  0  0  0  0  0  0  0  0  0  0  0
   -5.6114    4.0733    2.8060 H   0  0  0  0  0  0  0  0  0  0  0  0
   -6.0274    6.2547    3.3968 H   0  0  0  0  0  0  0  0  0  0  0  0
   -4.9901    6.3088    4.8183 H   0  0  0  0  0  0  0  0  0  0  0  0
   -6.4368    4.5412    5.8763 H   0  0  0  0  0  0  0  0  0  0  0  0
   -7.3441    4.4238    4.4178 H   0  0  0  0  0  0  0  0  0  0  0  0
   -6.4935    7.8874    5.6637 H   0  0  0  0  0  0  0  0  0  0  0  0
   -8.1921    8.1769    5.8898 H   0  0  0  0  0  0  0  0  0  0  0  0
   -6.8942    7.7292    3.1444 H   0  0  0  0  0  0  0  0  0  0  0  0
   -7.6620    9.1152    3.7513 H   0  0  0  0  0  0  0  0  0  0  0  0
   -8.4050    5.5747    2.9682 H   0  0  0  0  0  0  0  0  0  0  0  0
  -10.1215    5.8800    3.1359 H   0  0  0  0  0  0  0  0  0  0  0  0
   -9.3479    4.8055    5.2515 H   0  0  0  0  0  0  0  0  0  0  0  0
   -9.8447    6.4575    5.5745 H   0  0  0  0  0  0  0  0  0  0  0  0
    4.0005    0.4355    1.8517 H   0  0  0  0  0  0  0  0  0  0  0  0
    1.2834    1.2899    1.4621 H   0  0  0  0  0  0  0  0  0  0  0  0
    2.5618    5.2869   -0.2028 H   0  0  0  0  0  0  0  0  0  0  0  0
  1  2  1  0  0  0  0
  1 39  1  0  0  0  0
  2  3  1  0  0  0  0
  2 40  1  0  0  0  0
  2 41  1  0  0  0  0
  3  4  1  6  0  0  0
  3  5  1  0  0  0  0
  3 34  1  0  0  0  0
  5  6  1  0  0  0  0
  6  7  1  1  0  0  0
  6  8  1  0  0  0  0
  6 30  1  0  0  0  0
  8  9  1  0  0  0  0
  9 10  2  0  0  0  0
  9 14  1  0  0  0  0
 10 11  1  0  0  0  0
 10 42  1  0  0  0  0
 11 12  2  0  0  0  0
 11 18  1  0  0  0  0
 12 13  1  0  0  0  0
 12 43  1  0  0  0  0
 13 14  2  0  0  0  0
 13 15  1  0  0  0  0
 14 44  1  0  0  0  0
 15 16  2  0  0  0  0
 15 17  1  0  0  0  0
 18 19  2  0  0  0  0
 18 20  1  0  0  0  0
 20 21  1  0  0  0  0
 20 45  1  0  0  0  0
 21 22  1  0  0  0  0
 21 46  1  0  0  0  0
 21 47  1  0  0  0  0
 22 23  1  0  0  0  0
 22 48  1  0  0  0  0
 22 49  1  0  0  0  0
 23 24  1  0  0  0  0
 23 50  1  0  0  0  0
 23 51  1  0  0  0  0
 24 25  1  0  0  0  0
 24 29  1  0  0  0  0
 25 26  1  0  0  0  0
 25 52  1  0  0  0  0
 25 53  1  0  0  0  0
 26 27  1  0  0  0  0
 26 54  1  0  0  0  0
 26 55  1  0  0  0  0
 27 28  1  0  0  0  0
 28 29  1  0  0  0  0
 28 56  1  0  0  0  0
 28 57  1  0  0  0  0
 29 58  1  0  0  0  0
 29 59  1  0  0  0  0
 30 31  1  1  0  0  0
 30 32  1  0  0  0  0
 30 38  1  0  0  0  0
 32 34  1  0  0  0  0
 32 37  1  0  0  0  0
 32 33  1  1  0  0  0
 34 36  1  0  0  0  0
 34 35  1  6  0  0  0
 36 60  1  0  0  0  0
 37 61  1  0  0  0  0
 38 62  1  0  0  0  0
M  CHG  2  15   1  17  -1
M  END
$$$$
