A3P
 OpenBabel04121316073D

 42 44  0  0  1  0  0  0  0  0999 V2000
    2.7973    0.0903   -1.3699 O   0  0  0  0  0  0  0  0  0  0  0  0
    2.3613    0.0232    0.0022 C   0  0  2  0  0  0  0  0  0  0  0  0
    1.2706    0.0588   -0.0453 H   0  0  0  0  0  0  0  0  0  0  0  0
    2.9134    1.1533    0.8880 C   0  0  2  0  0  0  0  0  0  0  0  0
    2.2645    1.2360    1.7643 H   0  0  0  0  0  0  0  0  0  0  0  0
    2.9633    2.3269    0.1710 O   0  0  0  0  0  0  0  0  0  0  0  0
    3.3209    4.0086    0.3631 P   0  0  0  0  0  0  0  0  0  0  0  0
    3.3189    4.2280   -1.1426 O   0  0  0  0  0  0  0  0  0  0  0  0
    1.8040    4.1953    0.9021 O   0  0  0  0  0  0  0  0  0  0  0  0
    3.6785    5.6903    0.5551 O   0  0  0  0  0  0  0  0  0  0  0  0
    4.2855    0.6011    1.1460 C   0  0  2  0  0  0  0  0  0  0  0  0
    4.9621    0.7202    0.2896 H   0  0  0  0  0  0  0  0  0  0  0  0
    4.1282   -0.8111    1.3580 O   0  0  0  0  0  0  0  0  0  0  0  0
    2.9363   -1.2391    0.6646 C   0  0  1  0  0  0  0  0  0  0  0  0
    3.2393   -1.9943   -0.0718 H   0  0  0  0  0  0  0  0  0  0  0  0
    1.9955   -1.8950    1.5564 N   0  0  0  0  0  0  0  0  0  0  0  0
    0.7303   -2.2719    1.1627 C   0  0  0  0  0  0  0  0  0  0  0  0
    0.0401   -2.8027    2.1415 N   0  0  0  0  0  0  0  0  0  0  0  0
    0.9216   -2.8391    3.2031 C   0  0  0  0  0  0  0  0  0  0  0  0
    2.1497   -2.3017    2.8527 C   0  0  0  0  0  0  0  0  0  0  0  0
    3.2369   -2.2143    3.6440 N   0  0  0  0  0  0  0  0  0  0  0  0
    2.9842   -2.7089    4.8709 C   0  0  0  0  0  0  0  0  0  0  0  0
    1.8400   -3.2449    5.3476 N   0  0  0  0  0  0  0  0  0  0  0  0
    0.7799   -3.3244    4.5128 C   0  0  0  0  0  0  0  0  0  0  0  0
   -0.3857   -3.8973    4.9730 N   0  0  0  0  0  0  0  0  0  0  0  0
    4.9097    1.2785    2.3291 C   0  0  0  0  0  0  0  0  0  0  0  0
    3.8969    1.5744    3.2965 O   0  0  0  0  0  0  0  0  0  0  0  0
    4.5205    2.3765    4.6968 P   0  0  0  0  0  0  0  0  0  0  0  0
    3.5583    1.6342    5.6168 O   0  0  0  0  0  0  0  0  0  0  0  0
    5.8780    1.4777    4.6982 O   0  0  0  0  0  0  0  0  0  0  0  0
    5.1440    3.1786    6.0970 O   0  0  0  0  0  0  0  0  0  0  0  0
    3.7666    0.1580   -1.4124 H   0  0  0  0  0  0  0  0  0  0  0  0
    1.1891    3.9002    0.2049 H   0  0  0  0  0  0  0  0  0  0  0  0
    4.0714    5.9563   -0.3007 H   0  0  0  0  0  0  0  0  0  0  0  0
    0.3620   -2.1182    0.1534 H   0  0  0  0  0  0  0  0  0  0  0  0
    3.8137   -2.6777    5.5734 H   0  0  0  0  0  0  0  0  0  0  0  0
   -0.4512   -4.0952    5.9580 H   0  0  0  0  0  0  0  0  0  0  0  0
   -1.2070   -3.8347    4.3855 H   0  0  0  0  0  0  0  0  0  0  0  0
    5.6569    0.5910    2.7334 H   0  0  0  0  0  0  0  0  0  0  0  0
    5.3841    2.2199    2.0339 H   0  0  0  0  0  0  0  0  0  0  0  0
    5.7146    0.6435    5.1721 H   0  0  0  0  0  0  0  0  0  0  0  0
    4.4283    3.0989    6.7603 H   0  0  0  0  0  0  0  0  0  0  0  0
  1 32  1  0  0  0  0
  2  4  1  0  0  0  0
  2 14  1  0  0  0  0
  2  3  1  1  0  0  0
  2  1  1  0  0  0  0
  4 11  1  0  0  0  0
  4  6  1  0  0  0  0
  4  5  1  1  0  0  0
  6  7  1  0  0  0  0
  7  8  2  0  0  0  0
  7  9  1  0  0  0  0
  7 10  1  0  0  0  0
  9 33  1  0  0  0  0
 10 34  1  0  0  0  0
 11 13  1  0  0  0  0
 11 26  1  0  0  0  0
 11 12  1  6  0  0  0
 13 14  1  0  0  0  0
 14 16  1  0  0  0  0
 14 15  1  6  0  0  0
 16 17  1  0  0  0  0
 16 20  1  0  0  0  0
 17 18  2  0  0  0  0
 17 35  1  0  0  0  0
 18 19  1  0  0  0  0
 19 20  2  0  0  0  0
 19 24  1  0  0  0  0
 20 21  1  0  0  0  0
 21 22  2  0  0  0  0
 22 23  1  0  0  0  0
 22 36  1  0  0  0  0
 23 24  2  0  0  0  0
 24 25  1  0  0  0  0
 25 37  1  0  0  0  0
 25 38  1  0  0  0  0
 26 27  1  0  0  0  0
 26 39  1  0  0  0  0
 26 40  1  0  0  0  0
 27 28  1  0  0  0  0
 28 29  2  0  0  0  0
 28 30  1  0  0  0  0
 28 31  1  0  0  0  0
 30 41  1  0  0  0  0
 31 42  1  0  0  0  0
M  END
$$$$
