A3S
 OpenBabel04121316073D

 44 46  0  0  1  0  0  0  0  0999 V2000
   -0.5522    6.4187    2.2515 O   0  0  0  0  0  0  0  0  0  0  0  0
   -1.7812    5.9824    1.7438 C   0  0  0  0  0  0  0  0  0  0  0  0
   -2.0721    4.5366    1.2097 C   0  0  1  0  0  0  0  0  0  0  0  0
   -1.5890    4.1654    0.3028 H   0  0  0  0  0  0  0  0  0  0  0  0
   -1.9424    3.3671    2.2398 C   0  0  0  0  0  0  0  0  0  0  0  0
   -2.9650    2.7591    2.6451 O   0  0  0  0  0  0  0  0  0  0  0  0
   -0.7490    2.9268    2.7829 N   0  0  0  0  0  0  0  0  0  0  0  0
    0.6648    3.0657    2.3446 C   0  0  2  0  0  0  0  0  0  0  0  0
    0.8460    2.2837    1.5955 H   0  0  0  0  0  0  0  0  0  0  0  0
    1.7380    3.0287    3.4798 C   0  0  1  0  0  0  0  0  0  0  0  0
    1.5061    2.2671    4.2294 H   0  0  0  0  0  0  0  0  0  0  0  0
    3.1802    2.8509    2.9865 C   0  0  0  0  0  0  0  0  0  0  0  0
    3.3829    1.7053    2.2057 O   0  0  0  0  0  0  0  0  0  0  0  0
    1.8024    4.3434    4.0705 O   0  0  0  0  0  0  0  0  0  0  0  0
    1.3997    5.2840    3.0292 C   0  0  2  0  0  0  0  0  0  0  0  0
    0.6966    5.8690    3.6283 H   0  0  0  0  0  0  0  0  0  0  0  0
    0.9760    4.4059    1.7794 C   0  0  2  0  0  0  0  0  0  0  0  0
    1.8647    4.2023    1.2572 H   0  0  0  0  0  0  0  0  0  0  0  0
    0.2739    4.6646    0.5887 O   0  0  0  0  0  0  0  0  0  0  0  0
    2.4743    6.2244    2.6662 N   0  0  0  0  0  0  0  0  0  0  0  0
    2.5974    7.5355    3.0652 C   0  0  0  0  0  0  0  0  0  0  0  0
    3.6459    8.1198    2.5078 N   0  0  0  0  0  0  0  0  0  0  0  0
    4.1764    7.1723    1.6538 C   0  0  0  0  0  0  0  0  0  0  0  0
    3.3819    6.0629    1.6434 C   0  0  0  0  0  0  0  0  0  0  0  0
    3.5173    5.0330    0.8041 N   0  0  0  0  0  0  0  0  0  0  0  0
    4.6236    5.0067    0.0950 C   0  0  0  0  0  0  0  0  0  0  0  0
    5.5223    5.9821    0.0630 N   0  0  0  0  0  0  0  0  0  0  0  0
    5.2869    7.0978    0.8001 C   0  0  0  0  0  0  0  0  0  0  0  0
    6.1854    8.1181    0.6781 N   0  0  0  0  0  0  0  0  0  0  0  0
   -3.4417    4.7226    0.6343 N   0  0  0  0  0  0  0  0  0  0  0  0
    0.0063    6.8320    1.5735 H   0  0  0  0  0  0  0  0  0  0  0  0
   -1.9474    6.6986    0.9368 H   0  0  0  0  0  0  0  0  0  0  0  0
   -2.4683    6.1783    2.5654 H   0  0  0  0  0  0  0  0  0  0  0  0
   -0.9208    2.0841    3.3222 H   0  0  0  0  0  0  0  0  0  0  0  0
    3.9167    2.9686    3.7894 H   0  0  0  0  0  0  0  0  0  0  0  0
    3.4436    3.6766    2.3633 H   0  0  0  0  0  0  0  0  0  0  0  0
    3.2674    0.9461    2.7936 H   0  0  0  0  0  0  0  0  0  0  0  0
    0.1894    5.5842    0.3306 H   0  0  0  0  0  0  0  0  0  0  0  0
    1.8981    8.0207    3.7391 H   0  0  0  0  0  0  0  0  0  0  0  0
    4.7906    4.0938   -0.4692 H   0  0  0  0  0  0  0  0  0  0  0  0
    6.9820    7.9532    0.0868 H   0  0  0  0  0  0  0  0  0  0  0  0
    6.0411    8.9445    1.2347 H   0  0  0  0  0  0  0  0  0  0  0  0
   -3.3415    5.4300   -0.1010 H   0  0  0  0  0  0  0  0  0  0  0  0
   -4.0183    5.1565    1.3539 H   0  0  0  0  0  0  0  0  0  0  0  0
  1  2  1  0  0  0  0
  1 31  1  0  0  0  0
  2  3  1  0  0  0  0
  2 32  1  0  0  0  0
  2 33  1  0  0  0  0
  3  4  1  6  0  0  0
  3  5  1  0  0  0  0
  3 30  1  0  0  0  0
  5  6  2  0  0  0  0
  5  7  1  0  0  0  0
  7 34  1  0  0  0  0
  8 10  1  0  0  0  0
  8 17  1  0  0  0  0
  8  9  1  6  0  0  0
  8  7  1  0  0  0  0
 10 11  1  1  0  0  0
 10 12  1  0  0  0  0
 10 14  1  0  0  0  0
 12 13  1  0  0  0  0
 12 35  1  0  0  0  0
 12 36  1  0  0  0  0
 13 37  1  0  0  0  0
 14 15  1  0  0  0  0
 15 17  1  0  0  0  0
 15 20  1  0  0  0  0
 15 16  1  1  0  0  0
 17 18  1  6  0  0  0
 17 19  1  0  0  0  0
 19 38  1  0  0  0  0
 20 21  1  0  0  0  0
 20 24  1  0  0  0  0
 21 22  2  0  0  0  0
 21 39  1  0  0  0  0
 22 23  1  0  0  0  0
 23 24  2  0  0  0  0
 23 28  1  0  0  0  0
 24 25  1  0  0  0  0
 25 26  2  0  0  0  0
 26 27  1  0  0  0  0
 26 40  1  0  0  0  0
 27 28  2  0  0  0  0
 28 29  1  0  0  0  0
 29 41  1  0  0  0  0
 29 42  1  0  0  0  0
 30 43  1  0  0  0  0
 30 44  1  0  0  0  0
M  END
$$$$
