A54
 OpenBabel04121316073D

 35 36  0  0  1  0  0  0  0  0999 V2000
    4.3934   -2.6285   -2.3709 N   0  0  0  0  0  0  0  0  0  0  0  0
    3.9942   -2.2767   -1.0139 C   0  0  0  0  0  0  0  0  0  0  0  0
    5.0081   -1.3136   -0.4078 C   0  0  0  0  0  0  0  0  0  0  0  0
    4.5761   -0.8833    1.0093 C   0  0  2  0  0  0  0  0  0  0  0  0
    3.4776   -0.9454    1.0515 H   0  0  0  0  0  0  0  0  0  0  0  0
    4.9170    0.5830    1.2204 C   0  0  0  0  0  0  0  0  0  0  0  0
    3.9836    1.6071    1.2182 C   0  0  0  0  0  0  0  0  0  0  0  0
    4.4372    2.9291    1.3197 C   0  0  0  0  0  0  0  0  0  0  0  0
    5.7424    3.2041    1.7267 C   0  0  0  0  0  0  0  0  0  0  0  0
    6.6204    2.1680    1.8710 C   0  0  0  0  0  0  0  0  0  0  0  0
    6.2436    0.9795    1.2862 C   0  0  0  0  0  0  0  0  0  0  0  0
    5.0046   -1.8045    2.0803 O   0  0  0  0  0  0  0  0  0  0  0  0
    6.3421   -2.0580    2.2661 C   0  0  0  0  0  0  0  0  0  0  0  0
    7.2259   -1.0861    2.7198 C   0  0  0  0  0  0  0  0  0  0  0  0
    8.5816   -1.1804    2.4105 C   0  0  0  0  0  0  0  0  0  0  0  0
    9.5793    0.2135    2.2264 Cl  0  0  0  0  0  0  0  0  0  0  0  0
    9.1176   -2.4233    2.1843 C   0  0  0  0  0  0  0  0  0  0  0  0
    8.2584   -3.5198    2.2158 C   0  0  0  0  0  0  0  0  0  0  0  0
    6.8633   -3.3369    2.1308 C   0  0  0  0  0  0  0  0  0  0  0  0
    6.0049   -4.4561    1.9427 C   0  0  0  0  0  0  0  0  0  0  0  0
    5.3067   -5.3815    1.7774 N   0  0  0  0  0  0  0  0  0  0  0  0
    3.7210   -3.2905   -2.7570 H   0  0  0  0  0  0  0  0  0  0  0  0
    5.2894   -3.1136   -2.3511 H   0  0  0  0  0  0  0  0  0  0  0  0
    3.9112   -3.1783   -0.4006 H   0  0  0  0  0  0  0  0  0  0  0  0
    3.0069   -1.8018   -1.0547 H   0  0  0  0  0  0  0  0  0  0  0  0
    5.0746   -0.4350   -1.0676 H   0  0  0  0  0  0  0  0  0  0  0  0
    6.0018   -1.7733   -0.3955 H   0  0  0  0  0  0  0  0  0  0  0  0
    2.9324    1.4015    1.0418 H   0  0  0  0  0  0  0  0  0  0  0  0
    3.7769    3.7531    1.0837 H   0  0  0  0  0  0  0  0  0  0  0  0
    6.1117    4.2129    1.8604 H   0  0  0  0  0  0  0  0  0  0  0  0
    7.6058    2.2949    2.3072 H   0  0  0  0  0  0  0  0  0  0  0  0
    7.0100    0.2945    0.9587 H   0  0  0  0  0  0  0  0  0  0  0  0
    6.8383   -0.1840    3.1767 H   0  0  0  0  0  0  0  0  0  0  0  0
   10.1900   -2.5304    2.0575 H   0  0  0  0  0  0  0  0  0  0  0  0
    8.6869   -4.5128    2.2928 H   0  0  0  0  0  0  0  0  0  0  0  0
  1  2  1  0  0  0  0
  1 22  1  0  0  0  0
  1 23  1  0  0  0  0
  2  3  1  0  0  0  0
  2 24  1  0  0  0  0
  2 25  1  0  0  0  0
  3 26  1  0  0  0  0
  3 27  1  0  0  0  0
  4  6  1  0  0  0  0
  4 12  1  0  0  0  0
  4  5  1  6  0  0  0
  4  3  1  0  0  0  0
  6  7  2  0  0  0  0
  6 11  1  0  0  0  0
  7  8  1  0  0  0  0
  7 28  1  0  0  0  0
  8  9  2  0  0  0  0
  8 29  1  0  0  0  0
  9 10  1  0  0  0  0
  9 30  1  0  0  0  0
 10 11  2  0  0  0  0
 10 31  1  0  0  0  0
 11 32  1  0  0  0  0
 12 13  1  0  0  0  0
 13 14  2  0  0  0  0
 13 19  1  0  0  0  0
 14 15  1  0  0  0  0
 14 33  1  0  0  0  0
 15 16  1  0  0  0  0
 15 17  2  0  0  0  0
 17 18  1  0  0  0  0
 17 34  1  0  0  0  0
 18 19  2  0  0  0  0
 18 35  1  0  0  0  0
 19 20  1  0  0  0  0
 20 21  3  0  0  0  0
M  END
$$$$
