A5P
 OpenBabel04121316073D

 27 26  0  0  1  0  0  0  0  0999 V2000
    1.3721   -2.4775   -1.9960 O   0  0  0  0  0  0  0  0  0  0  0  0
    2.4682   -2.2441   -1.1296 C   0  0  0  0  0  0  0  0  0  0  0  0
    2.9728   -0.7824   -1.1656 C   0  0  2  0  0  0  0  0  0  0  0  0
    2.6032   -0.2729   -0.2687 H   0  0  0  0  0  0  0  0  0  0  0  0
    2.5407    0.0246   -2.4060 C   0  0  1  0  0  0  0  0  0  0  0  0
    3.0389    1.0011   -2.3626 H   0  0  0  0  0  0  0  0  0  0  0  0
    3.0345   -0.6718   -3.7036 C   0  0  1  0  0  0  0  0  0  0  0  0
    2.7063   -1.7132   -3.7592 H   0  0  0  0  0  0  0  0  0  0  0  0
    2.5035    0.0134   -4.9387 C   0  0  0  0  0  0  0  0  0  0  0  0
    1.0862   -0.0190   -4.9299 O   0  0  0  0  0  0  0  0  0  0  0  0
    0.5095    0.8017   -6.3395 P   0  0  0  0  0  0  0  0  0  0  0  0
   -0.5921   -0.2319   -6.5265 O   0  0  0  0  0  0  0  0  0  0  0  0
    0.0063    1.9881   -5.3553 O   0  0  0  0  0  0  0  0  0  0  0  0
   -0.0672    1.6224   -7.7490 O   0  0  0  0  0  0  0  0  0  0  0  0
    4.4680   -0.6762   -3.7692 O   0  0  0  0  0  0  0  0  0  0  0  0
    1.1433    0.3234   -2.3931 O   0  0  0  0  0  0  0  0  0  0  0  0
    4.4093   -0.7940   -1.0721 O   0  0  0  0  0  0  0  0  0  0  0  0
    1.3024   -3.4422   -2.1550 H   0  0  0  0  0  0  0  0  0  0  0  0
    3.2782   -2.9380   -1.3808 H   0  0  0  0  0  0  0  0  0  0  0  0
    2.1269   -2.4823   -0.1185 H   0  0  0  0  0  0  0  0  0  0  0  0
    2.8693   -0.4956   -5.8398 H   0  0  0  0  0  0  0  0  0  0  0  0
    2.8558    1.0501   -4.9904 H   0  0  0  0  0  0  0  0  0  0  0  0
   -0.3390    1.5484   -4.5511 H   0  0  0  0  0  0  0  0  0  0  0  0
    0.0531    1.0266   -8.5085 H   0  0  0  0  0  0  0  0  0  0  0  0
    4.7776   -1.1552   -2.9728 H   0  0  0  0  0  0  0  0  0  0  0  0
    0.8195    0.3596   -1.4781 H   0  0  0  0  0  0  0  0  0  0  0  0
    4.7126    0.1334   -1.1230 H   0  0  0  0  0  0  0  0  0  0  0  0
  1  2  1  0  0  0  0
  1 18  1  0  0  0  0
  2 19  1  0  0  0  0
  2 20  1  0  0  0  0
  3  5  1  0  0  0  0
  3 17  1  0  0  0  0
  3  4  1  1  0  0  0
  3  2  1  0  0  0  0
  5  6  1  1  0  0  0
  5  7  1  0  0  0  0
  5 16  1  0  0  0  0
  7  8  1  1  0  0  0
  7  9  1  0  0  0  0
  7 15  1  0  0  0  0
  9 10  1  0  0  0  0
  9 21  1  0  0  0  0
  9 22  1  0  0  0  0
 10 11  1  0  0  0  0
 11 12  2  0  0  0  0
 11 13  1  0  0  0  0
 11 14  1  0  0  0  0
 13 23  1  0  0  0  0
 14 24  1  0  0  0  0
 15 25  1  0  0  0  0
 16 26  1  0  0  0  0
 17 27  1  0  0  0  0
M  END
$$$$
