A6B
 OpenBabel04121316073D

 79 83  0  0  1  0  0  0  0  0999 V2000
    0.8807   -0.0130   -0.1342 O   0  0  0  0  0  0  0  0  0  0  0  0
    2.1050   -0.0499   -0.0566 C   0  0  0  0  0  0  0  0  0  0  0  0
    2.8529   -0.6114    1.1244 C   0  0  0  0  0  0  0  0  0  0  0  0
    1.8624   -1.1000    2.1624 C   0  0  0  0  0  0  0  0  0  0  0  0
    2.6226   -1.6528    3.3357 C   0  0  0  0  0  0  0  0  0  0  0  0
    1.6907   -2.1618    4.4233 C   0  0  0  0  0  0  0  0  0  0  0  0
    2.4392   -2.6901    5.6567 C   0  0  2  0  0  0  0  0  0  0  0  0
    2.2876   -1.9784    6.4761 H   0  0  0  0  0  0  0  0  0  0  0  0
    4.2581   -2.8006    5.4834 S   0  0  0  0  0  0  0  0  0  0  0  0
    4.4426   -4.3321    6.3876 C   0  0  0  0  0  0  0  0  0  0  0  0
    3.0734   -4.7123    6.9742 C   0  0  1  0  0  0  0  0  0  0  0  0
    3.0102   -4.4562    8.0352 H   0  0  0  0  0  0  0  0  0  0  0  0
    1.9768   -4.0688    6.1132 C   0  0  2  0  0  0  0  0  0  0  0  0
    1.0249   -4.0027    6.6597 H   0  0  0  0  0  0  0  0  0  0  0  0
    1.7958   -5.0660    5.0787 N   0  0  0  0  0  0  0  0  0  0  0  0
    2.3417   -6.2784    5.4603 C   0  0  0  0  0  0  0  0  0  0  0  0
    2.4767   -7.2513    4.7592 O   0  0  0  0  0  0  0  0  0  0  0  0
    2.8139   -6.1226    6.7626 N   0  0  0  0  0  0  0  0  0  0  0  0
    2.8624    0.4360   -1.0758 N   0  0  0  0  0  0  0  0  0  0  0  0
    4.3021    0.4507   -1.1098 C   0  0  0  0  0  0  0  0  0  0  0  0
    4.8064    1.0644   -2.3960 C   0  0  0  0  0  0  0  0  0  0  0  0
    6.3267    1.0673   -2.4018 C   0  0  0  0  0  0  0  0  0  0  0  0
    6.8422    1.6834   -3.6918 C   0  0  0  0  0  0  0  0  0  0  0  0
    8.3646    1.6980   -3.7166 C   0  0  0  0  0  0  0  0  0  0  0  0
    8.8609    2.3239   -5.0188 C   0  0  0  0  0  0  0  0  0  0  0  0
   10.3030    2.3685   -5.0755 N   0  0  0  0  0  0  0  0  0  0  0  0
   11.0023    2.7950   -6.2011 C   0  0  0  0  0  0  0  0  0  0  0  0
   10.4275    3.2502   -7.1852 O   0  0  0  0  0  0  0  0  0  0  0  0
   12.5471    2.7850   -6.0565 C   0  0  1  0  0  0  0  0  0  0  0  0
   12.9745    1.5068   -5.2986 C   0  0  0  0  0  0  0  0  0  0  0  0
   14.4512    1.5424   -4.9351 C   0  0  1  0  0  0  0  0  0  0  0  0
   14.6873    0.6522   -4.3425 H   0  0  0  0  0  0  0  0  0  0  0  0
   15.2541    1.5404   -6.2301 C   0  0  0  0  0  0  0  0  0  0  0  0
   14.9343    2.8146   -7.0336 C   0  0  1  0  0  0  0  0  0  0  0  0
   15.5821    2.8197   -7.9188 H   0  0  0  0  0  0  0  0  0  0  0  0
   13.3964    2.8013   -7.3803 C   0  0  0  0  0  0  0  0  0  0  0  0
   15.2285    4.0907   -6.2229 C   0  0  0  0  0  0  0  0  0  0  0  0
   14.4106    4.0779   -4.9287 C   0  0  1  0  0  0  0  0  0  0  0  0
   14.6375    4.9745   -4.3411 H   0  0  0  0  0  0  0  0  0  0  0  0
   12.9229    4.0728   -5.2891 C   0  0  0  0  0  0  0  0  0  0  0  0
   14.7448    2.8140   -4.1213 C   0  0  0  0  0  0  0  0  0  0  0  0
    3.4965    0.1652    1.5568 H   0  0  0  0  0  0  0  0  0  0  0  0
    3.4926   -1.4403    0.7948 H   0  0  0  0  0  0  0  0  0  0  0  0
    1.2224   -1.8797    1.7343 H   0  0  0  0  0  0  0  0  0  0  0  0
    1.2188   -0.2772    2.4913 H   0  0  0  0  0  0  0  0  0  0  0  0
    3.2707   -0.8659    3.7411 H   0  0  0  0  0  0  0  0  0  0  0  0
    3.2546   -2.4725    2.9694 H   0  0  0  0  0  0  0  0  0  0  0  0
    1.0169   -2.9119    3.9913 H   0  0  0  0  0  0  0  0  0  0  0  0
    1.0213   -1.3519    4.7420 H   0  0  0  0  0  0  0  0  0  0  0  0
    5.1770   -4.1418    7.1704 H   0  0  0  0  0  0  0  0  0  0  0  0
    4.8521   -5.0954    5.7154 H   0  0  0  0  0  0  0  0  0  0  0  0
    1.5531   -4.9099    4.1095 H   0  0  0  0  0  0  0  0  0  0  0  0
    3.3754   -6.8708    7.1463 H   0  0  0  0  0  0  0  0  0  0  0  0
    2.3232    0.8030   -1.8509 H   0  0  0  0  0  0  0  0  0  0  0  0
    4.6602   -0.5800   -1.0079 H   0  0  0  0  0  0  0  0  0  0  0  0
    4.6613    1.0197   -0.2448 H   0  0  0  0  0  0  0  0  0  0  0  0
    4.4237    2.0879   -2.4945 H   0  0  0  0  0  0  0  0  0  0  0  0
    4.4237    0.4972   -3.2536 H   0  0  0  0  0  0  0  0  0  0  0  0
    6.7002    0.0407   -2.3003 H   0  0  0  0  0  0  0  0  0  0  0  0
    6.6998    1.6341   -1.5397 H   0  0  0  0  0  0  0  0  0  0  0  0
    6.4601    2.7070   -3.7873 H   0  0  0  0  0  0  0  0  0  0  0  0
    6.4622    1.1130   -4.5481 H   0  0  0  0  0  0  0  0  0  0  0  0
    8.7469    0.6737   -3.6137 H   0  0  0  0  0  0  0  0  0  0  0  0
    8.7440    2.2590   -2.8523 H   0  0  0  0  0  0  0  0  0  0  0  0
    8.4918    3.3495   -5.1129 H   0  0  0  0  0  0  0  0  0  0  0  0
    8.5055    1.7454   -5.8771 H   0  0  0  0  0  0  0  0  0  0  0  0
   10.7850    2.0571   -4.2468 H   0  0  0  0  0  0  0  0  0  0  0  0
   12.7461    0.6314   -5.9234 H   0  0  0  0  0  0  0  0  0  0  0  0
   12.4369    1.3564   -4.3632 H   0  0  0  0  0  0  0  0  0  0  0  0
   14.9823    0.6662   -6.8381 H   0  0  0  0  0  0  0  0  0  0  0  0
   16.3207    1.4371   -6.0003 H   0  0  0  0  0  0  0  0  0  0  0  0
   13.1590    1.9188   -7.9889 H   0  0  0  0  0  0  0  0  0  0  0  0
   13.1415    3.6721   -7.9987 H   0  0  0  0  0  0  0  0  0  0  0  0
   14.9587    4.9634   -6.8332 H   0  0  0  0  0  0  0  0  0  0  0  0
   16.2947    4.1997   -5.9871 H   0  0  0  0  0  0  0  0  0  0  0  0
   12.6985    4.9488   -5.9182 H   0  0  0  0  0  0  0  0  0  0  0  0
   12.3181    4.1904   -4.3841 H   0  0  0  0  0  0  0  0  0  0  0  0
   14.1518    2.8071   -3.1987 H   0  0  0  0  0  0  0  0  0  0  0  0
   15.8008    2.8265   -3.8312 H   0  0  0  0  0  0  0  0  0  0  0  0
  1  2  2  0  0  0  0
  2  3  1  0  0  0  0
  2 19  1  0  0  0  0
  3  4  1  0  0  0  0
  3 42  1  0  0  0  0
  3 43  1  0  0  0  0
  4  5  1  0  0  0  0
  4 44  1  0  0  0  0
  4 45  1  0  0  0  0
  5  6  1  0  0  0  0
  5 46  1  0  0  0  0
  5 47  1  0  0  0  0
  6  7  1  0  0  0  0
  6 48  1  0  0  0  0
  6 49  1  0  0  0  0
  7  9  1  0  0  0  0
  7 13  1  0  0  0  0
  7  8  1  1  0  0  0
  9 10  1  0  0  0  0
 10 11  1  0  0  0  0
 10 50  1  0  0  0  0
 10 51  1  0  0  0  0
 11 13  1  0  0  0  0
 11 18  1  0  0  0  0
 11 12  1  1  0  0  0
 13 15  1  0  0  0  0
 13 14  1  1  0  0  0
 15 16  1  0  0  0  0
 15 52  1  0  0  0  0
 16 18  1  0  0  0  0
 16 17  2  0  0  0  0
 18 53  1  0  0  0  0
 19 20  1  0  0  0  0
 19 54  1  0  0  0  0
 20 21  1  0  0  0  0
 20 55  1  0  0  0  0
 20 56  1  0  0  0  0
 21 22  1  0  0  0  0
 21 57  1  0  0  0  0
 21 58  1  0  0  0  0
 22 23  1  0  0  0  0
 22 59  1  0  0  0  0
 22 60  1  0  0  0  0
 23 24  1  0  0  0  0
 23 61  1  0  0  0  0
 23 62  1  0  0  0  0
 24 25  1  0  0  0  0
 24 63  1  0  0  0  0
 24 64  1  0  0  0  0
 25 26  1  0  0  0  0
 25 65  1  0  0  0  0
 25 66  1  0  0  0  0
 26 27  1  0  0  0  0
 26 67  1  0  0  0  0
 27 28  2  0  0  0  0
 29 30  1  0  0  0  0
 29 36  1  0  0  0  0
 29 40  1  0  0  0  0
 29 27  1  6  0  0  0
 30 31  1  0  0  0  0
 30 68  1  0  0  0  0
 30 69  1  0  0  0  0
 31 33  1  0  0  0  0
 31 41  1  0  0  0  0
 31 32  1  1  0  0  0
 33 34  1  0  0  0  0
 33 70  1  0  0  0  0
 33 71  1  0  0  0  0
 34 36  1  0  0  0  0
 34 37  1  0  0  0  0
 34 35  1  6  0  0  0
 36 72  1  0  0  0  0
 36 73  1  0  0  0  0
 37 38  1  0  0  0  0
 37 74  1  0  0  0  0
 37 75  1  0  0  0  0
 38 40  1  0  0  0  0
 38 41  1  0  0  0  0
 38 39  1  1  0  0  0
 40 76  1  0  0  0  0
 40 77  1  0  0  0  0
 41 78  1  0  0  0  0
 41 79  1  0  0  0  0
M  END
$$$$
