A6D
 OpenBabel04121316073D

 48 51  0  0  1  0  0  0  0  0999 V2000
    2.9464    0.1728   -1.4231 O   0  0  0  0  0  0  0  0  0  0  0  0
    2.4821   -0.0339   -0.0876 C   0  0  2  0  0  0  0  0  0  0  0  0
    1.3918   -0.0731   -0.1461 H   0  0  0  0  0  0  0  0  0  0  0  0
    2.9996    1.0733    0.8262 C   0  0  1  0  0  0  0  0  0  0  0  0
    3.1700    2.0065    0.2764 H   0  0  0  0  0  0  0  0  0  0  0  0
    2.1212    1.3466    2.0616 C   0  0  0  0  0  0  0  0  0  0  0  0
    0.4812    1.9973    1.5745 S   0  0  0  0  0  0  0  0  0  0  0  0
   -0.5149    2.1365    3.3649 S   0  0  0  0  0  0  0  0  0  0  0  0
   -2.1707    2.7207    2.8558 C   0  0  0  0  0  0  0  0  0  0  0  0
   -3.0583    2.9482    4.0584 C   0  0  0  0  0  0  0  0  0  0  0  0
   -3.6921    1.8664    4.6913 C   0  0  0  0  0  0  0  0  0  0  0  0
   -4.5254    2.0703    5.7932 C   0  0  0  0  0  0  0  0  0  0  0  0
   -4.8303    3.3662    6.2061 C   0  0  0  0  0  0  0  0  0  0  0  0
   -4.2060    4.4505    5.5772 C   0  0  0  0  0  0  0  0  0  0  0  0
   -3.2683    4.2427    4.5565 C   0  0  0  0  0  0  0  0  0  0  0  0
   -4.5853    5.8186    5.9512 N   0  3  0  0  0  0  0  0  0  0  0  0
   -5.4716    5.9622    6.8000 O   0  0  0  0  0  0  0  0  0  0  0  0
   -4.0115    6.7540    5.3666 O   0  5  0  0  0  0  0  0  0  0  0  0
    4.2969    0.5995    1.2525 O   0  0  0  0  0  0  0  0  0  0  0  0
    4.2479   -0.8358    1.3911 C   0  0  2  0  0  0  0  0  0  0  0  0
    5.1893   -1.2626    1.0222 H   0  0  0  0  0  0  0  0  0  0  0  0
    3.0412   -1.3066    0.5495 C   0  0  2  0  0  0  0  0  0  0  0  0
    2.2415   -1.7325    1.1589 H   0  0  0  0  0  0  0  0  0  0  0  0
    3.3984   -2.2893   -0.4209 O   0  0  0  0  0  0  0  0  0  0  0  0
    4.1891   -1.1752    2.8111 N   0  0  0  0  0  0  0  0  0  0  0  0
    3.3977   -2.1360    3.3919 C   0  0  0  0  0  0  0  0  0  0  0  0
    3.5367   -2.1847    4.6959 N   0  0  0  0  0  0  0  0  0  0  0  0
    4.5002   -1.2449    4.9769 C   0  0  0  0  0  0  0  0  0  0  0  0
    4.9359   -0.6146    3.8217 C   0  0  0  0  0  0  0  0  0  0  0  0
    5.8788    0.3390    3.7422 N   0  0  0  0  0  0  0  0  0  0  0  0
    6.3682    0.6434    4.9634 C   0  0  0  0  0  0  0  0  0  0  0  0
    6.0348    0.1123    6.1612 N   0  0  0  0  0  0  0  0  0  0  0  0
    5.0889   -0.8507    6.1880 C   0  0  0  0  0  0  0  0  0  0  0  0
    4.7368   -1.4146    7.3928 N   0  0  0  0  0  0  0  0  0  0  0  0
    3.9066    0.0216   -1.4429 H   0  0  0  0  0  0  0  0  0  0  0  0
    2.6308    2.0668    2.7126 H   0  0  0  0  0  0  0  0  0  0  0  0
    1.9876    0.4309    2.6458 H   0  0  0  0  0  0  0  0  0  0  0  0
   -2.6502    1.9873    2.1949 H   0  0  0  0  0  0  0  0  0  0  0  0
   -2.0820    3.6537    2.2855 H   0  0  0  0  0  0  0  0  0  0  0  0
   -3.5347    0.8520    4.3275 H   0  0  0  0  0  0  0  0  0  0  0  0
   -4.9528    1.2178    6.3166 H   0  0  0  0  0  0  0  0  0  0  0  0
   -5.5522    3.5135    7.0062 H   0  0  0  0  0  0  0  0  0  0  0  0
   -2.7192    5.0811    4.1298 H   0  0  0  0  0  0  0  0  0  0  0  0
    3.7018   -3.0935    0.0359 H   0  0  0  0  0  0  0  0  0  0  0  0
    2.7199   -2.7768    2.8446 H   0  0  0  0  0  0  0  0  0  0  0  0
    7.1306    1.4175    4.9911 H   0  0  0  0  0  0  0  0  0  0  0  0
    5.1909   -1.0930    8.2312 H   0  0  0  0  0  0  0  0  0  0  0  0
    4.0229   -2.1296    7.4031 H   0  0  0  0  0  0  0  0  0  0  0  0
  1 35  1  0  0  0  0
  2  4  1  0  0  0  0
  2 22  1  0  0  0  0
  2  3  1  1  0  0  0
  2  1  1  0  0  0  0
  4  5  1  6  0  0  0
  4  6  1  0  0  0  0
  4 19  1  0  0  0  0
  6  7  1  0  0  0  0
  6 36  1  0  0  0  0
  6 37  1  0  0  0  0
  7  8  1  0  0  0  0
  8  9  1  0  0  0  0
  9 10  1  0  0  0  0
  9 38  1  0  0  0  0
  9 39  1  0  0  0  0
 10 11  2  0  0  0  0
 10 15  1  0  0  0  0
 11 12  1  0  0  0  0
 11 40  1  0  0  0  0
 12 13  2  0  0  0  0
 12 41  1  0  0  0  0
 13 14  1  0  0  0  0
 13 42  1  0  0  0  0
 14 15  2  0  0  0  0
 14 16  1  0  0  0  0
 15 43  1  0  0  0  0
 16 17  2  0  0  0  0
 16 18  1  0  0  0  0
 19 20  1  0  0  0  0
 20 22  1  0  0  0  0
 20 25  1  0  0  0  0
 20 21  1  6  0  0  0
 22 23  1  1  0  0  0
 22 24  1  0  0  0  0
 24 44  1  0  0  0  0
 25 26  1  0  0  0  0
 25 29  1  0  0  0  0
 26 27  2  0  0  0  0
 26 45  1  0  0  0  0
 27 28  1  0  0  0  0
 28 29  2  0  0  0  0
 28 33  1  0  0  0  0
 29 30  1  0  0  0  0
 30 31  2  0  0  0  0
 31 32  1  0  0  0  0
 31 46  1  0  0  0  0
 32 33  2  0  0  0  0
 33 34  1  0  0  0  0
 34 47  1  0  0  0  0
 34 48  1  0  0  0  0
M  CHG  2  16   1  18  -1
M  END
$$$$
