A7T
 OpenBabel04121316073D

 82 87  0  0  1  0  0  0  0  0999 V2000
    0.8920    0.0349   -0.0902 C   0  0  0  0  0  0  0  0  0  0  0  0
    2.3739    0.0579   -0.0886 C   0  0  0  0  0  0  0  0  0  0  0  0
    3.0554    1.2755   -0.0845 C   0  0  0  0  0  0  0  0  0  0  0  0
    4.4242    1.2845   -0.0864 C   0  0  0  0  0  0  0  0  0  0  0  0
    5.2523    2.8121   -0.0917 Cl  0  0  0  0  0  0  0  0  0  0  0  0
    5.1074    0.0695   -0.0983 C   0  0  0  0  0  0  0  0  0  0  0  0
    4.4234   -1.1730   -0.0855 C   0  0  0  0  0  0  0  0  0  0  0  0
    3.0520   -1.1563   -0.0883 C   0  0  0  0  0  0  0  0  0  0  0  0
    5.0453   -2.8097   -0.0644 Cl  0  0  0  0  0  0  0  0  0  0  0  0
    6.4346    0.3052   -0.1456 O   0  0  0  0  0  0  0  0  0  0  0  0
    7.1326   -0.8636   -0.2960 C   0  0  0  0  0  0  0  0  0  0  0  0
    8.5207   -0.4584   -0.5303 C   0  0  0  0  0  0  0  0  0  0  0  0
    9.0509   -1.7167   -0.8898 O   0  0  0  0  0  0  0  0  0  0  0  0
   10.2912   -1.5911   -1.4054 C   0  0  0  0  0  0  0  0  0  0  0  0
   11.1786   -0.0812   -1.3238 C   0  0  0  0  0  0  0  0  0  0  0  0
   12.9167   -0.0250   -1.7859 C   0  0  0  0  0  0  0  0  0  0  0  0
   13.7906   -1.6590   -2.0909 C   0  0  0  0  0  0  0  0  0  0  0  0
   12.8039   -3.1225   -2.1230 C   0  0  0  0  0  0  0  0  0  0  0  0
   11.0199   -3.1154   -1.8075 C   0  0  0  0  0  0  0  0  0  0  0  0
   15.1856   -1.5963   -1.2315 C   0  0  0  0  0  0  0  0  0  0  0  0
   15.8981   -2.7025   -0.8555 C   0  0  0  0  0  0  0  0  0  0  0  0
   17.3559   -2.6329   -1.1697 C   0  0  2  0  0  0  0  0  0  0  0  0
   17.8962   -3.4605   -0.6908 H   0  0  0  0  0  0  0  0  0  0  0  0
   17.9562   -1.3338   -0.7519 N   0  0  0  0  0  0  0  0  0  0  0  0
   17.2383   -0.2349   -1.4464 C   0  0  2  0  0  0  0  0  0  0  0  0
   17.7011    0.7270   -1.1947 H   0  0  0  0  0  0  0  0  0  0  0  0
   15.8256   -0.2069   -0.9496 C   0  0  0  0  0  0  0  0  0  0  0  0
   17.1107   -0.3916   -2.9864 C   0  0  0  0  0  0  0  0  0  0  0  0
   16.6191   -1.6963   -3.4258 N   0  0  0  0  0  0  0  0  0  0  0  0
   17.3419   -2.7873   -2.7405 C   0  0  0  0  0  0  0  0  0  0  0  0
   15.3429   -4.0665   -0.6091 C   0  0  0  0  0  0  0  0  0  0  0  0
   15.9584   -5.0941   -0.9016 O   0  0  0  0  0  0  0  0  0  0  0  0
   14.1097   -3.9690    0.0571 N   0  0  0  0  0  0  0  0  0  0  0  0
   13.6263   -2.6446    0.5438 C   0  0  0  0  0  0  0  0  0  0  0  0
   13.3937   -1.0980    0.5137 C   0  0  0  0  0  0  0  0  0  0  0  0
   12.4299   -1.7866   -0.3264 C   0  0  0  0  0  0  0  0  0  0  0  0
   13.0648   -5.1997    0.2913 C   0  0  0  0  0  0  0  0  0  0  0  0
   11.5702   -4.9001    0.9536 C   0  0  0  0  0  0  0  0  0  0  0  0
   10.5894   -5.8966    0.8038 C   0  0  0  0  0  0  0  0  0  0  0  0
    9.2884   -5.6898    1.3339 C   0  0  0  0  0  0  0  0  0  0  0  0
    8.7567   -4.4320    1.5593 C   0  0  0  0  0  0  0  0  0  0  0  0
    9.6355   -3.4281    1.7324 C   0  0  0  0  0  0  0  0  0  0  0  0
   11.0149   -3.7192    1.6317 C   0  0  0  0  0  0  0  0  0  0  0  0
   11.5738   -2.3965    1.9457 C   0  0  0  0  0  0  0  0  0  0  0  0
    9.1742   -1.9987    1.8981 C   0  0  0  0  0  0  0  0  0  0  0  0
    0.5062    1.0548   -0.0890 H   0  0  0  0  0  0  0  0  0  0  0  0
    0.5455   -0.4825    0.8071 H   0  0  0  0  0  0  0  0  0  0  0  0
    0.5461   -0.4804   -0.9890 H   0  0  0  0  0  0  0  0  0  0  0  0
    2.5257    2.2192   -0.0863 H   0  0  0  0  0  0  0  0  0  0  0  0
    2.5177   -2.1029   -0.0929 H   0  0  0  0  0  0  0  0  0  0  0  0
    6.8385   -1.4703   -1.1560 H   0  0  0  0  0  0  0  0  0  0  0  0
    6.9991   -1.4381    0.6186 H   0  0  0  0  0  0  0  0  0  0  0  0
    8.8631    0.0370    0.4001 H   0  0  0  0  0  0  0  0  0  0  0  0
    8.6578    0.2703   -1.3239 H   0  0  0  0  0  0  0  0  0  0  0  0
   10.9726    0.4769   -0.3399 H   0  0  0  0  0  0  0  0  0  0  0  0
   13.3728    0.7512   -1.1551 H   0  0  0  0  0  0  0  0  0  0  0  0
   12.7406   -3.7281   -1.1463 H   0  0  0  0  0  0  0  0  0  0  0  0
   10.5796   -3.9749   -1.2145 H   0  0  0  0  0  0  0  0  0  0  0  0
   18.9185   -1.3322   -1.0724 H   0  0  0  0  0  0  0  0  0  0  0  0
   15.2791    0.5699   -1.4854 H   0  0  0  0  0  0  0  0  0  0  0  0
   15.8292    0.1547    0.1052 H   0  0  0  0  0  0  0  0  0  0  0  0
   18.0883   -0.2373   -3.4199 H   0  0  0  0  0  0  0  0  0  0  0  0
   16.4173    0.3760   -3.3616 H   0  0  0  0  0  0  0  0  0  0  0  0
   16.5347   -1.8049   -4.4248 H   0  0  0  0  0  0  0  0  0  0  0  0
   18.3623   -2.7952   -3.1095 H   0  0  0  0  0  0  0  0  0  0  0  0
   16.8547   -3.7311   -3.0224 H   0  0  0  0  0  0  0  0  0  0  0  0
   13.5805   -2.9708    1.5526 H   0  0  0  0  0  0  0  0  0  0  0  0
   14.1111   -0.3512    0.3398 H   0  0  0  0  0  0  0  0  0  0  0  0
   12.7983   -0.4259    1.1430 H   0  0  0  0  0  0  0  0  0  0  0  0
   12.2016   -1.6489   -1.6955 H   0  0  0  0  0  0  0  0  0  0  0  0
   12.0201   -1.5919   -1.6240 H   0  0  0  0  0  0  0  0  0  0  0  0
   13.5830   -5.9641    0.8824 H   0  0  0  0  0  0  0  0  0  0  0  0
   12.9096   -5.6967   -0.7167 H   0  0  0  0  0  0  0  0  0  0  0  0
   10.7480   -6.8297    0.2593 H   0  0  0  0  0  0  0  0  0  0  0  0
    8.7188   -6.5212    1.7295 H   0  0  0  0  0  0  0  0  0  0  0  0
    7.7160   -4.2123    1.7430 H   0  0  0  0  0  0  0  0  0  0  0  0
   11.2365   -1.3668    1.7034 H   0  0  0  0  0  0  0  0  0  0  0  0
   11.5845   -2.5193    0.9126 H   0  0  0  0  0  0  0  0  0  0  0  0
   12.4510   -2.2190    2.5332 H   0  0  0  0  0  0  0  0  0  0  0  0
    8.1131   -1.8941    1.9016 H   0  0  0  0  0  0  0  0  0  0  0  0
    9.5633   -1.5098    1.0262 H   0  0  0  0  0  0  0  0  0  0  0  0
    9.6194   -1.3176    2.6312 H   0  0  0  0  0  0  0  0  0  0  0  0
  1  2  1  0  0  0  0
  1 46  1  0  0  0  0
  1 47  1  0  0  0  0
  1 48  1  0  0  0  0
  2  3  2  0  0  0  0
  2  8  1  0  0  0  0
  3  4  1  0  0  0  0
  3 49  1  0  0  0  0
  4  5  1  0  0  0  0
  4  6  2  0  0  0  0
  6  7  1  0  0  0  0
  6 10  1  0  0  0  0
  7  8  2  0  0  0  0
  7  9  1  0  0  0  0
  8 50  1  0  0  0  0
 10 11  1  0  0  0  0
 11 12  1  0  0  0  0
 11 51  1  0  0  0  0
 11 52  1  0  0  0  0
 12 13  1  0  0  0  0
 12 53  1  0  0  0  0
 12 54  1  0  0  0  0
 13 14  1  0  0  0  0
 14 15  2  0  0  0  0
 14 19  1  0  0  0  0
 15 16  1  0  0  0  0
 15 55  1  0  0  0  0
 16 17  2  0  0  0  0
 16 56  1  0  0  0  0
 17 18  1  0  0  0  0
 17 20  1  0  0  0  0
 18 19  2  0  0  0  0
 18 57  1  0  0  0  0
 19 58  1  0  0  0  0
 20 21  2  0  0  0  0
 20 27  1  0  0  0  0
 21 22  1  0  0  0  0
 21 31  1  0  0  0  0
 22 24  1  0  0  0  0
 22 30  1  0  0  0  0
 22 23  1  1  0  0  0
 24 25  1  0  0  0  0
 24 59  1  0  0  0  0
 25 27  1  0  0  0  0
 25 28  1  0  0  0  0
 25 26  1  1  0  0  0
 27 60  1  0  0  0  0
 27 61  1  0  0  0  0
 28 29  1  0  0  0  0
 28 62  1  0  0  0  0
 28 63  1  0  0  0  0
 29 30  1  0  0  0  0
 29 64  1  0  0  0  0
 30 65  1  0  0  0  0
 30 66  1  0  0  0  0
 31 32  2  0  0  0  0
 31 33  1  0  0  0  0
 33 34  1  0  0  0  0
 33 37  1  0  0  0  0
 34 35  1  0  0  0  0
 34 36  1  0  0  0  0
 34 67  1  0  0  0  0
 35 36  1  0  0  0  0
 35 68  1  0  0  0  0
 35 69  1  0  0  0  0
 36 70  1  0  0  0  0
 36 71  1  0  0  0  0
 37 38  1  0  0  0  0
 37 72  1  0  0  0  0
 37 73  1  0  0  0  0
 38 39  2  0  0  0  0
 38 43  1  0  0  0  0
 39 40  1  0  0  0  0
 39 74  1  0  0  0  0
 40 41  2  0  0  0  0
 40 75  1  0  0  0  0
 41 42  1  0  0  0  0
 41 76  1  0  0  0  0
 42 43  2  0  0  0  0
 42 45  1  0  0  0  0
 43 44  1  0  0  0  0
 44 77  1  0  0  0  0
 44 78  1  0  0  0  0
 44 79  1  0  0  0  0
 45 80  1  0  0  0  0
 45 81  1  0  0  0  0
 45 82  1  0  0  0  0
M  END
$$$$
