A8M
 OpenBabel04121316073D

 50 52  0  0  1  0  0  0  0  0999 V2000
    0.9445   -0.1735   -0.1196 N   0  0  0  0  0  0  0  0  0  0  0  0
    2.4067   -0.2459   -0.2103 C   0  0  0  0  0  0  0  0  0  0  0  0
    2.9355    1.0935    0.2338 C   0  0  0  0  0  0  0  0  0  0  0  0
    4.4491    1.2263    0.3840 C   0  0  0  0  0  0  0  0  0  0  0  0
    4.8937    2.5604    0.8590 N   0  0  0  0  0  0  0  0  0  0  0  0
    4.4174    2.9220    2.2253 C   0  0  0  0  0  0  0  0  0  0  0  0
    2.8893    3.0783    2.3793 C   0  0  1  0  0  0  0  0  0  0  0  0
    2.4137    3.0283    1.3978 H   0  0  0  0  0  0  0  0  0  0  0  0
    2.3590    2.0439    3.2498 O   0  0  0  0  0  0  0  0  0  0  0  0
    1.0059    2.4405    3.5176 C   0  0  2  0  0  0  0  0  0  0  0  0
    0.3789    2.1486    2.6635 H   0  0  0  0  0  0  0  0  0  0  0  0
    1.0579    3.9805    3.6060 C   0  0  1  0  0  0  0  0  0  0  0  0
    1.1557    4.3660    4.6109 H   0  0  0  0  0  0  0  0  0  0  0  0
    2.3661    4.3885    2.9169 C   0  0  2  0  0  0  0  0  0  0  0  0
    3.0674    4.8102    3.6405 H   0  0  0  0  0  0  0  0  0  0  0  0
    2.1829    5.3334    1.8681 O   0  0  0  0  0  0  0  0  0  0  0  0
   -0.1044    4.6014    3.0585 O   0  0  0  0  0  0  0  0  0  0  0  0
    0.4975    1.7151    4.6763 N   0  0  0  0  0  0  0  0  0  0  0  0
   -0.1723    0.4955    4.6795 C   0  0  0  0  0  0  0  0  0  0  0  0
   -0.4308   -0.3653    3.4929 C   0  0  0  0  0  0  0  0  0  0  0  0
   -0.5748    0.1766    5.9004 N   0  0  0  0  0  0  0  0  0  0  0  0
   -0.1562    1.1988    6.7140 C   0  0  0  0  0  0  0  0  0  0  0  0
    0.5149    2.1625    5.9778 C   0  0  0  0  0  0  0  0  0  0  0  0
    1.0361    3.2977    6.4579 N   0  0  0  0  0  0  0  0  0  0  0  0
    0.8290    3.4383    7.7771 C   0  0  0  0  0  0  0  0  0  0  0  0
    0.2083    2.5826    8.6093 N   0  0  0  0  0  0  0  0  0  0  0  0
   -0.2915    1.4397    8.0915 C   0  0  0  0  0  0  0  0  0  0  0  0
   -0.9354    0.5705    8.9455 N   0  0  0  0  0  0  0  0  0  0  0  0
    6.3648    2.6085    0.8379 C   0  0  0  0  0  0  0  0  0  0  0  0
    0.5315   -1.0434   -0.4419 H   0  0  0  0  0  0  0  0  0  0  0  0
    0.5969    0.5718   -0.7240 H   0  0  0  0  0  0  0  0  0  0  0  0
    2.7301   -0.4828   -1.2236 H   0  0  0  0  0  0  0  0  0  0  0  0
    2.7616   -1.0148    0.4829 H   0  0  0  0  0  0  0  0  0  0  0  0
    2.4933    1.1600    1.2176 H   0  0  0  0  0  0  0  0  0  0  0  0
    2.5463    1.9015   -0.4019 H   0  0  0  0  0  0  0  0  0  0  0  0
    4.8866    1.0490   -0.6068 H   0  0  0  0  0  0  0  0  0  0  0  0
    4.8239    0.4460    1.0555 H   0  0  0  0  0  0  0  0  0  0  0  0
    4.8784    3.8806    2.4937 H   0  0  0  0  0  0  0  0  0  0  0  0
    4.7903    2.1758    2.9402 H   0  0  0  0  0  0  0  0  0  0  0  0
    1.4941    5.9526    2.1703 H   0  0  0  0  0  0  0  0  0  0  0  0
   -0.8540    4.3154    3.6157 H   0  0  0  0  0  0  0  0  0  0  0  0
   -0.0567    0.0539    2.5605 H   0  0  0  0  0  0  0  0  0  0  0  0
   -1.5094   -0.5285    3.3828 H   0  0  0  0  0  0  0  0  0  0  0  0
    0.0376   -1.3450    3.6365 H   0  0  0  0  0  0  0  0  0  0  0  0
    1.2010    4.3563    8.2189 H   0  0  0  0  0  0  0  0  0  0  0  0
   -0.9150    0.7771    9.9307 H   0  0  0  0  0  0  0  0  0  0  0  0
   -1.2487   -0.3168    8.5825 H   0  0  0  0  0  0  0  0  0  0  0  0
    6.7464    2.4233   -0.1727 H   0  0  0  0  0  0  0  0  0  0  0  0
    6.8058    1.8653    1.5129 H   0  0  0  0  0  0  0  0  0  0  0  0
    6.7339    3.5984    1.1311 H   0  0  0  0  0  0  0  0  0  0  0  0
  1  2  1  0  0  0  0
  1 30  1  0  0  0  0
  1 31  1  0  0  0  0
  2  3  1  0  0  0  0
  2 32  1  0  0  0  0
  2 33  1  0  0  0  0
  3  4  1  0  0  0  0
  3 34  1  0  0  0  0
  3 35  1  0  0  0  0
  4  5  1  0  0  0  0
  4 36  1  0  0  0  0
  4 37  1  0  0  0  0
  5  6  1  0  0  0  0
  5 29  1  0  0  0  0
  6  7  1  0  0  0  0
  6 38  1  0  0  0  0
  6 39  1  0  0  0  0
  7  8  1  6  0  0  0
  7  9  1  0  0  0  0
  7 14  1  0  0  0  0
  9 10  1  0  0  0  0
 10 12  1  0  0  0  0
 10 18  1  0  0  0  0
 10 11  1  6  0  0  0
 12 13  1  1  0  0  0
 12 14  1  0  0  0  0
 12 17  1  0  0  0  0
 14 15  1  1  0  0  0
 14 16  1  0  0  0  0
 16 40  1  0  0  0  0
 17 41  1  0  0  0  0
 18 19  1  0  0  0  0
 18 23  1  0  0  0  0
 19 20  1  0  0  0  0
 19 21  2  0  0  0  0
 20 42  1  0  0  0  0
 20 43  1  0  0  0  0
 20 44  1  0  0  0  0
 21 22  1  0  0  0  0
 22 23  2  0  0  0  0
 22 27  1  0  0  0  0
 23 24  1  0  0  0  0
 24 25  2  0  0  0  0
 25 26  1  0  0  0  0
 25 45  1  0  0  0  0
 26 27  2  0  0  0  0
 27 28  1  0  0  0  0
 28 46  1  0  0  0  0
 28 47  1  0  0  0  0
 29 48  1  0  0  0  0
 29 49  1  0  0  0  0
 29 50  1  0  0  0  0
M  END
$$$$
