A8N
 OpenBabel04121316073D

 57 59  0  0  0  0  0  0  0  0999 V2000
    0.9434   -0.0615   -0.0649 N   0  3  0  0  0  0  0  0  0  0  0  0
    0.5660   -0.9953   -0.2740 H   0  0  0  0  0  0  0  0  0  0  0  0
    0.5660    0.2313    0.8463 H   0  0  0  0  0  0  0  0  0  0  0  0
    0.5715    0.5851   -0.7728 H   0  0  0  0  0  0  0  0  0  0  0  0
    2.4207   -0.0569   -0.0699 C   0  0  0  0  0  0  0  0  0  0  0  0
    2.9174   -1.0235    0.9882 C   0  0  0  0  0  0  0  0  0  0  0  0
    4.4385   -1.0367    1.0027 C   0  0  0  0  0  0  0  0  0  0  0  0
    4.9561   -1.9997    2.0586 C   0  0  0  0  0  0  0  0  0  0  0  0
    6.4760   -1.9936    2.0596 C   0  0  0  0  0  0  0  0  0  0  0  0
    7.0057   -2.9400    3.1186 C   0  0  0  0  0  0  0  0  0  0  0  0
    8.5299   -2.9122    3.1314 C   0  0  0  0  0  0  0  0  0  0  0  0
    9.0338   -3.8495    4.2096 C   0  0  0  0  0  0  0  0  0  0  0  0
   10.4829   -3.9951    4.1261 N   0  0  0  0  0  0  0  0  0  0  0  0
   11.1261   -4.8036    5.0640 C   0  0  0  0  0  0  0  0  0  0  0  0
   10.9169   -6.1940    5.0061 C   0  0  0  0  0  0  0  0  0  0  0  0
   10.0501   -6.7839    3.9160 C   0  0  0  0  0  0  0  0  0  0  0  0
   10.1108   -8.2909    3.7775 C   0  0  0  0  0  0  0  0  0  0  0  0
   10.0436   -8.9092    5.1663 C   0  0  0  0  0  0  0  0  0  0  0  0
   11.2900   -8.5128    5.9568 C   0  0  0  0  0  0  0  0  0  0  0  0
   11.4864   -7.0217    5.9761 C   0  0  0  0  0  0  0  0  0  0  0  0
   12.2564   -6.4905    6.9373 N   0  3  0  0  0  0  0  0  0  0  0  0
   12.6702   -7.1109    7.6283 H   0  0  0  0  0  0  0  0  0  0  0  0
   12.5107   -5.1674    7.0395 C   0  0  0  0  0  0  0  0  0  0  0  0
   11.9472   -4.2802    6.0943 C   0  0  0  0  0  0  0  0  0  0  0  0
   12.2342   -2.9036    6.2461 C   0  0  0  0  0  0  0  0  0  0  0  0
   13.0457   -2.4447    7.2884 C   0  0  0  0  0  0  0  0  0  0  0  0
   13.5831   -3.3367    8.2094 C   0  0  0  0  0  0  0  0  0  0  0  0
   13.3176   -4.7014    8.0889 C   0  0  0  0  0  0  0  0  0  0  0  0
    2.7425    0.9687    0.1337 H   0  0  0  0  0  0  0  0  0  0  0  0
    2.7424   -0.3525   -1.0730 H   0  0  0  0  0  0  0  0  0  0  0  0
    2.5412   -2.0344    0.7869 H   0  0  0  0  0  0  0  0  0  0  0  0
    2.5413   -0.7314    1.9768 H   0  0  0  0  0  0  0  0  0  0  0  0
    4.8178   -0.0277    1.2068 H   0  0  0  0  0  0  0  0  0  0  0  0
    4.8183   -1.3317    0.0166 H   0  0  0  0  0  0  0  0  0  0  0  0
    4.5855   -3.0124    1.8571 H   0  0  0  0  0  0  0  0  0  0  0  0
    4.5815   -1.7080    3.0475 H   0  0  0  0  0  0  0  0  0  0  0  0
    6.8455   -0.9801    2.2556 H   0  0  0  0  0  0  0  0  0  0  0  0
    6.8512   -2.2934    1.0734 H   0  0  0  0  0  0  0  0  0  0  0  0
    6.6463   -3.9579    2.9147 H   0  0  0  0  0  0  0  0  0  0  0  0
    6.6179   -2.6574    4.1051 H   0  0  0  0  0  0  0  0  0  0  0  0
    8.8994   -1.8976    3.3125 H   0  0  0  0  0  0  0  0  0  0  0  0
    8.9094   -3.2305    2.1516 H   0  0  0  0  0  0  0  0  0  0  0  0
    8.5348   -4.7952    4.0147 H   0  0  0  0  0  0  0  0  0  0  0  0
    8.7071   -3.5240    5.2040 H   0  0  0  0  0  0  0  0  0  0  0  0
   11.0057   -3.2240    3.7206 H   0  0  0  0  0  0  0  0  0  0  0  0
   10.2802   -6.3187    2.9502 H   0  0  0  0  0  0  0  0  0  0  0  0
    9.0119   -6.5770    4.1822 H   0  0  0  0  0  0  0  0  0  0  0  0
   11.0268   -8.5898    3.2572 H   0  0  0  0  0  0  0  0  0  0  0  0
    9.2605   -8.6166    3.1672 H   0  0  0  0  0  0  0  0  0  0  0  0
    9.9633   -9.9962    5.0901 H   0  0  0  0  0  0  0  0  0  0  0  0
    9.1437   -8.5495    5.6859 H   0  0  0  0  0  0  0  0  0  0  0  0
   12.1747   -8.9672    5.4959 H   0  0  0  0  0  0  0  0  0  0  0  0
   11.2082   -8.8897    6.9807 H   0  0  0  0  0  0  0  0  0  0  0  0
   11.8259   -2.1736    5.5524 H   0  0  0  0  0  0  0  0  0  0  0  0
   13.2559   -1.3783    7.3803 H   0  0  0  0  0  0  0  0  0  0  0  0
   14.2077   -2.9668    9.0217 H   0  0  0  0  0  0  0  0  0  0  0  0
   13.7465   -5.3763    8.8252 H   0  0  0  0  0  0  0  0  0  0  0  0
  1  2  1  0  0  0  0
  1  3  1  0  0  0  0
  1  4  1  0  0  0  0
  1  5  1  0  0  0  0
  5  6  1  0  0  0  0
  5 29  1  0  0  0  0
  5 30  1  0  0  0  0
  6  7  1  0  0  0  0
  6 31  1  0  0  0  0
  6 32  1  0  0  0  0
  7  8  1  0  0  0  0
  7 33  1  0  0  0  0
  7 34  1  0  0  0  0
  8  9  1  0  0  0  0
  8 35  1  0  0  0  0
  8 36  1  0  0  0  0
  9 10  1  0  0  0  0
  9 37  1  0  0  0  0
  9 38  1  0  0  0  0
 10 11  1  0  0  0  0
 10 39  1  0  0  0  0
 10 40  1  0  0  0  0
 11 12  1  0  0  0  0
 11 41  1  0  0  0  0
 11 42  1  0  0  0  0
 12 13  1  0  0  0  0
 12 43  1  0  0  0  0
 12 44  1  0  0  0  0
 13 14  1  0  0  0  0
 13 45  1  0  0  0  0
 14 15  2  0  0  0  0
 14 24  1  0  0  0  0
 15 16  1  0  0  0  0
 15 20  1  0  0  0  0
 16 17  1  0  0  0  0
 16 46  1  0  0  0  0
 16 47  1  0  0  0  0
 17 18  1  0  0  0  0
 17 48  1  0  0  0  0
 17 49  1  0  0  0  0
 18 19  1  0  0  0  0
 18 50  1  0  0  0  0
 18 51  1  0  0  0  0
 19 20  1  0  0  0  0
 19 52  1  0  0  0  0
 19 53  1  0  0  0  0
 20 21  2  0  0  0  0
 21 22  1  0  0  0  0
 21 23  1  0  0  0  0
 23 24  2  0  0  0  0
 23 28  1  0  0  0  0
 24 25  1  0  0  0  0
 25 26  2  0  0  0  0
 25 54  1  0  0  0  0
 26 27  1  0  0  0  0
 26 55  1  0  0  0  0
 27 28  2  0  0  0  0
 27 56  1  0  0  0  0
 28 57  1  0  0  0  0
M  CHG  2   1   1  21   1
M  END
$$$$
