A8S
 OpenBabel04121316073D

 39 39  0  0  1  0  0  0  0  0999 V2000
    0.6162   -0.3649    0.4282 O   0  0  0  0  0  0  0  0  0  0  0  0
    1.8159   -0.0892   -0.0557 C   0  0  0  0  0  0  0  0  0  0  0  0
    1.8786    1.0035   -0.6255 O   0  0  0  0  0  0  0  0  0  0  0  0
    2.8164   -1.1018    0.3384 C   0  0  0  0  0  0  0  0  0  0  0  0
    4.1375   -1.1482    0.0701 C   0  0  0  0  0  0  0  0  0  0  0  0
    4.7706   -0.1861   -0.8469 C   0  0  0  0  0  0  0  0  0  0  0  0
    4.4558    1.1336   -0.8473 C   0  0  0  0  0  0  0  0  0  0  0  0
    5.3133    2.3150   -1.1150 C   0  0  1  0  0  0  0  0  0  0  0  0
    5.5067    2.3690   -2.5362 O   0  0  0  0  0  0  0  0  0  0  0  0
    4.6647    3.6684   -0.8178 C   0  0  0  0  0  0  0  0  0  0  0  0
    5.2216    4.5982   -0.0268 C   0  0  0  0  0  0  0  0  0  0  0  0
    6.4767    4.3814    0.6900 C   0  0  0  0  0  0  0  0  0  0  0  0
    6.9178    5.2624    1.4263 O   0  0  0  0  0  0  0  0  0  0  0  0
    7.2002    3.0961    0.5731 C   0  0  0  0  0  0  0  0  0  0  0  0
    6.6164    1.9639   -0.2643 C   0  0  0  0  0  0  0  0  0  0  0  0
    7.6394    1.6093   -1.3583 C   0  0  0  0  0  0  0  0  0  0  0  0
    6.4715    0.8740    0.9183 C   0  0  0  0  0  0  0  0  0  0  0  0
    3.4179    4.0829   -1.5790 C   0  0  0  0  0  0  0  0  0  0  0  0
    5.0225   -2.2176    0.7680 C   0  0  0  0  0  0  0  0  0  0  0  0
    0.2481    0.5237    0.2075 H   0  0  0  0  0  0  0  0  0  0  0  0
    2.4074   -1.8832    0.9679 H   0  0  0  0  0  0  0  0  0  0  0  0
    5.7473   -0.4885   -1.2392 H   0  0  0  0  0  0  0  0  0  0  0  0
    3.6832    1.5008   -0.2069 H   0  0  0  0  0  0  0  0  0  0  0  0
    4.6338    2.4662   -2.9574 H   0  0  0  0  0  0  0  0  0  0  0  0
    4.8064    5.5922    0.1015 H   0  0  0  0  0  0  0  0  0  0  0  0
    7.2692    2.7854    1.6260 H   0  0  0  0  0  0  0  0  0  0  0  0
    8.2202    3.2927    0.2487 H   0  0  0  0  0  0  0  0  0  0  0  0
    7.8159    2.5205   -1.9537 H   0  0  0  0  0  0  0  0  0  0  0  0
    7.2713    0.8583   -2.0704 H   0  0  0  0  0  0  0  0  0  0  0  0
    8.5855    1.2747   -0.9510 H   0  0  0  0  0  0  0  0  0  0  0  0
    5.5751    1.0803    1.5361 H   0  0  0  0  0  0  0  0  0  0  0  0
    7.3309    0.8442    1.5927 H   0  0  0  0  0  0  0  0  0  0  0  0
    6.4695   -0.1703    0.6297 H   0  0  0  0  0  0  0  0  0  0  0  0
    2.9870    3.2718   -2.1724 H   0  0  0  0  0  0  0  0  0  0  0  0
    3.6595    4.8965   -2.2765 H   0  0  0  0  0  0  0  0  0  0  0  0
    2.6308    4.4239   -0.8989 H   0  0  0  0  0  0  0  0  0  0  0  0
    4.4228   -3.0312    1.1969 H   0  0  0  0  0  0  0  0  0  0  0  0
    5.6036   -1.8344    1.6265 H   0  0  0  0  0  0  0  0  0  0  0  0
    5.7456   -2.6763    0.0841 H   0  0  0  0  0  0  0  0  0  0  0  0
  1  2  1  0  0  0  0
  1 20  1  0  0  0  0
  2  3  2  0  0  0  0
  2  4  1  0  0  0  0
  4  5  2  0  0  0  0
  4 21  1  0  0  0  0
  5  6  1  0  0  0  0
  5 19  1  0  0  0  0
  6  7  2  0  0  0  0
  6 22  1  0  0  0  0
  7 23  1  0  0  0  0
  8  7  1  1  0  0  0
  8  9  1  0  0  0  0
  8 10  1  0  0  0  0
  8 15  1  0  0  0  0
  9 24  1  0  0  0  0
 10 11  2  0  0  0  0
 10 18  1  0  0  0  0
 11 12  1  0  0  0  0
 11 25  1  0  0  0  0
 12 13  2  0  0  0  0
 12 14  1  0  0  0  0
 14 15  1  0  0  0  0
 14 26  1  0  0  0  0
 14 27  1  0  0  0  0
 15 16  1  0  0  0  0
 15 17  1  0  0  0  0
 16 28  1  0  0  0  0
 16 29  1  0  0  0  0
 16 30  1  0  0  0  0
 17 31  1  0  0  0  0
 17 32  1  0  0  0  0
 17 33  1  0  0  0  0
 18 34  1  0  0  0  0
 18 35  1  0  0  0  0
 18 36  1  0  0  0  0
 19 37  1  0  0  0  0
 19 38  1  0  0  0  0
 19 39  1  0  0  0  0
M  END
$$$$
