AA1
 OpenBabel04121316073D

 29 28  0  0  0  0  0  0  0  0999 V2000
    0.8906   -0.0062   -0.0330 C   0  0  0  0  0  0  0  0  0  0  0  0
    2.4002   -0.0098   -0.0085 C   0  0  0  0  0  0  0  0  0  0  0  0
    2.7907   -0.2047    1.3559 O   0  0  0  0  0  0  0  0  0  0  0  0
    4.1376   -0.2288    1.5221 C   0  0  0  0  0  0  0  0  0  0  0  0
    4.9287   -0.0953    0.6009 O   0  0  0  0  0  0  0  0  0  0  0  0
    4.4675   -0.4393    2.9917 C   0  0  0  0  0  0  0  0  0  0  0  0
    5.9592   -0.4603    3.1472 C   0  0  0  0  0  0  0  0  0  0  0  0
    6.6050   -0.6389    4.4714 C   0  0  0  0  0  0  0  0  0  0  0  0
    5.9493   -0.7825    5.5048 O   0  0  0  0  0  0  0  0  0  0  0  0
    8.0137   -0.6061    4.4643 N   0  0  0  0  0  0  0  0  0  0  0  0
    8.9867   -0.4886    3.3076 C   0  0  0  0  0  0  0  0  0  0  0  0
    8.6365   -0.2640    1.7981 C   0  0  0  0  0  0  0  0  0  0  0  0
    7.5330   -0.1865    1.2855 O   0  0  0  0  0  0  0  0  0  0  0  0
    9.6672   -0.1409    0.9433 O   0  0  0  0  0  0  0  0  0  0  0  0
    8.6170   -0.8580    5.7610 N   0  0  0  0  0  0  0  0  0  0  0  0
    0.5157    0.1386   -1.0483 H   0  0  0  0  0  0  0  0  0  0  0  0
    0.5060    0.7908    0.6114 H   0  0  0  0  0  0  0  0  0  0  0  0
    0.5059   -0.9517    0.3629 H   0  0  0  0  0  0  0  0  0  0  0  0
    2.7846    0.9482   -0.3803 H   0  0  0  0  0  0  0  0  0  0  0  0
    2.7846   -0.8255   -0.6335 H   0  0  0  0  0  0  0  0  0  0  0  0
    4.0540   -1.3944    3.3215 H   0  0  0  0  0  0  0  0  0  0  0  0
    4.0540    0.3859    3.5752 H   0  0  0  0  0  0  0  0  0  0  0  0
    6.2972    0.5303    2.8240 H   0  0  0  0  0  0  0  0  0  0  0  0
    6.3019   -1.3220    2.5639 H   0  0  0  0  0  0  0  0  0  0  0  0
    9.6052   -1.3951    3.3539 H   0  0  0  0  0  0  0  0  0  0  0  0
    9.6295    0.3574    3.5898 H   0  0  0  0  0  0  0  0  0  0  0  0
   10.5694   -0.2033    1.2814 H   0  0  0  0  0  0  0  0  0  0  0  0
    7.8227   -0.9779    6.4165 H   0  0  0  0  0  0  0  0  0  0  0  0
    9.0554    0.0048    6.0894 H   0  0  0  0  0  0  0  0  0  0  0  0
  1  2  1  0  0  0  0
  1 16  1  0  0  0  0
  1 17  1  0  0  0  0
  1 18  1  0  0  0  0
  2  3  1  0  0  0  0
  2 19  1  0  0  0  0
  2 20  1  0  0  0  0
  3  4  1  0  0  0  0
  4  5  2  0  0  0  0
  4  6  1  0  0  0  0
  6  7  1  0  0  0  0
  6 21  1  0  0  0  0
  6 22  1  0  0  0  0
  7  8  1  0  0  0  0
  7 23  1  0  0  0  0
  7 24  1  0  0  0  0
  8  9  2  0  0  0  0
  8 10  1  0  0  0  0
 10 11  1  0  0  0  0
 10 15  1  0  0  0  0
 11 12  1  0  0  0  0
 11 25  1  0  0  0  0
 11 26  1  0  0  0  0
 12 13  2  0  0  0  0
 12 14  1  0  0  0  0
 14 27  1  0  0  0  0
 15 28  1  0  0  0  0
 15 29  1  0  0  0  0
M  END
$$$$
