AA9
 OpenBabel04121316073D

 93 96  0  0  1  0  0  0  0  0999 V2000
   18.0439    8.4699   -6.2815 C   0  0  0  0  0  0  0  0  0  0  0  0
   16.9283    8.1389   -5.3230 C   0  0  0  0  0  0  0  0  0  0  0  0
   16.7273    9.2955   -4.4863 N   0  0  0  0  0  0  0  0  0  0  0  0
   15.7668    9.2183   -3.5154 C   0  0  0  0  0  0  0  0  0  0  0  0
   16.0093    8.4987   -2.3592 C   0  0  0  0  0  0  0  0  0  0  0  0
   14.9989    8.4233   -1.4490 C   0  0  0  0  0  0  0  0  0  0  0  0
   13.7908    9.0075   -1.8339 C   0  0  0  0  0  0  0  0  0  0  0  0
   13.4623    9.7922   -2.8923 C   0  0  0  0  0  0  0  0  0  0  0  0
   14.5714    9.9482   -3.6993 C   0  0  0  0  0  0  0  0  0  0  0  0
   12.0760   10.3550   -3.0435 N   0  0  0  0  0  0  0  0  0  0  0  0
   10.6791   10.3075   -1.9869 S   0  0  0  0  0  0  0  0  0  0  0  0
   10.4173   11.6317   -1.4499 O   0  0  0  0  0  0  0  0  0  0  0  0
    9.6321    9.4928   -2.5713 O   0  0  0  0  0  0  0  0  0  0  0  0
   11.0554    9.4620   -0.5813 C   0  0  0  0  0  0  0  0  0  0  0  0
   11.7128   10.9659   -4.2996 C   0  0  0  0  0  0  0  0  0  0  0  0
   10.5952   11.7991   -4.3950 C   0  0  0  0  0  0  0  0  0  0  0  0
   10.1571   12.2395   -5.6231 C   0  0  0  0  0  0  0  0  0  0  0  0
   10.9827   12.0975   -6.7242 C   0  0  0  0  0  0  0  0  0  0  0  0
   12.1902   11.4412   -6.6108 C   0  0  0  0  0  0  0  0  0  0  0  0
   12.4217   10.7174   -5.4655 C   0  0  0  0  0  0  0  0  0  0  0  0
   15.2702    7.7794   -0.1387 C   0  0  0  0  0  0  0  0  0  0  0  0
   16.3510    7.2501    0.0784 O   0  0  0  0  0  0  0  0  0  0  0  0
   14.3830    7.8203    0.8995 N   0  0  0  0  0  0  0  0  0  0  0  0
   12.9289    8.0952    0.9660 C   0  0  2  0  0  0  0  0  0  0  0  0
   12.9716    8.7874    0.2141 H   0  0  0  0  0  0  0  0  0  0  0  0
   12.4329    9.1590    2.0270 C   0  0  1  0  0  0  0  0  0  0  0  0
   11.4532    9.5852    1.7823 H   0  0  0  0  0  0  0  0  0  0  0  0
   12.3173    8.6461    3.4427 C   0  0  0  0  0  0  0  0  0  0  0  0
   11.3395    7.5838    3.5624 N   0  0  0  0  0  0  0  0  0  0  0  0
   11.5638    6.6206    4.6739 C   0  0  2  0  0  0  0  0  0  0  0  0
   10.9156    5.7511    4.4739 H   0  0  0  0  0  0  0  0  0  0  0  0
   10.9177    7.2928    5.8164 C   0  0  0  0  0  0  0  0  0  0  0  0
   11.5483    7.6981    6.8294 O   0  0  0  0  0  0  0  0  0  0  0  0
    9.6064    7.5140    5.6122 N   0  0  0  0  0  0  0  0  0  0  0  0
    9.0111    8.4285    6.5183 C   0  0  0  0  0  0  0  0  0  0  0  0
    9.7013    9.8090    6.5104 C   0  0  0  0  0  0  0  0  0  0  0  0
    9.4866   10.5428    5.1976 C   0  0  0  0  0  0  0  0  0  0  0  0
    8.0019   10.6476    4.9037 C   0  0  0  0  0  0  0  0  0  0  0  0
    7.3508    9.2682    4.8411 C   0  0  0  0  0  0  0  0  0  0  0  0
    7.5490    8.5037    6.1549 C   0  0  0  0  0  0  0  0  0  0  0  0
   12.9138    6.2890    5.3812 C   0  0  0  0  0  0  0  0  0  0  0  0
   13.3418   10.2827    2.0122 O   0  0  0  0  0  0  0  0  0  0  0  0
   11.9587    6.8759    0.4666 C   0  0  0  0  0  0  0  0  0  0  0  0
   12.1115    5.6725    1.3202 C   0  0  0  0  0  0  0  0  0  0  0  0
   13.1651    5.7850    2.1802 C   0  0  0  0  0  0  0  0  0  0  0  0
   13.5689    4.9022    3.0962 C   0  0  0  0  0  0  0  0  0  0  0  0
   12.5674    4.0533    3.5068 C   0  0  0  0  0  0  0  0  0  0  0  0
   11.4298    3.8758    2.7011 C   0  0  0  0  0  0  0  0  0  0  0  0
   11.2655    4.6057    1.5138 C   0  0  0  0  0  0  0  0  0  0  0  0
   18.2573    7.6191   -6.9290 H   0  0  0  0  0  0  0  0  0  0  0  0
   18.9474    8.7343   -5.7222 H   0  0  0  0  0  0  0  0  0  0  0  0
   17.7678    9.3317   -6.8990 H   0  0  0  0  0  0  0  0  0  0  0  0
   17.1933    7.2644   -4.7167 H   0  0  0  0  0  0  0  0  0  0  0  0
   16.0132    7.8915   -5.8791 H   0  0  0  0  0  0  0  0  0  0  0  0
   17.2204   10.1669   -4.6188 H   0  0  0  0  0  0  0  0  0  0  0  0
   16.9753    8.0430   -2.1632 H   0  0  0  0  0  0  0  0  0  0  0  0
   12.9361    8.8409   -1.3091 H   0  0  0  0  0  0  0  0  0  0  0  0
   14.5965   10.6093   -4.5505 H   0  0  0  0  0  0  0  0  0  0  0  0
   11.8376   10.1006   -0.1680 H   0  0  0  0  0  0  0  0  0  0  0  0
   11.2740    8.4751   -0.9701 H   0  0  0  0  0  0  0  0  0  0  0  0
   10.2492    9.3546    0.1376 H   0  0  0  0  0  0  0  0  0  0  0  0
    9.9687   12.0736   -3.5534 H   0  0  0  0  0  0  0  0  0  0  0  0
    9.1802   12.6998   -5.6911 H   0  0  0  0  0  0  0  0  0  0  0  0
   10.6668   12.4639   -7.6881 H   0  0  0  0  0  0  0  0  0  0  0  0
   12.9092   11.3910   -7.4184 H   0  0  0  0  0  0  0  0  0  0  0  0
   13.1618    9.9361   -5.5500 H   0  0  0  0  0  0  0  0  0  0  0  0
   14.8385    7.3747    1.6867 H   0  0  0  0  0  0  0  0  0  0  0  0
   12.0563    9.4600    4.1229 H   0  0  0  0  0  0  0  0  0  0  0  0
   13.3313    8.3655    3.7101 H   0  0  0  0  0  0  0  0  0  0  0  0
   11.0396    7.1352    2.7030 H   0  0  0  0  0  0  0  0  0  0  0  0
    9.2902    7.4337    4.6439 H   0  0  0  0  0  0  0  0  0  0  0  0
    9.1593    7.9642    7.5007 H   0  0  0  0  0  0  0  0  0  0  0  0
   10.7820    9.7640    6.6871 H   0  0  0  0  0  0  0  0  0  0  0  0
    9.2961   10.3921    7.3417 H   0  0  0  0  0  0  0  0  0  0  0  0
    9.9771   10.0141    4.3744 H   0  0  0  0  0  0  0  0  0  0  0  0
    9.9458   11.5349    5.2547 H   0  0  0  0  0  0  0  0  0  0  0  0
    7.8613   11.1757    3.9572 H   0  0  0  0  0  0  0  0  0  0  0  0
    7.5262   11.2340    5.6966 H   0  0  0  0  0  0  0  0  0  0  0  0
    7.7814    8.7122    3.9960 H   0  0  0  0  0  0  0  0  0  0  0  0
    6.2824    9.3596    4.6364 H   0  0  0  0  0  0  0  0  0  0  0  0
    7.1437    7.4880    6.0521 H   0  0  0  0  0  0  0  0  0  0  0  0
    7.0235    8.9975    6.9738 H   0  0  0  0  0  0  0  0  0  0  0  0
   12.7010    5.8540    6.3651 H   0  0  0  0  0  0  0  0  0  0  0  0
   13.5294    7.1859    5.4004 H   0  0  0  0  0  0  0  0  0  0  0  0
   13.6318    5.5225    5.1534 H   0  0  0  0  0  0  0  0  0  0  0  0
   13.3359   10.7118    1.1369 H   0  0  0  0  0  0  0  0  0  0  0  0
   12.2108    6.5599   -0.5571 H   0  0  0  0  0  0  0  0  0  0  0  0
   10.8978    7.1643    0.4860 H   0  0  0  0  0  0  0  0  0  0  0  0
   13.4507    6.7683    2.5080 H   0  0  0  0  0  0  0  0  0  0  0  0
   14.4029    5.3565    3.6422 H   0  0  0  0  0  0  0  0  0  0  0  0
   12.5336    3.7325    4.5494 H   0  0  0  0  0  0  0  0  0  0  0  0
   10.6270    3.2512    3.0794 H   0  0  0  0  0  0  0  0  0  0  0  0
   10.4100    4.4417    0.8716 H   0  0  0  0  0  0  0  0  0  0  0  0
  1  2  1  0  0  0  0
  1 50  1  0  0  0  0
  1 51  1  0  0  0  0
  1 52  1  0  0  0  0
  2  3  1  0  0  0  0
  2 53  1  0  0  0  0
  2 54  1  0  0  0  0
  3  4  1  0  0  0  0
  3 55  1  0  0  0  0
  4  5  2  0  0  0  0
  4  9  1  0  0  0  0
  5  6  1  0  0  0  0
  5 56  1  0  0  0  0
  6  7  2  0  0  0  0
  6 21  1  0  0  0  0
  7  8  1  0  0  0  0
  7 57  1  0  0  0  0
  8  9  2  0  0  0  0
  8 10  1  0  0  0  0
  9 58  1  0  0  0  0
 10 11  1  0  0  0  0
 10 15  1  0  0  0  0
 11 12  2  0  0  0  0
 11 13  2  0  0  0  0
 11 14  1  0  0  0  0
 14 59  1  0  0  0  0
 14 60  1  0  0  0  0
 14 61  1  0  0  0  0
 15 16  2  0  0  0  0
 15 20  1  0  0  0  0
 16 17  1  0  0  0  0
 16 62  1  0  0  0  0
 17 18  2  0  0  0  0
 17 63  1  0  0  0  0
 18 19  1  0  0  0  0
 18 64  1  0  0  0  0
 19 20  2  0  0  0  0
 19 65  1  0  0  0  0
 20 66  1  0  0  0  0
 21 22  2  0  0  0  0
 21 23  1  0  0  0  0
 23 67  1  0  0  0  0
 24 26  1  0  0  0  0
 24 43  1  0  0  0  0
 24 25  1  6  0  0  0
 24 23  1  0  0  0  0
 26 27  1  6  0  0  0
 26 28  1  0  0  0  0
 26 42  1  0  0  0  0
 28 29  1  0  0  0  0
 28 68  1  0  0  0  0
 28 69  1  0  0  0  0
 29 70  1  0  0  0  0
 30 32  1  0  0  0  0
 30 41  1  0  0  0  0
 30 31  1  6  0  0  0
 30 29  1  0  0  0  0
 32 33  2  0  0  0  0
 32 34  1  0  0  0  0
 34 35  1  0  0  0  0
 34 71  1  0  0  0  0
 35 36  1  0  0  0  0
 35 40  1  0  0  0  0
 35 72  1  0  0  0  0
 36 37  1  0  0  0  0
 36 73  1  0  0  0  0
 36 74  1  0  0  0  0
 37 38  1  0  0  0  0
 37 75  1  0  0  0  0
 37 76  1  0  0  0  0
 38 39  1  0  0  0  0
 38 77  1  0  0  0  0
 38 78  1  0  0  0  0
 39 40  1  0  0  0  0
 39 79  1  0  0  0  0
 39 80  1  0  0  0  0
 40 81  1  0  0  0  0
 40 82  1  0  0  0  0
 41 83  1  0  0  0  0
 41 84  1  0  0  0  0
 41 85  1  0  0  0  0
 42 86  1  0  0  0  0
 43 44  1  0  0  0  0
 43 87  1  0  0  0  0
 43 88  1  0  0  0  0
 44 45  2  0  0  0  0
 44 49  1  0  0  0  0
 45 46  1  0  0  0  0
 45 89  1  0  0  0  0
 46 47  2  0  0  0  0
 46 90  1  0  0  0  0
 47 48  1  0  0  0  0
 47 91  1  0  0  0  0
 48 49  2  0  0  0  0
 48 92  1  0  0  0  0
 49 93  1  0  0  0  0
M  END
$$$$
