AAA
 OpenBabel04121316073D

 39 40  0  0  1  0  0  0  0  0999 V2000
    0.9003   -0.0166    0.1469 C   0  0  0  0  0  0  0  0  0  0  0  0
    2.3940   -0.0013    0.2921 C   0  0  0  0  0  0  0  0  0  0  0  0
    3.1073    1.1793    0.1289 C   0  0  0  0  0  0  0  0  0  0  0  0
    4.5010    1.1594    0.0854 C   0  0  0  0  0  0  0  0  0  0  0  0
    5.2002   -0.0575    0.0309 C   0  0  0  0  0  0  0  0  0  0  0  0
    4.4805   -1.2716    0.1881 C   0  0  0  0  0  0  0  0  0  0  0  0
    3.1000   -1.1983    0.4606 C   0  0  0  0  0  0  0  0  0  0  0  0
    5.0824   -2.4982   -0.0774 N   0  0  0  0  0  0  0  0  0  0  0  0
    4.4090   -3.7594   -0.4187 C   0  0  1  0  0  0  0  0  0  0  0  0
    3.8720   -4.0334    0.5027 H   0  0  0  0  0  0  0  0  0  0  0  0
    3.3770   -3.7450   -1.5828 C   0  0  0  0  0  0  0  0  0  0  0  0
    2.6150   -4.8866   -1.9446 C   0  0  0  0  0  0  0  0  0  0  0  0
    2.7803   -6.7069   -1.4141 Br  0  0  0  0  0  0  0  0  0  0  0  0
    1.4727   -4.7769   -2.7447 C   0  0  0  0  0  0  0  0  0  0  0  0
    0.8598   -3.5609   -2.9190 C   0  0  0  0  0  0  0  0  0  0  0  0
    1.6039   -2.4334   -2.6801 C   0  0  0  0  0  0  0  0  0  0  0  0
    2.9190   -2.5563   -2.2098 C   0  0  0  0  0  0  0  0  0  0  0  0
    4.0224   -1.1522   -2.9058 Br  0  0  0  0  0  0  0  0  0  0  0  0
    5.5317   -4.8266   -0.6109 C   0  0  0  0  0  0  0  0  0  0  0  0
    6.6171   -4.6139   -1.1123 O   0  0  0  0  0  0  0  0  0  0  0  0
    5.2359   -6.0870   -0.1500 N   0  0  0  0  0  0  0  0  0  0  0  0
    6.6372   -0.0884   -0.4367 C   0  0  0  0  0  0  0  0  0  0  0  0
    7.1916   -1.1538   -0.7170 O   0  0  0  0  0  0  0  0  0  0  0  0
    7.4168    1.1828   -0.6206 C   0  0  0  0  0  0  0  0  0  0  0  0
    0.5015    0.9962    0.0307 H   0  0  0  0  0  0  0  0  0  0  0  0
    0.4361   -0.4792    1.0193 H   0  0  0  0  0  0  0  0  0  0  0  0
    0.6070   -0.5736   -0.7504 H   0  0  0  0  0  0  0  0  0  0  0  0
    2.5872    2.1227   -0.0195 H   0  0  0  0  0  0  0  0  0  0  0  0
    4.9858    2.1209   -0.0132 H   0  0  0  0  0  0  0  0  0  0  0  0
    2.5267   -2.1111    0.5974 H   0  0  0  0  0  0  0  0  0  0  0  0
    6.0281   -2.4244   -0.4956 H   0  0  0  0  0  0  0  0  0  0  0  0
    1.0163   -5.6632   -3.1755 H   0  0  0  0  0  0  0  0  0  0  0  0
   -0.1390   -3.5049   -3.3305 H   0  0  0  0  0  0  0  0  0  0  0  0
    1.2013   -1.4680   -2.9756 H   0  0  0  0  0  0  0  0  0  0  0  0
    4.2613   -6.3060    0.0233 H   0  0  0  0  0  0  0  0  0  0  0  0
    5.7362   -6.8188   -0.6411 H   0  0  0  0  0  0  0  0  0  0  0  0
    6.8412    2.0906   -0.4797 H   0  0  0  0  0  0  0  0  0  0  0  0
    7.8087    1.2069   -1.6422 H   0  0  0  0  0  0  0  0  0  0  0  0
    8.2359    1.1821    0.1009 H   0  0  0  0  0  0  0  0  0  0  0  0
  1  2  1  0  0  0  0
  1 25  1  0  0  0  0
  1 26  1  0  0  0  0
  1 27  1  0  0  0  0
  2  3  2  0  0  0  0
  2  7  1  0  0  0  0
  3  4  1  0  0  0  0
  3 28  1  0  0  0  0
  4  5  2  0  0  0  0
  4 29  1  0  0  0  0
  5  6  1  0  0  0  0
  5 22  1  0  0  0  0
  6  7  2  0  0  0  0
  6  8  1  0  0  0  0
  7 30  1  0  0  0  0
  8  9  1  0  0  0  0
  8 31  1  0  0  0  0
  9 10  1  1  0  0  0
  9 11  1  0  0  0  0
  9 19  1  0  0  0  0
 11 12  2  0  0  0  0
 11 17  1  0  0  0  0
 12 13  1  0  0  0  0
 12 14  1  0  0  0  0
 14 15  2  0  0  0  0
 14 32  1  0  0  0  0
 15 16  1  0  0  0  0
 15 33  1  0  0  0  0
 16 17  2  0  0  0  0
 16 34  1  0  0  0  0
 17 18  1  0  0  0  0
 19 20  2  0  0  0  0
 19 21  1  0  0  0  0
 21 35  1  0  0  0  0
 21 36  1  0  0  0  0
 22 23  2  0  0  0  0
 22 24  1  0  0  0  0
 24 37  1  0  0  0  0
 24 38  1  0  0  0  0
 24 39  1  0  0  0  0
M  END
$$$$
