AAM
 OpenBabel04121316073D

 37 39  0  0  1  0  0  0  0  0999 V2000
    2.1162    0.5273   -1.2148 O   0  0  0  0  0  0  0  0  0  0  0  0
    2.2485    0.1486    0.1460 C   0  0  2  0  0  0  0  0  0  0  0  0
    1.2127    0.0517    0.4893 H   0  0  0  0  0  0  0  0  0  0  0  0
    2.9587    1.2462    0.9264 C   0  0  2  0  0  0  0  0  0  0  0  0
    2.3594    1.3906    1.8305 H   0  0  0  0  0  0  0  0  0  0  0  0
    3.0739    2.5146    0.2920 O   0  0  0  0  0  0  0  0  0  0  0  0
    4.3315    0.6628    1.2491 C   0  0  2  0  0  0  0  0  0  0  0  0
    5.0942    0.8340    0.4921 H   0  0  0  0  0  0  0  0  0  0  0  0
    4.1838   -0.7481    1.3461 O   0  0  0  0  0  0  0  0  0  0  0  0
    3.0271   -1.1275    0.5804 C   0  0  2  0  0  0  0  0  0  0  0  0
    2.3933   -1.6590    1.3047 H   0  0  0  0  0  0  0  0  0  0  0  0
    3.4341   -2.0949   -0.4176 N   0  0  0  0  0  0  0  0  0  0  0  0
    3.1585   -3.4385   -0.2922 C   0  0  0  0  0  0  0  0  0  0  0  0
    3.3641   -4.0865   -1.4149 N   0  0  0  0  0  0  0  0  0  0  0  0
    3.8659   -3.1487   -2.2698 C   0  0  0  0  0  0  0  0  0  0  0  0
    4.0264   -1.9186   -1.6507 C   0  0  0  0  0  0  0  0  0  0  0  0
    4.5765   -0.8742   -2.3874 C   0  0  0  0  0  0  0  0  0  0  0  0
    4.7397    0.4145   -1.9714 N   0  0  0  0  0  0  0  0  0  0  0  0
    4.7865   -1.0661   -3.6926 N   0  0  0  0  0  0  0  0  0  0  0  0
    4.5602   -2.2803   -4.2062 C   0  0  0  0  0  0  0  0  0  0  0  0
    4.1320   -3.3700   -3.5719 N   0  0  0  0  0  0  0  0  0  0  0  0
    4.9668    1.2947    2.4509 C   0  0  0  0  0  0  0  0  0  0  0  0
    3.9473    1.7441    3.3396 O   0  0  0  0  0  0  0  0  0  0  0  0
    4.5708    2.5462    4.7399 P   0  0  0  0  0  0  0  0  0  0  0  0
    5.4375    1.3487    5.1113 O   0  0  0  0  0  0  0  0  0  0  0  0
    5.4091    3.5592    3.7809 O   0  0  0  0  0  0  0  0  0  0  0  0
    5.1943    3.3483    6.1401 O   0  0  0  0  0  0  0  0  0  0  0  0
    2.8097    0.1488   -1.7711 H   0  0  0  0  0  0  0  0  0  0  0  0
    3.2848    2.3842   -0.6491 H   0  0  0  0  0  0  0  0  0  0  0  0
    2.7755   -3.8841    0.6198 H   0  0  0  0  0  0  0  0  0  0  0  0
    4.4556    0.7154   -1.0676 H   0  0  0  0  0  0  0  0  0  0  0  0
    4.7357    1.1067   -2.7097 H   0  0  0  0  0  0  0  0  0  0  0  0
    4.7442   -2.3706   -5.2720 H   0  0  0  0  0  0  0  0  0  0  0  0
    5.6673    0.6089    2.9330 H   0  0  0  0  0  0  0  0  0  0  0  0
    5.5253    2.1634    2.0853 H   0  0  0  0  0  0  0  0  0  0  0  0
    4.8239    4.0025    3.1386 H   0  0  0  0  0  0  0  0  0  0  0  0
    5.0591    2.7518    6.8987 H   0  0  0  0  0  0  0  0  0  0  0  0
  1 28  1  0  0  0  0
  2  4  1  0  0  0  0
  2 10  1  0  0  0  0
  2  3  1  1  0  0  0
  2  1  1  0  0  0  0
  4  7  1  0  0  0  0
  4  6  1  0  0  0  0
  4  5  1  1  0  0  0
  6 29  1  0  0  0  0
  7  9  1  0  0  0  0
  7 22  1  0  0  0  0
  7  8  1  6  0  0  0
  9 10  1  0  0  0  0
 10 11  1  1  0  0  0
 10 12  1  0  0  0  0
 12 13  1  0  0  0  0
 12 16  1  0  0  0  0
 13 14  2  0  0  0  0
 13 30  1  0  0  0  0
 14 15  1  0  0  0  0
 15 16  2  0  0  0  0
 15 21  1  0  0  0  0
 16 17  1  0  0  0  0
 17 18  1  0  0  0  0
 17 19  2  0  0  0  0
 18 31  1  0  0  0  0
 18 32  1  0  0  0  0
 19 20  1  0  0  0  0
 20 21  2  0  0  0  0
 20 33  1  0  0  0  0
 22 23  1  0  0  0  0
 22 34  1  0  0  0  0
 22 35  1  0  0  0  0
 23 24  1  0  0  0  0
 24 25  2  0  0  0  0
 24 26  1  0  0  0  0
 24 27  1  0  0  0  0
 26 36  1  0  0  0  0
 27 37  1  0  0  0  0
M  END
$$$$
