AAN
 OpenBabel04121316073D

 20 20  0  0  0  0  0  0  0  0999 V2000
    0.9487    0.0384    0.1841 O   0  0  0  0  0  0  0  0  0  0  0  0
    2.2716   -0.0364   -0.0801 C   0  0  0  0  0  0  0  0  0  0  0  0
    2.7118   -0.4605   -1.1455 O   0  0  0  0  0  0  0  0  0  0  0  0
    3.0439    0.3036    1.1707 C   0  0  0  0  0  0  0  0  0  0  0  0
    4.5342    0.2446    0.9674 C   0  0  0  0  0  0  0  0  0  0  0  0
    5.2658    1.4290    0.8207 C   0  0  0  0  0  0  0  0  0  0  0  0
    6.5813    1.3808    0.3647 C   0  0  0  0  0  0  0  0  0  0  0  0
    7.1961    0.1385    0.1635 C   0  0  0  0  0  0  0  0  0  0  0  0
    6.5181   -1.0513    0.4499 C   0  0  0  0  0  0  0  0  0  0  0  0
    5.1725   -0.9951    0.8042 C   0  0  0  0  0  0  0  0  0  0  0  0
    8.5452    0.0819   -0.4073 N   0  3  0  0  0  0  0  0  0  0  0  0
    9.0885    1.1533   -0.7109 O   0  0  0  0  0  0  0  0  0  0  0  0
    9.0576   -1.0359   -0.5666 O   0  5  0  0  0  0  0  0  0  0  0  0
    0.5677   -0.8507    0.0418 H   0  0  0  0  0  0  0  0  0  0  0  0
    2.7572   -0.4142    1.9499 H   0  0  0  0  0  0  0  0  0  0  0  0
    2.7356    1.3022    1.4974 H   0  0  0  0  0  0  0  0  0  0  0  0
    4.7991    2.3949    1.0050 H   0  0  0  0  0  0  0  0  0  0  0  0
    7.0972    2.3121    0.1429 H   0  0  0  0  0  0  0  0  0  0  0  0
    7.0023   -2.0203    0.3538 H   0  0  0  0  0  0  0  0  0  0  0  0
    4.6091   -1.9231    0.8923 H   0  0  0  0  0  0  0  0  0  0  0  0
  1  2  1  0  0  0  0
  1 14  1  0  0  0  0
  2  3  2  0  0  0  0
  2  4  1  0  0  0  0
  4  5  1  0  0  0  0
  4 15  1  0  0  0  0
  4 16  1  0  0  0  0
  5  6  2  0  0  0  0
  5 10  1  0  0  0  0
  6  7  1  0  0  0  0
  6 17  1  0  0  0  0
  7  8  2  0  0  0  0
  7 18  1  0  0  0  0
  8  9  1  0  0  0  0
  8 11  1  0  0  0  0
  9 10  2  0  0  0  0
  9 19  1  0  0  0  0
 10 20  1  0  0  0  0
 11 12  2  0  0  0  0
 11 13  1  0  0  0  0
M  CHG  2  11   1  13  -1
M  END
$$$$
