AAQ
 OpenBabel04121316073D

 48 51  0  0  0  0  0  0  0  0999 V2000
    1.0534    0.0497   -0.1413 C   0  0  0  0  0  0  0  0  0  0  0  0
    2.5042   -0.0314   -0.1654 N   0  0  0  0  0  0  0  0  0  0  0  0
    3.1546    0.1140   -1.3413 C   0  0  0  0  0  0  0  0  0  0  0  0
    3.5590    1.1342   -2.0816 N   0  0  0  0  0  0  0  0  0  0  0  0
    4.1824    0.5772   -3.2219 C   0  0  0  0  0  0  0  0  0  0  0  0
    4.2092   -0.8009   -3.0536 C   0  0  0  0  0  0  0  0  0  0  0  0
    3.5795   -1.0545   -1.8785 N   0  0  0  0  0  0  0  0  0  0  0  0
    3.3928   -1.9600   -1.4816 H   0  0  0  0  0  0  0  0  0  0  0  0
    4.7519   -1.7037   -3.9344 C   0  0  0  0  0  0  0  0  0  0  0  0
    5.1059   -1.1955   -5.1700 C   0  0  0  0  0  0  0  0  0  0  0  0
    5.1310    0.1748   -5.4667 C   0  0  0  0  0  0  0  0  0  0  0  0
    4.7670    1.1319   -4.4267 C   0  0  0  0  0  0  0  0  0  0  0  0
    5.0127    2.6421   -4.5494 C   0  0  0  0  0  0  0  0  0  0  0  0
    5.6949    3.1097   -5.8469 C   0  0  0  0  0  0  0  0  0  0  0  0
    5.9655    4.5446   -5.8934 N   0  0  0  0  0  0  0  0  0  0  0  0
    6.5808    4.8998   -7.1793 C   0  0  0  0  0  0  0  0  0  0  0  0
    6.8400    6.3836   -7.2961 C   0  0  0  0  0  0  0  0  0  0  0  0
    6.2769    7.2991   -6.3939 C   0  0  0  0  0  0  0  0  0  0  0  0
    6.3726    8.6679   -6.6123 C   0  0  0  0  0  0  0  0  0  0  0  0
    7.1283    9.1437   -7.6771 C   0  0  0  0  0  0  0  0  0  0  0  0
    7.7932    8.2500   -8.5159 C   0  0  0  0  0  0  0  0  0  0  0  0
    7.6050    6.8756   -8.3628 C   0  0  0  0  0  0  0  0  0  0  0  0
    5.5059    0.5543   -6.7945 N   0  0  0  0  0  0  0  0  0  0  0  0
    5.7585   -0.3471   -7.6957 C   0  0  0  0  0  0  0  0  0  0  0  0
    5.7061   -1.6793   -7.4344 N   0  0  0  0  0  0  0  0  0  0  0  0
    5.8935   -2.3638   -8.1478 H   0  0  0  0  0  0  0  0  0  0  0  0
    5.4064   -2.1776   -6.2127 C   0  0  0  0  0  0  0  0  0  0  0  0
    5.3611   -3.3926   -6.0012 O   0  0  0  0  0  0  0  0  0  0  0  0
    6.1020   -0.0458   -8.9697 N   0  0  0  0  0  0  0  0  0  0  0  0
    0.6991    0.0687    0.8966 H   0  0  0  0  0  0  0  0  0  0  0  0
    0.6159   -0.8417   -0.6071 H   0  0  0  0  0  0  0  0  0  0  0  0
    0.6711    0.9411   -0.6471 H   0  0  0  0  0  0  0  0  0  0  0  0
    2.9497    0.3187    0.6778 H   0  0  0  0  0  0  0  0  0  0  0  0
    4.7947   -2.7627   -3.7158 H   0  0  0  0  0  0  0  0  0  0  0  0
    5.6573    2.9458   -3.7090 H   0  0  0  0  0  0  0  0  0  0  0  0
    4.0690    3.1880   -4.4177 H   0  0  0  0  0  0  0  0  0  0  0  0
    5.0351    2.8747   -6.6874 H   0  0  0  0  0  0  0  0  0  0  0  0
    6.6523    2.5873   -5.9583 H   0  0  0  0  0  0  0  0  0  0  0  0
    6.6125    4.7997   -5.1496 H   0  0  0  0  0  0  0  0  0  0  0  0
    5.9159    4.6134   -8.0064 H   0  0  0  0  0  0  0  0  0  0  0  0
    7.5295    4.3618   -7.3047 H   0  0  0  0  0  0  0  0  0  0  0  0
    5.7315    6.9511   -5.5196 H   0  0  0  0  0  0  0  0  0  0  0  0
    5.8508    9.3508   -5.9490 H   0  0  0  0  0  0  0  0  0  0  0  0
    7.1985   10.2130   -7.8491 H   0  0  0  0  0  0  0  0  0  0  0  0
    8.4447    8.6261   -9.2993 H   0  0  0  0  0  0  0  0  0  0  0  0
    8.0514    6.1929   -9.0828 H   0  0  0  0  0  0  0  0  0  0  0  0
    6.1276    0.9220   -9.2590 H   0  0  0  0  0  0  0  0  0  0  0  0
    6.2622   -0.7491   -9.6778 H   0  0  0  0  0  0  0  0  0  0  0  0
  1  2  1  0  0  0  0
  1 30  1  0  0  0  0
  1 31  1  0  0  0  0
  1 32  1  0  0  0  0
  2  3  1  0  0  0  0
  2 33  1  0  0  0  0
  3  4  2  0  0  0  0
  3  7  1  0  0  0  0
  4  5  1  0  0  0  0
  5  6  2  0  0  0  0
  5 12  1  0  0  0  0
  6  7  1  0  0  0  0
  6  9  1  0  0  0  0
  7  8  1  0  0  0  0
  9 10  2  0  0  0  0
  9 34  1  0  0  0  0
 10 11  1  0  0  0  0
 10 27  1  0  0  0  0
 11 12  2  0  0  0  0
 11 23  1  0  0  0  0
 12 13  1  0  0  0  0
 13 14  1  0  0  0  0
 13 35  1  0  0  0  0
 13 36  1  0  0  0  0
 14 15  1  0  0  0  0
 14 37  1  0  0  0  0
 14 38  1  0  0  0  0
 15 16  1  0  0  0  0
 15 39  1  0  0  0  0
 16 17  1  0  0  0  0
 16 40  1  0  0  0  0
 16 41  1  0  0  0  0
 17 18  2  0  0  0  0
 17 22  1  0  0  0  0
 18 19  1  0  0  0  0
 18 42  1  0  0  0  0
 19 20  2  0  0  0  0
 19 43  1  0  0  0  0
 20 21  1  0  0  0  0
 20 44  1  0  0  0  0
 21 22  2  0  0  0  0
 21 45  1  0  0  0  0
 22 46  1  0  0  0  0
 23 24  2  0  0  0  0
 24 25  1  0  0  0  0
 24 29  1  0  0  0  0
 25 26  1  0  0  0  0
 25 27  1  0  0  0  0
 27 28  2  0  0  0  0
 29 47  1  0  0  0  0
 29 48  1  0  0  0  0
M  END
$$$$
