AAT
 OpenBabel04121316073D

 58 60  0  0  1  0  0  0  0  0999 V2000
    0.9970    0.0263    0.1012 N   0  0  0  0  0  0  0  0  0  0  0  0
    2.4481    0.0487    0.1633 C   0  0  0  0  0  0  0  0  0  0  0  0
    3.0458   -0.5995   -1.0651 C   0  0  0  0  0  0  0  0  0  0  0  0
    4.5800   -0.5451   -0.9600 C   0  0  0  0  0  0  0  0  0  0  0  0
    5.1164   -1.1965   -2.2003 C   0  0  0  0  0  0  0  0  0  0  0  0
    6.6109   -1.3117   -2.4123 C   0  0  0  0  0  0  0  0  0  0  0  0
    7.0224   -2.0161   -3.7264 C   0  0  0  0  0  0  0  0  0  0  0  0
    6.1904   -2.5134   -4.6766 C   0  0  0  0  0  0  0  0  0  0  0  0
    4.6918   -2.4998   -4.6487 C   0  0  0  0  0  0  0  0  0  0  0  0
    4.0143   -3.0645   -5.7971 N   0  0  0  0  0  0  0  0  0  0  0  0
    8.7739   -2.1526   -3.8568 S   0  0  0  0  0  0  0  0  0  0  0  0
    9.1217   -2.8853   -5.4841 C   0  0  0  0  0  0  0  0  0  0  0  0
   10.6320   -3.0680   -5.7308 C   0  0  1  0  0  0  0  0  0  0  0  0
   10.8022   -3.0099   -6.8147 H   0  0  0  0  0  0  0  0  0  0  0  0
   11.4551   -2.0543   -5.1066 O   0  0  0  0  0  0  0  0  0  0  0  0
   12.7416   -2.6564   -4.8768 C   0  0  2  0  0  0  0  0  0  0  0  0
   13.3396   -2.4791   -5.7819 H   0  0  0  0  0  0  0  0  0  0  0  0
   12.5181   -4.1613   -4.6954 C   0  0  1  0  0  0  0  0  0  0  0  0
   12.4797   -4.4909   -3.6645 H   0  0  0  0  0  0  0  0  0  0  0  0
   11.1178   -4.4212   -5.2219 C   0  0  2  0  0  0  0  0  0  0  0  0
   10.4881   -4.7643   -4.3926 H   0  0  0  0  0  0  0  0  0  0  0  0
   11.0670   -5.4277   -6.2243 O   0  0  0  0  0  0  0  0  0  0  0  0
   13.5268   -4.9482   -5.3292 O   0  0  0  0  0  0  0  0  0  0  0  0
   13.4452   -1.9699   -3.7993 N   0  0  0  0  0  0  0  0  0  0  0  0
   14.1299   -0.7860   -3.9554 C   0  0  0  0  0  0  0  0  0  0  0  0
   14.8191   -0.4604   -2.8782 N   0  0  0  0  0  0  0  0  0  0  0  0
   14.5720   -1.4713   -1.9781 C   0  0  0  0  0  0  0  0  0  0  0  0
   13.7239   -2.4256   -2.5313 C   0  0  0  0  0  0  0  0  0  0  0  0
   13.3152   -3.5509   -1.9369 N   0  0  0  0  0  0  0  0  0  0  0  0
   13.8037   -3.6830   -0.6910 C   0  0  0  0  0  0  0  0  0  0  0  0
   14.6196   -2.8382   -0.0339 N   0  0  0  0  0  0  0  0  0  0  0  0
   15.0211   -1.7159   -0.6675 C   0  0  0  0  0  0  0  0  0  0  0  0
   15.8802   -0.8699    0.0012 N   0  0  0  0  0  0  0  0  0  0  0  0
    0.6307    0.4342    0.9598 H   0  0  0  0  0  0  0  0  0  0  0  0
    0.6691   -0.9386    0.0804 H   0  0  0  0  0  0  0  0  0  0  0  0
    2.7908   -0.4847    1.0553 H   0  0  0  0  0  0  0  0  0  0  0  0
    2.7962    1.0840    0.2271 H   0  0  0  0  0  0  0  0  0  0  0  0
    2.7043   -0.0868   -1.9773 H   0  0  0  0  0  0  0  0  0  0  0  0
    2.7042   -1.6417   -1.1588 H   0  0  0  0  0  0  0  0  0  0  0  0
    4.9220   -1.0863   -0.0735 H   0  0  0  0  0  0  0  0  0  0  0  0
    4.9227    0.4918   -0.9026 H   0  0  0  0  0  0  0  0  0  0  0  0
    4.7118   -0.5961   -3.0160 H   0  0  0  0  0  0  0  0  0  0  0  0
    4.7061   -2.2071   -2.1753 H   0  0  0  0  0  0  0  0  0  0  0  0
    7.0386   -1.8605   -1.5629 H   0  0  0  0  0  0  0  0  0  0  0  0
    7.0429   -0.3022   -2.3945 H   0  0  0  0  0  0  0  0  0  0  0  0
    6.5853   -2.9987   -5.5608 H   0  0  0  0  0  0  0  0  0  0  0  0
    4.3353   -1.4710   -4.6083 H   0  0  0  0  0  0  0  0  0  0  0  0
    4.3426   -3.0889   -3.7991 H   0  0  0  0  0  0  0  0  0  0  0  0
    4.1572   -2.4372   -6.5851 H   0  0  0  0  0  0  0  0  0  0  0  0
    3.0145   -2.9850   -5.5866 H   0  0  0  0  0  0  0  0  0  0  0  0
    8.7033   -2.2409   -6.2641 H   0  0  0  0  0  0  0  0  0  0  0  0
    8.6238   -3.8603   -5.5593 H   0  0  0  0  0  0  0  0  0  0  0  0
   11.6665   -6.1366   -5.9175 H   0  0  0  0  0  0  0  0  0  0  0  0
   14.3663   -4.7399   -4.8749 H   0  0  0  0  0  0  0  0  0  0  0  0
   14.1070   -0.2149   -4.8736 H   0  0  0  0  0  0  0  0  0  0  0  0
   13.5103   -4.5805   -0.1576 H   0  0  0  0  0  0  0  0  0  0  0  0
   16.0785   -1.0706    0.9685 H   0  0  0  0  0  0  0  0  0  0  0  0
   16.1258    0.0071   -0.4309 H   0  0  0  0  0  0  0  0  0  0  0  0
  1  2  1  0  0  0  0
  1 34  1  0  0  0  0
  1 35  1  0  0  0  0
  2  3  1  0  0  0  0
  2 36  1  0  0  0  0
  2 37  1  0  0  0  0
  3  4  1  0  0  0  0
  3 38  1  0  0  0  0
  3 39  1  0  0  0  0
  4  5  1  0  0  0  0
  4 40  1  0  0  0  0
  4 41  1  0  0  0  0
  5  6  1  0  0  0  0
  5 42  1  0  0  0  0
  5 43  1  0  0  0  0
  6  7  1  0  0  0  0
  6 44  1  0  0  0  0
  6 45  1  0  0  0  0
  7  8  2  0  0  0  0
  7 11  1  0  0  0  0
  8  9  1  0  0  0  0
  8 46  1  0  0  0  0
  9 10  1  0  0  0  0
  9 47  1  0  0  0  0
  9 48  1  0  0  0  0
 10 49  1  0  0  0  0
 10 50  1  0  0  0  0
 11 12  1  0  0  0  0
 12 13  1  0  0  0  0
 12 51  1  0  0  0  0
 12 52  1  0  0  0  0
 13 14  1  6  0  0  0
 13 15  1  0  0  0  0
 13 20  1  0  0  0  0
 15 16  1  0  0  0  0
 16 18  1  0  0  0  0
 16 24  1  0  0  0  0
 16 17  1  6  0  0  0
 18 19  1  1  0  0  0
 18 20  1  0  0  0  0
 18 23  1  0  0  0  0
 20 21  1  1  0  0  0
 20 22  1  0  0  0  0
 22 53  1  0  0  0  0
 23 54  1  0  0  0  0
 24 25  1  0  0  0  0
 24 28  1  0  0  0  0
 25 26  2  0  0  0  0
 25 55  1  0  0  0  0
 26 27  1  0  0  0  0
 27 28  2  0  0  0  0
 27 32  1  0  0  0  0
 28 29  1  0  0  0  0
 29 30  2  0  0  0  0
 30 31  1  0  0  0  0
 30 56  1  0  0  0  0
 31 32  2  0  0  0  0
 32 33  1  0  0  0  0
 33 57  1  0  0  0  0
 33 58  1  0  0  0  0
M  END
$$$$
