AB1
 OpenBabel04121316073D

 94 97  0  0  1  0  0  0  0  0999 V2000
    0.6168    0.3884   -5.4612 O   0  0  0  0  0  0  0  0  0  0  0  0
    0.5261   -0.6993   -6.0323 C   0  0  0  0  0  0  0  0  0  0  0  0
    1.5870   -1.3554   -7.0435 N   0  0  0  0  0  0  0  0  0  0  0  0
    3.1915   -1.5318   -7.2755 C   0  0  2  0  0  0  0  0  0  0  0  0
    3.4150   -2.5947   -7.4265 H   0  0  0  0  0  0  0  0  0  0  0  0
    4.0139   -1.2448   -6.0357 C   0  0  2  0  0  0  0  0  0  0  0  0
    4.4629   -2.1054   -5.5500 H   0  0  0  0  0  0  0  0  0  0  0  0
    2.9391   -0.7313   -5.1566 C   0  0  0  0  0  0  0  0  0  0  0  0
    1.8896   -2.0669   -4.5865 C   0  0  2  0  0  0  0  0  0  0  0  0
    1.0717   -1.6174   -3.9944 H   0  0  0  0  0  0  0  0  0  0  0  0
    2.6767   -2.8746   -3.6494 C   0  0  0  0  0  0  0  0  0  0  0  0
    3.2258   -1.9787   -2.6070 C   0  0  0  0  0  0  0  0  0  0  0  0
    2.8711   -0.6266   -2.3838 C   0  0  0  0  0  0  0  0  0  0  0  0
    3.7042    0.1809   -1.6467 C   0  0  0  0  0  0  0  0  0  0  0  0
    4.6751   -0.4399   -0.8821 C   0  0  0  0  0  0  0  0  0  0  0  0
    4.8710   -1.8243   -0.9412 C   0  0  0  0  0  0  0  0  0  0  0  0
    4.2276   -2.5763   -1.8870 C   0  0  0  0  0  0  0  0  0  0  0  0
    1.1536   -3.1255   -5.4849 N   0  0  0  0  0  0  0  0  0  0  0  0
    1.7132   -3.8354   -6.5017 C   0  0  0  0  0  0  0  0  0  0  0  0
    2.7753   -4.2849   -6.2455 O   0  0  0  0  0  0  0  0  0  0  0  0
    0.7878   -3.8657   -8.0241 C   0  0  1  0  0  0  0  0  0  0  0  0
   -0.0428   -4.5696   -7.8732 H   0  0  0  0  0  0  0  0  0  0  0  0
    0.1289   -2.5433   -8.9046 N   0  0  0  0  0  0  0  0  0  0  0  0
   -0.5489   -1.3117   -8.4738 C   0  0  0  0  0  0  0  0  0  0  0  0
   -0.3830   -0.0537   -9.1958 C   0  0  0  0  0  0  0  0  0  0  0  0
   -0.7403   -0.3222  -10.6042 C   0  0  0  0  0  0  0  0  0  0  0  0
   -0.3092   -1.6481  -10.9837 N   0  0  0  0  0  0  0  0  0  0  0  0
   -0.4546   -2.7532  -10.1621 C   0  0  0  0  0  0  0  0  0  0  0  0
   -1.0608   -3.7532  -10.5168 O   0  0  0  0  0  0  0  0  0  0  0  0
    1.8451   -4.4416   -9.0306 C   0  0  0  0  0  0  0  0  0  0  0  0
    2.8168   -5.4637   -8.4596 C   0  0  0  0  0  0  0  0  0  0  0  0
    1.2232   -5.1276  -10.2303 C   0  0  0  0  0  0  0  0  0  0  0  0
    5.0830   -0.3511   -6.2898 O   0  0  0  0  0  0  0  0  0  0  0  0
    3.6303   -1.0341   -8.6569 C   0  0  0  0  0  0  0  0  0  0  0  0
    3.1360    0.3436   -8.9438 C   0  0  0  0  0  0  0  0  0  0  0  0
    2.3070    0.5769  -10.0334 C   0  0  0  0  0  0  0  0  0  0  0  0
    1.5992    1.7928  -10.1036 C   0  0  0  0  0  0  0  0  0  0  0  0
    1.7310    2.7589   -9.1142 C   0  0  0  0  0  0  0  0  0  0  0  0
    2.6077    2.5465   -8.0728 C   0  0  0  0  0  0  0  0  0  0  0  0
    3.3333    1.3707   -8.0262 C   0  0  0  0  0  0  0  0  0  0  0  0
   -0.9395   -1.5635   -5.7066 C   0  0  0  0  0  0  0  0  0  0  0  0
   -1.2081   -2.6789   -6.5869 O   0  0  0  0  0  0  0  0  0  0  0  0
   -2.5259   -2.9675   -6.8477 C   0  0  0  0  0  0  0  0  0  0  0  0
   -2.9725   -4.0054   -6.0460 C   0  0  0  0  0  0  0  0  0  0  0  0
   -2.0485   -4.7767   -5.1392 C   0  0  0  0  0  0  0  0  0  0  0  0
   -4.3419   -4.2080   -6.0252 C   0  0  0  0  0  0  0  0  0  0  0  0
   -5.2086   -3.3295   -6.6838 C   0  0  0  0  0  0  0  0  0  0  0  0
   -4.7476   -2.4777   -7.6492 C   0  0  0  0  0  0  0  0  0  0  0  0
   -3.3989   -2.3532   -7.8241 C   0  0  0  0  0  0  0  0  0  0  0  0
   -3.1606   -1.5236   -9.0647 C   0  0  0  0  0  0  0  0  0  0  0  0
    1.2234   -1.8879   -7.8124 H   0  0  0  0  0  0  0  0  0  0  0  0
    2.5146    0.0656   -5.7833 H   0  0  0  0  0  0  0  0  0  0  0  0
    3.2925   -0.0058   -4.4320 H   0  0  0  0  0  0  0  0  0  0  0  0
    3.4778   -3.3442   -4.2259 H   0  0  0  0  0  0  0  0  0  0  0  0
    2.0590   -3.6675   -3.2213 H   0  0  0  0  0  0  0  0  0  0  0  0
    2.0499   -0.1224   -2.9039 H   0  0  0  0  0  0  0  0  0  0  0  0
    3.5704    1.2598   -1.6616 H   0  0  0  0  0  0  0  0  0  0  0  0
    5.2702    0.1562   -0.2070 H   0  0  0  0  0  0  0  0  0  0  0  0
    5.5341   -2.3360   -0.2627 H   0  0  0  0  0  0  0  0  0  0  0  0
    4.4592   -3.6213   -2.0808 H   0  0  0  0  0  0  0  0  0  0  0  0
    0.2026   -3.0715   -5.7687 H   0  0  0  0  0  0  0  0  0  0  0  0
   -0.1907   -0.8930   -7.6294 H   0  0  0  0  0  0  0  0  0  0  0  0
   -1.4855   -1.3732   -8.0350 H   0  0  0  0  0  0  0  0  0  0  0  0
    0.6417    0.0812   -8.9372 H   0  0  0  0  0  0  0  0  0  0  0  0
   -0.8690    0.8061   -8.7116 H   0  0  0  0  0  0  0  0  0  0  0  0
   -0.3333    0.3916  -11.3063 H   0  0  0  0  0  0  0  0  0  0  0  0
   -1.8214   -0.2472  -10.7103 H   0  0  0  0  0  0  0  0  0  0  0  0
    0.0831   -1.8075  -11.8970 H   0  0  0  0  0  0  0  0  0  0  0  0
    2.4250   -3.5933   -9.3990 H   0  0  0  0  0  0  0  0  0  0  0  0
    2.2633   -6.2116   -7.8817 H   0  0  0  0  0  0  0  0  0  0  0  0
    3.6049   -5.0143   -7.8598 H   0  0  0  0  0  0  0  0  0  0  0  0
    3.4073   -5.9355   -9.2400 H   0  0  0  0  0  0  0  0  0  0  0  0
    0.4386   -5.8162   -9.9032 H   0  0  0  0  0  0  0  0  0  0  0  0
    1.9695   -5.6502  -10.8239 H   0  0  0  0  0  0  0  0  0  0  0  0
    0.8458   -4.4161  -10.9519 H   0  0  0  0  0  0  0  0  0  0  0  0
    5.0894    0.3310   -5.5987 H   0  0  0  0  0  0  0  0  0  0  0  0
    3.2034   -1.7232   -9.4004 H   0  0  0  0  0  0  0  0  0  0  0  0
    4.7119   -1.1058   -8.7968 H   0  0  0  0  0  0  0  0  0  0  0  0
    1.9711   -0.2939  -10.6094 H   0  0  0  0  0  0  0  0  0  0  0  0
    0.7672    1.9228  -10.7873 H   0  0  0  0  0  0  0  0  0  0  0  0
    1.1205    3.6520   -9.1445 H   0  0  0  0  0  0  0  0  0  0  0  0
    2.7214    3.2636   -7.2695 H   0  0  0  0  0  0  0  0  0  0  0  0
    3.9998    1.2471   -7.1934 H   0  0  0  0  0  0  0  0  0  0  0  0
   -1.7488   -0.8398   -5.6737 H   0  0  0  0  0  0  0  0  0  0  0  0
   -0.8801   -2.0028   -4.6913 H   0  0  0  0  0  0  0  0  0  0  0  0
   -0.9897   -4.5493   -5.2789 H   0  0  0  0  0  0  0  0  0  0  0  0
   -2.1174   -5.8529   -5.3059 H   0  0  0  0  0  0  0  0  0  0  0  0
   -2.2712   -4.5151   -4.1019 H   0  0  0  0  0  0  0  0  0  0  0  0
   -4.7550   -5.0161   -5.4404 H   0  0  0  0  0  0  0  0  0  0  0  0
   -6.2643   -3.3012   -6.4718 H   0  0  0  0  0  0  0  0  0  0  0  0
   -5.4087   -1.8929   -8.2826 H   0  0  0  0  0  0  0  0  0  0  0  0
   -3.9891   -1.3115   -9.7390 H   0  0  0  0  0  0  0  0  0  0  0  0
   -2.5223   -2.1013   -9.7156 H   0  0  0  0  0  0  0  0  0  0  0  0
   -2.8213   -0.5148   -8.8037 H   0  0  0  0  0  0  0  0  0  0  0  0
  1  2  2  0  0  0  0
  2  3  1  0  0  0  0
  2 41  1  0  0  0  0
  3 51  1  0  0  0  0
  4 34  1  0  0  0  0
  4  5  1  6  0  0  0
  4  3  1  0  0  0  0
  6  8  1  0  0  0  0
  6 33  1  0  0  0  0
  6  7  1  1  0  0  0
  6  4  1  0  0  0  0
  8 52  1  0  0  0  0
  8 53  1  0  0  0  0
  9 11  1  0  0  0  0
  9 18  1  0  0  0  0
  9 10  1  1  0  0  0
  9  8  1  0  0  0  0
 11 12  1  0  0  0  0
 11 54  1  0  0  0  0
 11 55  1  0  0  0  0
 12 13  2  0  0  0  0
 12 17  1  0  0  0  0
 13 14  1  0  0  0  0
 13 56  1  0  0  0  0
 14 15  2  0  0  0  0
 14 57  1  0  0  0  0
 15 16  1  0  0  0  0
 15 58  1  0  0  0  0
 16 17  2  0  0  0  0
 16 59  1  0  0  0  0
 17 60  1  0  0  0  0
 18 19  1  0  0  0  0
 18 61  1  0  0  0  0
 19 20  2  0  0  0  0
 19 21  1  0  0  0  0
 21 22  1  1  0  0  0
 21 23  1  0  0  0  0
 21 30  1  0  0  0  0
 23 24  1  0  0  0  0
 23 28  1  0  0  0  0
 24 25  1  0  0  0  0
 24 62  1  0  0  0  0
 24 63  1  0  0  0  0
 25 26  1  0  0  0  0
 25 64  1  0  0  0  0
 25 65  1  0  0  0  0
 26 27  1  0  0  0  0
 26 66  1  0  0  0  0
 26 67  1  0  0  0  0
 27 28  1  0  0  0  0
 27 68  1  0  0  0  0
 28 29  2  0  0  0  0
 30 31  1  0  0  0  0
 30 32  1  0  0  0  0
 30 69  1  0  0  0  0
 31 70  1  0  0  0  0
 31 71  1  0  0  0  0
 31 72  1  0  0  0  0
 32 73  1  0  0  0  0
 32 74  1  0  0  0  0
 32 75  1  0  0  0  0
 33 76  1  0  0  0  0
 34 35  1  0  0  0  0
 34 77  1  0  0  0  0
 34 78  1  0  0  0  0
 35 36  2  0  0  0  0
 35 40  1  0  0  0  0
 36 37  1  0  0  0  0
 36 79  1  0  0  0  0
 37 38  2  0  0  0  0
 37 80  1  0  0  0  0
 38 39  1  0  0  0  0
 38 81  1  0  0  0  0
 39 40  2  0  0  0  0
 39 82  1  0  0  0  0
 40 83  1  0  0  0  0
 41 42  1  0  0  0  0
 41 84  1  0  0  0  0
 41 85  1  0  0  0  0
 42 43  1  0  0  0  0
 43 44  2  0  0  0  0
 43 49  1  0  0  0  0
 44 45  1  0  0  0  0
 44 46  1  0  0  0  0
 45 86  1  0  0  0  0
 45 87  1  0  0  0  0
 45 88  1  0  0  0  0
 46 47  2  0  0  0  0
 46 89  1  0  0  0  0
 47 48  1  0  0  0  0
 47 90  1  0  0  0  0
 48 49  2  0  0  0  0
 48 91  1  0  0  0  0
 49 50  1  0  0  0  0
 50 92  1  0  0  0  0
 50 93  1  0  0  0  0
 50 94  1  0  0  0  0
M  END
$$$$
