AB3
 OpenBabel04121316073D

 38 40  0  0  0  0  0  0  0  0999 V2000
    0.9508   -0.0245    0.1142 O   0  0  0  0  0  0  0  0  0  0  0  0
    2.3136    0.0043    0.0764 C   0  0  0  0  0  0  0  0  0  0  0  0
    2.9968    1.2178    0.0266 C   0  0  0  0  0  0  0  0  0  0  0  0
    4.3788    1.2094    0.1120 C   0  0  0  0  0  0  0  0  0  0  0  0
    5.0457   -0.0088    0.1773 C   0  0  0  0  0  0  0  0  0  0  0  0
    4.3877   -1.2271   -0.0004 C   0  0  0  0  0  0  0  0  0  0  0  0
    2.9933   -1.2149    0.0731 C   0  0  0  0  0  0  0  0  0  0  0  0
    5.1515   -2.4463   -0.3095 C   0  0  0  0  0  0  0  0  0  0  0  0
    4.5877   -3.6600   -0.1638 N   0  0  0  0  0  0  0  0  0  0  0  0
    5.5476   -4.5444   -0.5333 N   0  0  0  0  0  0  0  0  0  0  0  0
    6.7038   -3.9207   -0.9401 C   0  0  0  0  0  0  0  0  0  0  0  0
    6.4861   -2.5594   -0.8429 C   0  0  0  0  0  0  0  0  0  0  0  0
    7.5570   -1.7270   -1.2438 C   0  0  0  0  0  0  0  0  0  0  0  0
    7.5633   -0.3412   -1.2645 N   0  0  0  0  0  0  0  0  0  0  0  0
    8.7150   -2.2943   -1.6377 N   0  0  0  0  0  0  0  0  0  0  0  0
    8.7929   -3.6290   -1.6744 C   0  0  0  0  0  0  0  0  0  0  0  0
    7.8443   -4.5104   -1.3578 N   0  0  0  0  0  0  0  0  0  0  0  0
    5.2509   -5.9897   -0.4492 C   0  0  0  0  0  0  0  0  0  0  0  0
    4.8897   -6.3697    1.0023 C   0  0  0  0  0  0  0  0  0  0  0  0
    4.0560   -6.3414   -1.3606 C   0  0  0  0  0  0  0  0  0  0  0  0
    6.4415   -6.8699   -0.8800 C   0  0  0  0  0  0  0  0  0  0  0  0
    0.6238    0.8861    0.0332 H   0  0  0  0  0  0  0  0  0  0  0  0
    2.4777    2.1684   -0.0220 H   0  0  0  0  0  0  0  0  0  0  0  0
    4.9502    2.1329    0.1450 H   0  0  0  0  0  0  0  0  0  0  0  0
    6.1078    0.0073    0.3834 H   0  0  0  0  0  0  0  0  0  0  0  0
    2.4316   -2.1445    0.1262 H   0  0  0  0  0  0  0  0  0  0  0  0
    6.7179    0.0829   -1.6282 H   0  0  0  0  0  0  0  0  0  0  0  0
    8.4297    0.0378   -1.6247 H   0  0  0  0  0  0  0  0  0  0  0  0
    9.7413   -4.0410   -2.0092 H   0  0  0  0  0  0  0  0  0  0  0  0
    3.9944   -5.8425    1.3514 H   0  0  0  0  0  0  0  0  0  0  0  0
    5.7067   -6.1272    1.6909 H   0  0  0  0  0  0  0  0  0  0  0  0
    4.6859   -7.4441    1.0890 H   0  0  0  0  0  0  0  0  0  0  0  0
    3.1438   -5.8133   -1.0602 H   0  0  0  0  0  0  0  0  0  0  0  0
    3.8348   -7.4155   -1.3217 H   0  0  0  0  0  0  0  0  0  0  0  0
    4.2618   -6.0805   -2.4046 H   0  0  0  0  0  0  0  0  0  0  0  0
    7.3148   -6.6901   -0.2419 H   0  0  0  0  0  0  0  0  0  0  0  0
    6.7208   -6.6721   -1.9216 H   0  0  0  0  0  0  0  0  0  0  0  0
    6.2086   -7.9370   -0.8094 H   0  0  0  0  0  0  0  0  0  0  0  0
  1  2  1  0  0  0  0
  1 22  1  0  0  0  0
  2  3  2  0  0  0  0
  2  7  1  0  0  0  0
  3  4  1  0  0  0  0
  3 23  1  0  0  0  0
  4  5  2  0  0  0  0
  4 24  1  0  0  0  0
  5  6  1  0  0  0  0
  5 25  1  0  0  0  0
  6  7  2  0  0  0  0
  6  8  1  0  0  0  0
  7 26  1  0  0  0  0
  8  9  2  0  0  0  0
  8 12  1  0  0  0  0
  9 10  1  0  0  0  0
 10 11  1  0  0  0  0
 10 18  1  0  0  0  0
 11 12  2  0  0  0  0
 11 17  1  0  0  0  0
 12 13  1  0  0  0  0
 13 14  1  0  0  0  0
 13 15  2  0  0  0  0
 14 27  1  0  0  0  0
 14 28  1  0  0  0  0
 15 16  1  0  0  0  0
 16 17  2  0  0  0  0
 16 29  1  0  0  0  0
 18 19  1  0  0  0  0
 18 20  1  0  0  0  0
 18 21  1  0  0  0  0
 19 30  1  0  0  0  0
 19 31  1  0  0  0  0
 19 32  1  0  0  0  0
 20 33  1  0  0  0  0
 20 34  1  0  0  0  0
 20 35  1  0  0  0  0
 21 36  1  0  0  0  0
 21 37  1  0  0  0  0
 21 38  1  0  0  0  0
M  END
$$$$
