ABC
 OpenBabel04121316073D

127132  0  0  1  0  0  0  0  0999 V2000
   10.1741    5.3840   -1.6220 O   0  0  0  0  0  0  0  0  0  0  0  0
    9.2633    4.4003   -1.2570 C   0  0  0  0  0  0  0  0  0  0  0  0
    9.6710    3.6640    0.0271 C   0  0  1  0  0  0  0  0  0  0  0  0
    9.1568    4.3175    0.6933 H   0  0  0  0  0  0  0  0  0  0  0  0
    9.0421    2.4015    0.2213 O   0  0  0  0  0  0  0  0  0  0  0  0
    9.4071    1.5726   -0.8549 C   0  0  2  0  0  0  0  0  0  0  0  0
    9.3175    2.0682   -1.8126 H   0  0  0  0  0  0  0  0  0  0  0  0
    8.4961    0.5033   -0.9132 O   0  0  0  0  0  0  0  0  0  0  0  0
    7.1124    0.9158   -1.0976 C   0  0  2  0  0  0  0  0  0  0  0  0
    6.6092    0.6396   -0.1652 H   0  0  0  0  0  0  0  0  0  0  0  0
    6.5466    0.1055   -2.2761 C   0  0  1  0  0  0  0  0  0  0  0  0
    7.1220    0.3156   -3.1894 H   0  0  0  0  0  0  0  0  0  0  0  0
    6.6656   -1.3863   -1.9874 C   0  0  0  0  0  0  0  0  0  0  0  0
    5.1661    0.4165   -2.5087 O   0  0  0  0  0  0  0  0  0  0  0  0
    4.9494    1.7785   -2.8525 C   0  0  2  0  0  0  0  0  0  0  0  0
    5.4794    2.0308   -3.7793 H   0  0  0  0  0  0  0  0  0  0  0  0
    5.3742    2.7005   -1.7332 C   0  0  1  0  0  0  0  0  0  0  0  0
    4.7601    2.5776   -0.8316 H   0  0  0  0  0  0  0  0  0  0  0  0
    6.7975    2.4130   -1.3669 C   0  0  1  0  0  0  0  0  0  0  0  0
    7.4238    2.7760   -2.1906 H   0  0  0  0  0  0  0  0  0  0  0  0
    6.9496    3.2660   -0.2313 O   0  0  0  0  0  0  0  0  0  0  0  0
    5.2988    4.0815   -2.1339 O   0  0  0  0  0  0  0  0  0  0  0  0
    3.5643    1.9889   -3.0732 O   0  0  0  0  0  0  0  0  0  0  0  0
   10.8899    1.1965   -0.7360 C   0  0  1  0  0  0  0  0  0  0  0  0
   11.1791    0.6627   -1.6415 H   0  0  0  0  0  0  0  0  0  0  0  0
   11.7417    2.4758   -0.5670 C   0  0  2  0  0  0  0  0  0  0  0  0
   12.7513    2.2117   -0.2450 H   0  0  0  0  0  0  0  0  0  0  0  0
   11.1180    3.4144    0.4848 C   0  0  2  0  0  0  0  0  0  0  0  0
   11.7558    4.2853    0.4919 H   0  0  0  0  0  0  0  0  0  0  0  0
   11.1362    2.8001    1.8076 O   0  0  0  0  0  0  0  0  0  0  0  0
   10.7987    3.5173    3.0190 C   0  0  1  0  0  0  0  0  0  0  0  0
   10.4060    2.7490    3.6966 H   0  0  0  0  0  0  0  0  0  0  0  0
   11.9607    4.0537    3.6746 O   0  0  0  0  0  0  0  0  0  0  0  0
   12.6092    5.0494    2.8840 C   0  0  2  0  0  0  0  0  0  0  0  0
   13.0072    4.5432    2.0009 H   0  0  0  0  0  0  0  0  0  0  0  0
   13.8345    5.6034    3.6016 C   0  0  0  0  0  0  0  0  0  0  0  0
   11.6370    6.2017    2.5670 C   0  0  2  0  0  0  0  0  0  0  0  0
   11.4837    6.7833    3.4796 H   0  0  0  0  0  0  0  0  0  0  0  0
   10.2430    5.7561    2.1602 C   0  0  1  0  0  0  0  0  0  0  0  0
   10.3708    5.4996    1.1293 H   0  0  0  0  0  0  0  0  0  0  0  0
    9.6939    4.5869    2.9626 C   0  0  1  0  0  0  0  0  0  0  0  0
    9.4781    5.0279    3.9338 H   0  0  0  0  0  0  0  0  0  0  0  0
    8.4194    4.0372    2.5615 O   0  0  0  0  0  0  0  0  0  0  0  0
    9.3495    6.8711    2.1898 O   0  0  0  0  0  0  0  0  0  0  0  0
   12.1337    7.1444    1.6002 N   0  0  0  0  0  0  0  0  0  0  0  0
   12.0390    7.0710    0.1624 C   0  0  1  0  0  0  0  0  0  0  0  0
   12.2096    6.0704   -0.2497 H   0  0  0  0  0  0  0  0  0  0  0  0
   10.6661    7.4664   -0.2933 C   0  0  0  0  0  0  0  0  0  0  0  0
   10.3079    8.2549   -1.2493 C   0  0  0  0  0  0  0  0  0  0  0  0
    8.8568    8.3821   -1.6963 C   0  0  0  0  0  0  0  0  0  0  0  0
    7.9164    7.4856   -1.1400 O   0  0  0  0  0  0  0  0  0  0  0  0
   11.3497    9.1000   -1.8717 C   0  0  2  0  0  0  0  0  0  0  0  0
   11.2826    9.0038   -2.9593 H   0  0  0  0  0  0  0  0  0  0  0  0
   12.8161    8.9829   -1.4052 C   0  0  1  0  0  0  0  0  0  0  0  0
   13.1049    9.9510   -0.9747 H   0  0  0  0  0  0  0  0  0  0  0  0
   13.1913    7.9335   -0.3750 C   0  0  1  0  0  0  0  0  0  0  0  0
   13.9704    7.2581   -0.7533 H   0  0  0  0  0  0  0  0  0  0  0  0
   13.8167    8.6370    0.7492 O   0  0  0  0  0  0  0  0  0  0  0  0
   13.6831    8.8025   -2.5345 O   0  0  0  0  0  0  0  0  0  0  0  0
   10.9294   10.3703   -1.4279 O   0  0  0  0  0  0  0  0  0  0  0  0
   11.2191   11.3610   -2.3869 C   0  0  1  0  0  0  0  0  0  0  0  0
   12.2705   11.2966   -2.6786 H   0  0  0  0  0  0  0  0  0  0  0  0
   10.3602   11.2075   -3.5142 O   0  0  0  0  0  0  0  0  0  0  0  0
    8.9683   11.2564   -3.1572 C   0  0  2  0  0  0  0  0  0  0  0  0
    8.7902   10.5370   -2.3941 H   0  0  0  0  0  0  0  0  0  0  0  0
    8.1047   10.7433   -4.3160 C   0  0  0  0  0  0  0  0  0  0  0  0
    6.7194   10.6254   -4.0113 O   0  0  0  0  0  0  0  0  0  0  0  0
    8.5859   12.5683   -2.4506 C   0  0  2  0  0  0  0  0  0  0  0  0
    8.7365   13.3764   -3.1694 H   0  0  0  0  0  0  0  0  0  0  0  0
    9.5719   12.7216   -1.2235 C   0  0  1  0  0  0  0  0  0  0  0  0
    9.3372   11.9463   -0.4762 H   0  0  0  0  0  0  0  0  0  0  0  0
   11.0116   12.6567   -1.6688 C   0  0  1  0  0  0  0  0  0  0  0  0
   11.2239   13.5046   -2.3240 H   0  0  0  0  0  0  0  0  0  0  0  0
   11.8849   12.7361   -0.5214 O   0  0  0  0  0  0  0  0  0  0  0  0
    9.6046   13.9618   -0.5256 O   0  0  0  0  0  0  0  0  0  0  0  0
    7.1703   12.5355   -2.1318 O   0  0  0  0  0  0  0  0  0  0  0  0
    6.8613   13.0334   -0.8409 C   0  0  1  0  0  0  0  0  0  0  0  0
    7.3023   12.3294   -0.1272 H   0  0  0  0  0  0  0  0  0  0  0  0
    7.4159   14.3273   -0.6483 O   0  0  0  0  0  0  0  0  0  0  0  0
    6.9571   15.3384   -1.5365 C   0  0  2  0  0  0  0  0  0  0  0  0
    7.0130   15.0264   -2.5903 H   0  0  0  0  0  0  0  0  0  0  0  0
    7.8462   16.5715   -1.3767 C   0  0  0  0  0  0  0  0  0  0  0  0
    5.5304   15.5868   -1.0965 C   0  0  2  0  0  0  0  0  0  0  0  0
    5.5371   15.8984   -0.0421 H   0  0  0  0  0  0  0  0  0  0  0  0
    4.7405   14.2681   -1.2415 C   0  0  1  0  0  0  0  0  0  0  0  0
    4.6640   14.0052   -2.3020 H   0  0  0  0  0  0  0  0  0  0  0  0
    5.3899   13.1097   -0.4779 C   0  0  1  0  0  0  0  0  0  0  0  0
    5.3398   13.3210    0.5993 H   0  0  0  0  0  0  0  0  0  0  0  0
    4.7453   11.8553   -0.6928 O   0  0  0  0  0  0  0  0  0  0  0  0
    3.4108   14.4771   -0.7707 O   0  0  0  0  0  0  0  0  0  0  0  0
    4.9064   16.6164   -1.8554 O   0  0  0  0  0  0  0  0  0  0  0  0
   11.9268    3.1720   -1.8149 O   0  0  0  0  0  0  0  0  0  0  0  0
   11.0876    0.3228    0.3740 O   0  0  0  0  0  0  0  0  0  0  0  0
    9.6809    6.0523   -2.1247 H   0  0  0  0  0  0  0  0  0  0  0  0
    9.1763    3.8246   -2.1631 H   0  0  0  0  0  0  0  0  0  0  0  0
    8.2642    4.8221   -1.1079 H   0  0  0  0  0  0  0  0  0  0  0  0
    7.7092   -1.6905   -1.8520 H   0  0  0  0  0  0  0  0  0  0  0  0
    6.2401   -1.9708   -2.8071 H   0  0  0  0  0  0  0  0  0  0  0  0
    6.1104   -1.6438   -1.0792 H   0  0  0  0  0  0  0  0  0  0  0  0
    6.9546    2.7384    0.5842 H   0  0  0  0  0  0  0  0  0  0  0  0
    4.3556    4.3086   -2.1872 H   0  0  0  0  0  0  0  0  0  0  0  0
    3.1410    1.8501   -2.2090 H   0  0  0  0  0  0  0  0  0  0  0  0
   14.4816    4.8002    3.9619 H   0  0  0  0  0  0  0  0  0  0  0  0
   13.5392    6.2095    4.4633 H   0  0  0  0  0  0  0  0  0  0  0  0
   14.4152    6.2363    2.9201 H   0  0  0  0  0  0  0  0  0  0  0  0
    8.5694    3.2244    2.0347 H   0  0  0  0  0  0  0  0  0  0  0  0
    9.8887    7.6248    1.8710 H   0  0  0  0  0  0  0  0  0  0  0  0
   12.7193    7.9131    1.9246 H   0  0  0  0  0  0  0  0  0  0  0  0
    9.8094    6.9177    0.0742 H   0  0  0  0  0  0  0  0  0  0  0  0
    8.7862    8.3298   -2.7877 H   0  0  0  0  0  0  0  0  0  0  0  0
    8.4739    9.3016   -1.2790 H   0  0  0  0  0  0  0  0  0  0  0  0
    8.0269    6.5893   -1.4629 H   0  0  0  0  0  0  0  0  0  0  0  0
   14.4867    9.2369    0.3850 H   0  0  0  0  0  0  0  0  0  0  0  0
   13.3811    9.3970   -3.2401 H   0  0  0  0  0  0  0  0  0  0  0  0
    8.4449    9.7452   -4.6293 H   0  0  0  0  0  0  0  0  0  0  0  0
    8.2266   11.3988   -5.1773 H   0  0  0  0  0  0  0  0  0  0  0  0
    6.6146   10.1139   -3.1882 H   0  0  0  0  0  0  0  0  0  0  0  0
   11.4359   12.2589    0.2046 H   0  0  0  0  0  0  0  0  0  0  0  0
    8.7494   14.0823   -0.0766 H   0  0  0  0  0  0  0  0  0  0  0  0
    8.8746   16.3641   -1.6991 H   0  0  0  0  0  0  0  0  0  0  0  0
    7.9068   16.8721   -0.3258 H   0  0  0  0  0  0  0  0  0  0  0  0
    7.4761   17.4158   -1.9658 H   0  0  0  0  0  0  0  0  0  0  0  0
    4.7921   11.6696   -1.6464 H   0  0  0  0  0  0  0  0  0  0  0  0
    3.1233   15.3194   -1.1688 H   0  0  0  0  0  0  0  0  0  0  0  0
    5.0833   16.4413   -2.7957 H   0  0  0  0  0  0  0  0  0  0  0  0
   11.0844    3.4375   -2.2151 H   0  0  0  0  0  0  0  0  0  0  0  0
   10.2693   -0.1998    0.4574 H   0  0  0  0  0  0  0  0  0  0  0  0
  1  2  1  0  0  0  0
  1 94  1  0  0  0  0
  2  3  1  0  0  0  0
  2 95  1  0  0  0  0
  2 96  1  0  0  0  0
  3  4  1  1  0  0  0
  3  5  1  0  0  0  0
  3 28  1  0  0  0  0
  5  6  1  0  0  0  0
  6  7  1  6  0  0  0
  6  8  1  0  0  0  0
  6 24  1  0  0  0  0
  9 11  1  0  0  0  0
  9 19  1  0  0  0  0
  9 10  1  1  0  0  0
  9  8  1  0  0  0  0
 11 12  1  6  0  0  0
 11 13  1  0  0  0  0
 11 14  1  0  0  0  0
 13 97  1  0  0  0  0
 13 98  1  0  0  0  0
 13 99  1  0  0  0  0
 14 15  1  0  0  0  0
 15 17  1  0  0  0  0
 15 23  1  0  0  0  0
 15 16  1  6  0  0  0
 17 18  1  1  0  0  0
 17 19  1  0  0  0  0
 17 22  1  0  0  0  0
 19 21  1  0  0  0  0
 19 20  1  6  0  0  0
 21100  1  0  0  0  0
 22101  1  0  0  0  0
 23102  1  0  0  0  0
 24 25  1  6  0  0  0
 24 26  1  0  0  0  0
 24 93  1  0  0  0  0
 26 28  1  0  0  0  0
 26 92  1  0  0  0  0
 26 27  1  1  0  0  0
 28 29  1  1  0  0  0
 28 30  1  0  0  0  0
 30 31  1  0  0  0  0
 31 32  1  1  0  0  0
 31 33  1  0  0  0  0
 31 41  1  0  0  0  0
 33 34  1  0  0  0  0
 34 35  1  6  0  0  0
 34 36  1  0  0  0  0
 34 37  1  0  0  0  0
 36103  1  0  0  0  0
 36104  1  0  0  0  0
 36105  1  0  0  0  0
 37 39  1  0  0  0  0
 37 45  1  0  0  0  0
 37 38  1  1  0  0  0
 39 40  1  6  0  0  0
 39 41  1  0  0  0  0
 39 44  1  0  0  0  0
 41 43  1  0  0  0  0
 41 42  1  1  0  0  0
 43106  1  0  0  0  0
 44107  1  0  0  0  0
 45 46  1  0  0  0  0
 45108  1  0  0  0  0
 46 47  1  6  0  0  0
 46 48  1  0  0  0  0
 46 56  1  0  0  0  0
 48 49  2  0  0  0  0
 48109  1  0  0  0  0
 49 50  1  0  0  0  0
 49 52  1  0  0  0  0
 50 51  1  0  0  0  0
 50110  1  0  0  0  0
 50111  1  0  0  0  0
 51112  1  0  0  0  0
 52 54  1  0  0  0  0
 52 60  1  0  0  0  0
 52 53  1  6  0  0  0
 54 55  1  1  0  0  0
 54 56  1  0  0  0  0
 54 59  1  0  0  0  0
 56 57  1  6  0  0  0
 56 58  1  0  0  0  0
 58113  1  0  0  0  0
 59114  1  0  0  0  0
 60 61  1  0  0  0  0
 61 62  1  6  0  0  0
 61 63  1  0  0  0  0
 61 72  1  0  0  0  0
 63 64  1  0  0  0  0
 64 65  1  1  0  0  0
 64 66  1  0  0  0  0
 64 68  1  0  0  0  0
 66 67  1  0  0  0  0
 66115  1  0  0  0  0
 66116  1  0  0  0  0
 67117  1  0  0  0  0
 68 70  1  0  0  0  0
 68 76  1  0  0  0  0
 68 69  1  6  0  0  0
 70 71  1  1  0  0  0
 70 72  1  0  0  0  0
 70 75  1  0  0  0  0
 72 74  1  0  0  0  0
 72 73  1  6  0  0  0
 74118  1  0  0  0  0
 75119  1  0  0  0  0
 76 77  1  0  0  0  0
 77 78  1  1  0  0  0
 77 79  1  0  0  0  0
 77 87  1  0  0  0  0
 79 80  1  0  0  0  0
 80 81  1  6  0  0  0
 80 82  1  0  0  0  0
 80 83  1  0  0  0  0
 82120  1  0  0  0  0
 82121  1  0  0  0  0
 82122  1  0  0  0  0
 83 85  1  0  0  0  0
 83 91  1  0  0  0  0
 83 84  1  1  0  0  0
 85 86  1  6  0  0  0
 85 87  1  0  0  0  0
 85 90  1  0  0  0  0
 87 89  1  0  0  0  0
 87 88  1  1  0  0  0
 89123  1  0  0  0  0
 90124  1  0  0  0  0
 91125  1  0  0  0  0
 92126  1  0  0  0  0
 93127  1  0  0  0  0
M  END
$$$$
