ABG
 OpenBabel04121316073D

 49 51  0  0  1  0  0  0  0  0999 V2000
    3.0767    0.1164   -1.8699 O   0  0  0  0  0  0  0  0  0  0  0  0
    2.8054   -0.1055   -0.4922 C   0  0  2  0  0  0  0  0  0  0  0  0
    1.7091   -0.1145   -0.4018 H   0  0  0  0  0  0  0  0  0  0  0  0
    3.3960    1.1417    0.3035 C   0  0  1  0  0  0  0  0  0  0  0  0
    3.7088    1.9342   -0.3855 H   0  0  0  0  0  0  0  0  0  0  0  0
    2.4176    2.0740    1.5051 C   0  0  0  0  0  0  0  0  0  0  0  0
    0.9023    1.7529    1.7033 O   0  0  0  0  0  0  0  0  0  0  0  0
   -0.0622    1.9707    3.1229 P   0  0  1  0  0  0  0  0  0  0  0  0
   -1.3555    1.7303    2.3981 O   0  0  0  0  0  0  0  0  0  0  0  0
    0.8062    0.6972    3.9083 O   0  0  0  0  0  0  0  0  0  0  0  0
    2.0051    0.0673    2.8317 P   0  0  1  0  0  0  0  0  0  0  0  0
    2.7758   -0.3229    4.0507 O   0  0  0  0  0  0  0  0  0  0  0  0
    0.7666   -1.0784    2.1229 C   0  0  0  0  0  0  0  0  0  0  0  0
   -0.8418   -0.8322    2.9603 P   0  0  0  0  0  0  0  0  0  0  0  0
   -1.4687   -0.5673    1.5856 O   0  0  0  0  0  0  0  0  0  0  0  0
   -1.0031   -2.4695    3.0413 O   0  0  0  0  0  0  0  0  0  0  0  0
   -2.3623   -0.5994    3.7520 O   0  0  0  0  0  0  0  0  0  0  0  0
    3.2039   -0.5625    1.7551 O   0  0  0  0  0  0  0  0  0  0  0  0
   -1.0267    2.1885    4.5424 O   0  0  0  0  0  0  0  0  0  0  0  0
    4.8001    0.5438    0.8912 O   0  0  0  0  0  0  0  0  0  0  0  0
    4.9000   -1.1393    0.8969 C   0  0  2  0  0  0  0  0  0  0  0  0
    5.8709   -1.4574    0.5230 H   0  0  0  0  0  0  0  0  0  0  0  0
    3.5213   -1.5456   -0.0186 C   0  0  2  0  0  0  0  0  0  0  0  0
    2.7514   -2.0576    0.5967 H   0  0  0  0  0  0  0  0  0  0  0  0
    3.7439   -2.5479   -0.9911 O   0  0  0  0  0  0  0  0  0  0  0  0
    4.9602   -1.7090    2.4983 N   0  0  0  0  0  0  0  0  0  0  0  0
    4.0479   -2.6125    3.1022 C   0  0  0  0  0  0  0  0  0  0  0  0
    4.1153   -2.6470    4.4394 N   0  0  0  0  0  0  0  0  0  0  0  0
    4.9212   -1.6010    4.7990 C   0  0  0  0  0  0  0  0  0  0  0  0
    5.4560   -0.9750    3.6303 C   0  0  0  0  0  0  0  0  0  0  0  0
    6.1596    0.1496    3.6321 N   0  0  0  0  0  0  0  0  0  0  0  0
    6.4233    0.5936    4.9025 C   0  0  0  0  0  0  0  0  0  0  0  0
    6.0069    0.0848    6.0896 N   0  0  0  0  0  0  0  0  0  0  0  0
    5.2119   -0.9936    6.0713 C   0  0  0  0  0  0  0  0  0  0  0  0
    4.7152   -1.4318    7.3010 N   0  0  0  0  0  0  0  0  0  0  0  0
    4.0390    0.0218   -1.9500 H   0  0  0  0  0  0  0  0  0  0  0  0
    2.5915    3.1340    1.7461 H   0  0  0  0  0  0  0  0  0  0  0  0
    3.0048    1.8055    2.3882 H   0  0  0  0  0  0  0  0  0  0  0  0
    1.1320   -2.0862    2.3434 H   0  0  0  0  0  0  0  0  0  0  0  0
    0.6660   -1.0043    1.0423 H   0  0  0  0  0  0  0  0  0  0  0  0
   -1.1313   -2.8225    2.1334 H   0  0  0  0  0  0  0  0  0  0  0  0
   -2.5205    0.3655    3.8025 H   0  0  0  0  0  0  0  0  0  0  0  0
    3.9224    0.0329    2.1439 H   0  0  0  0  0  0  0  0  0  0  0  0
   -1.5629    2.9969    4.4249 H   0  0  0  0  0  0  0  0  0  0  0  0
    3.7783   -3.3840   -0.4798 H   0  0  0  0  0  0  0  0  0  0  0  0
    3.2337   -3.0829    2.5815 H   0  0  0  0  0  0  0  0  0  0  0  0
    7.0604    1.4594    4.9815 H   0  0  0  0  0  0  0  0  0  0  0  0
    5.1413   -1.0616    8.1475 H   0  0  0  0  0  0  0  0  0  0  0  0
    4.0654   -2.1884    7.3412 H   0  0  0  0  0  0  0  0  0  0  0  0
  1 36  1  0  0  0  0
  2  4  1  0  0  0  0
  2 23  1  0  0  0  0
  2  3  1  1  0  0  0
  2  1  1  0  0  0  0
  4  5  1  6  0  0  0
  4  6  1  0  0  0  0
  4 20  1  0  0  0  0
  6  7  1  0  0  0  0
  6 37  1  0  0  0  0
  6 38  1  0  0  0  0
  8  7  1  6  0  0  0
  8  9  2  0  0  0  0
  8 10  1  0  0  0  0
  8 19  1  0  0  0  0
 11 10  1  6  0  0  0
 11 12  2  0  0  0  0
 11 13  1  0  0  0  0
 11 18  1  0  0  0  0
 13 14  1  0  0  0  0
 13 39  1  0  0  0  0
 13 40  1  0  0  0  0
 14 15  2  0  0  0  0
 14 16  1  0  0  0  0
 14 17  1  0  0  0  0
 16 41  1  0  0  0  0
 17 42  1  0  0  0  0
 18 43  1  0  0  0  0
 19 44  1  0  0  0  0
 20 21  1  0  0  0  0
 21 23  1  0  0  0  0
 21 26  1  0  0  0  0
 21 22  1  6  0  0  0
 23 24  1  1  0  0  0
 23 25  1  0  0  0  0
 25 45  1  0  0  0  0
 26 27  1  0  0  0  0
 26 30  1  0  0  0  0
 27 28  2  0  0  0  0
 27 46  1  0  0  0  0
 28 29  1  0  0  0  0
 29 30  2  0  0  0  0
 29 34  1  0  0  0  0
 30 31  1  0  0  0  0
 31 32  2  0  0  0  0
 32 33  1  0  0  0  0
 32 47  1  0  0  0  0
 33 34  2  0  0  0  0
 34 35  1  0  0  0  0
 35 48  1  0  0  0  0
 35 49  1  0  0  0  0
M  END
$$$$
