ABH
 OpenBabel04121316073D

 28 27  0  0  1  0  0  0  0  0999 V2000
    3.4607    2.0826    2.3180 O   0  0  0  0  0  0  0  0  0  0  0  0
    2.7923    0.9139    2.2326 C   0  0  0  0  0  0  0  0  0  0  0  0
    1.8163    0.7112    2.9490 O   0  0  0  0  0  0  0  0  0  0  0  0
    3.1503   -0.1431    1.2574 C   0  0  2  0  0  0  0  0  0  0  0  0
    2.6153    0.0176    0.3448 H   0  0  0  0  0  0  0  0  0  0  0  0
    2.7831   -1.5035    1.8272 C   0  0  0  0  0  0  0  0  0  0  0  0
    1.2887   -1.5517    2.1007 C   0  0  0  0  0  0  0  0  0  0  0  0
    0.9215   -2.9122    2.6705 C   0  0  0  0  0  0  0  0  0  0  0  0
   -0.5729   -2.9603    2.9440 C   0  0  0  0  0  0  0  0  0  0  0  0
   -0.9594   -4.3924    3.5438 B   0  5  0  0  0  0  0  0  0  0  0  0
   -0.5971   -5.4622    2.5568 O   0  0  0  0  0  0  0  0  0  0  0  0
   -0.2094   -4.6177    4.8232 O   0  0  0  0  0  0  0  0  0  0  0  0
   -2.4342   -4.4399    3.8138 O   0  0  0  0  0  0  0  0  0  0  0  0
    4.5956   -0.0965    0.9928 N   0  0  0  0  0  0  0  0  0  0  0  0
    4.0787    2.2194    3.0088 H   0  0  0  0  0  0  0  0  0  0  0  0
    3.3181   -1.6642    2.7398 H   0  0  0  0  0  0  0  0  0  0  0  0
    3.0416   -2.2667    1.1231 H   0  0  0  0  0  0  0  0  0  0  0  0
    0.7537   -1.3910    1.1881 H   0  0  0  0  0  0  0  0  0  0  0  0
    1.0302   -0.7886    2.8048 H   0  0  0  0  0  0  0  0  0  0  0  0
    1.4565   -3.0729    3.5831 H   0  0  0  0  0  0  0  0  0  0  0  0
    1.1800   -3.6753    1.9664 H   0  0  0  0  0  0  0  0  0  0  0  0
   -1.1079   -2.7996    2.0314 H   0  0  0  0  0  0  0  0  0  0  0  0
   -0.8314   -2.1972    3.6481 H   0  0  0  0  0  0  0  0  0  0  0  0
    0.3566   -5.4315    2.3822 H   0  0  0  0  0  0  0  0  0  0  0  0
    0.7442   -4.5869    4.6486 H   0  0  0  0  0  0  0  0  0  0  0  0
   -2.9192   -4.2943    2.9864 H   0  0  0  0  0  0  0  0  0  0  0  0
    4.8420   -0.8239    0.3217 H   0  0  0  0  0  0  0  0  0  0  0  0
    5.1056   -0.2496    1.8628 H   0  0  0  0  0  0  0  0  0  0  0  0
  1  2  1  0  0  0  0
  1 15  1  0  0  0  0
  2  3  2  0  0  0  0
  4  6  1  0  0  0  0
  4 14  1  0  0  0  0
  4  5  1  6  0  0  0
  4  2  1  0  0  0  0
  6  7  1  0  0  0  0
  6 16  1  0  0  0  0
  6 17  1  0  0  0  0
  7  8  1  0  0  0  0
  7 18  1  0  0  0  0
  7 19  1  0  0  0  0
  8  9  1  0  0  0  0
  8 20  1  0  0  0  0
  8 21  1  0  0  0  0
  9 10  1  0  0  0  0
  9 22  1  0  0  0  0
  9 23  1  0  0  0  0
 10 11  1  0  0  0  0
 10 12  1  0  0  0  0
 10 13  1  0  0  0  0
 11 24  1  0  0  0  0
 12 25  1  0  0  0  0
 13 26  1  0  0  0  0
 14 27  1  0  0  0  0
 14 28  1  0  0  0  0
M  CHG  1  10  -1
M  END
$$$$
