ABJ
 OpenBabel04121316073D

 35 37  0  0  0  0  0  0  0  0999 V2000
    0.9789   -0.0209    0.0189 O   0  0  0  0  0  0  0  0  0  0  0  0
    2.3419    0.0065   -0.0181 C   0  0  0  0  0  0  0  0  0  0  0  0
    3.0256    1.2199   -0.0685 C   0  0  0  0  0  0  0  0  0  0  0  0
    4.4074    1.2108    0.0171 C   0  0  0  0  0  0  0  0  0  0  0  0
    5.0733   -0.0079    0.0849 C   0  0  0  0  0  0  0  0  0  0  0  0
    4.4152   -1.2271   -0.0888 C   0  0  0  0  0  0  0  0  0  0  0  0
    3.0208   -1.2137   -0.0191 C   0  0  0  0  0  0  0  0  0  0  0  0
    5.1815   -2.4465   -0.3927 C   0  0  0  0  0  0  0  0  0  0  0  0
    4.6280   -3.6641   -0.2297 N   0  0  0  0  0  0  0  0  0  0  0  0
    5.5814   -4.5380   -0.6338 N   0  0  0  0  0  0  0  0  0  0  0  0
    6.7353   -3.9141   -1.0350 C   0  0  0  0  0  0  0  0  0  0  0  0
    6.5154   -2.5549   -0.9328 C   0  0  0  0  0  0  0  0  0  0  0  0
    7.5840   -1.7222   -1.3378 C   0  0  0  0  0  0  0  0  0  0  0  0
    7.5898   -0.3368   -1.3585 N   0  0  0  0  0  0  0  0  0  0  0  0
    8.7420   -2.2890   -1.7337 N   0  0  0  0  0  0  0  0  0  0  0  0
    8.8218   -3.6236   -1.7708 C   0  0  0  0  0  0  0  0  0  0  0  0
    7.8738   -4.5051   -1.4557 N   0  0  0  0  0  0  0  0  0  0  0  0
    5.2891   -5.9728   -0.5750 C   0  0  0  0  0  0  0  0  0  0  0  0
    4.0828   -6.3386   -1.4477 C   0  0  0  0  0  0  0  0  0  0  0  0
    6.4685   -6.8700   -0.9625 C   0  0  0  0  0  0  0  0  0  0  0  0
    0.6528    0.8902   -0.0612 H   0  0  0  0  0  0  0  0  0  0  0  0
    2.5072    2.1709   -0.1172 H   0  0  0  0  0  0  0  0  0  0  0  0
    4.9794    2.1340    0.0493 H   0  0  0  0  0  0  0  0  0  0  0  0
    6.1354    0.0082    0.2907 H   0  0  0  0  0  0  0  0  0  0  0  0
    2.4582   -2.1427    0.0341 H   0  0  0  0  0  0  0  0  0  0  0  0
    6.7443    0.0871   -1.7221 H   0  0  0  0  0  0  0  0  0  0  0  0
    8.4563    0.0413   -1.7193 H   0  0  0  0  0  0  0  0  0  0  0  0
    9.7703   -4.0355   -2.1053 H   0  0  0  0  0  0  0  0  0  0  0  0
    5.0380   -6.1780    0.4746 H   0  0  0  0  0  0  0  0  0  0  0  0
    4.2679   -6.0880   -2.4978 H   0  0  0  0  0  0  0  0  0  0  0  0
    3.1789   -5.8074   -1.1313 H   0  0  0  0  0  0  0  0  0  0  0  0
    3.8685   -7.4121   -1.3878 H   0  0  0  0  0  0  0  0  0  0  0  0
    6.7657   -6.6904   -2.0026 H   0  0  0  0  0  0  0  0  0  0  0  0
    6.2187   -7.9310   -0.8754 H   0  0  0  0  0  0  0  0  0  0  0  0
    7.3304   -6.6838   -0.3126 H   0  0  0  0  0  0  0  0  0  0  0  0
  1  2  1  0  0  0  0
  1 21  1  0  0  0  0
  2  3  2  0  0  0  0
  2  7  1  0  0  0  0
  3  4  1  0  0  0  0
  3 22  1  0  0  0  0
  4  5  2  0  0  0  0
  4 23  1  0  0  0  0
  5  6  1  0  0  0  0
  5 24  1  0  0  0  0
  6  7  2  0  0  0  0
  6  8  1  0  0  0  0
  7 25  1  0  0  0  0
  8  9  2  0  0  0  0
  8 12  1  0  0  0  0
  9 10  1  0  0  0  0
 10 11  1  0  0  0  0
 10 18  1  0  0  0  0
 11 12  2  0  0  0  0
 11 17  1  0  0  0  0
 12 13  1  0  0  0  0
 13 14  1  0  0  0  0
 13 15  2  0  0  0  0
 14 26  1  0  0  0  0
 14 27  1  0  0  0  0
 15 16  1  0  0  0  0
 16 17  2  0  0  0  0
 16 28  1  0  0  0  0
 18 19  1  0  0  0  0
 18 20  1  0  0  0  0
 18 29  1  0  0  0  0
 19 30  1  0  0  0  0
 19 31  1  0  0  0  0
 19 32  1  0  0  0  0
 20 33  1  0  0  0  0
 20 34  1  0  0  0  0
 20 35  1  0  0  0  0
M  END
$$$$
