ABL
 OpenBabel04121316073D

 44 45  0  0  1  0  0  0  0  0999 V2000
    7.1746   -3.7511    7.7486 O   0  0  0  0  0  0  0  0  0  0  0  0
    7.1979   -3.0620    6.5023 C   0  0  0  0  0  0  0  0  0  0  0  0
    6.0388   -2.0270    6.3647 C   0  0  1  0  0  0  0  0  0  0  0  0
    5.0918   -2.5210    6.6138 H   0  0  0  0  0  0  0  0  0  0  0  0
    6.1828   -0.9392    7.3410 N   0  0  0  0  0  0  0  0  0  0  0  0
    7.2766   -0.1095    7.2013 C   0  0  0  0  0  0  0  0  0  0  0  0
    8.0732    0.1142    8.0922 O   0  0  0  0  0  0  0  0  0  0  0  0
    7.3371    0.5662    5.8339 C   0  0  1  0  0  0  0  0  0  0  0  0
    8.2694    1.1257    5.7346 H   0  0  0  0  0  0  0  0  0  0  0  0
    7.2200   -0.4991    4.7207 C   0  0  2  0  0  0  0  0  0  0  0  0
    7.1287    0.0102    3.7627 H   0  0  0  0  0  0  0  0  0  0  0  0
    5.9873   -1.4181    4.9332 C   0  0  2  0  0  0  0  0  0  0  0  0
    5.9907   -2.2453    4.2113 H   0  0  0  0  0  0  0  0  0  0  0  0
    4.7360   -0.7180    4.7800 O   0  0  0  0  0  0  0  0  0  0  0  0
    4.5814   -0.0656    3.5119 C   0  0  2  0  0  0  0  0  0  0  0  0
    5.0081   -0.7246    2.7454 H   0  0  0  0  0  0  0  0  0  0  0  0
    5.2614    1.1882    3.4915 O   0  0  0  0  0  0  0  0  0  0  0  0
    5.2237    1.8894    2.2568 C   0  0  2  0  0  0  0  0  0  0  0  0
    5.6851    1.2623    1.4830 H   0  0  0  0  0  0  0  0  0  0  0  0
    6.0634    3.1748    2.3700 C   0  0  0  0  0  0  0  0  0  0  0  0
    6.1052    3.9160    1.1553 O   0  0  0  0  0  0  0  0  0  0  0  0
    3.7692    2.1917    1.8892 C   0  0  2  0  0  0  0  0  0  0  0  0
    3.3290    2.8826    2.6203 H   0  0  0  0  0  0  0  0  0  0  0  0
    2.9785    0.8814    1.8783 C   0  0  1  0  0  0  0  0  0  0  0  0
    3.3671    0.2370    1.0790 H   0  0  0  0  0  0  0  0  0  0  0  0
    3.0857    0.1460    3.2192 C   0  0  1  0  0  0  0  0  0  0  0  0
    2.6107    0.7324    4.0152 H   0  0  0  0  0  0  0  0  0  0  0  0
    2.4006   -1.1147    3.1566 O   0  0  0  0  0  0  0  0  0  0  0  0
    1.6224    1.1484    1.5195 O   0  0  0  0  0  0  0  0  0  0  0  0
    3.6255    2.7788    0.5920 O   0  0  0  0  0  0  0  0  0  0  0  0
    8.4098   -1.2848    4.5435 O   0  0  0  0  0  0  0  0  0  0  0  0
    6.2652    1.5119    5.8010 O   0  0  0  0  0  0  0  0  0  0  0  0
    8.0640   -4.1412    7.8572 H   0  0  0  0  0  0  0  0  0  0  0  0
    7.1563   -3.8073    5.7016 H   0  0  0  0  0  0  0  0  0  0  0  0
    8.1754   -2.5842    6.4770 H   0  0  0  0  0  0  0  0  0  0  0  0
    5.8413   -1.1037    8.2784 H   0  0  0  0  0  0  0  0  0  0  0  0
    7.0955    2.9379    2.6509 H   0  0  0  0  0  0  0  0  0  0  0  0
    5.6681    3.8279    3.1558 H   0  0  0  0  0  0  0  0  0  0  0  0
    6.3340    3.3177    0.4274 H   0  0  0  0  0  0  0  0  0  0  0  0
    2.7689   -1.6270    2.4204 H   0  0  0  0  0  0  0  0  0  0  0  0
    1.6662    1.7679    0.7641 H   0  0  0  0  0  0  0  0  0  0  0  0
    4.2253    2.3272   -0.0232 H   0  0  0  0  0  0  0  0  0  0  0  0
    8.9365   -1.2613    5.3611 H   0  0  0  0  0  0  0  0  0  0  0  0
    6.2807    2.0405    6.6158 H   0  0  0  0  0  0  0  0  0  0  0  0
  1  2  1  0  0  0  0
  1 33  1  0  0  0  0
  2  3  1  0  0  0  0
  2 34  1  0  0  0  0
  2 35  1  0  0  0  0
  3  4  1  1  0  0  0
  3  5  1  0  0  0  0
  3 12  1  0  0  0  0
  5  6  1  0  0  0  0
  5 36  1  0  0  0  0
  6  7  2  0  0  0  0
  6  8  1  0  0  0  0
  8  9  1  6  0  0  0
  8 10  1  0  0  0  0
  8 32  1  0  0  0  0
 10 12  1  0  0  0  0
 10 31  1  0  0  0  0
 10 11  1  6  0  0  0
 12 13  1  6  0  0  0
 12 14  1  0  0  0  0
 15 17  1  0  0  0  0
 15 26  1  0  0  0  0
 15 16  1  6  0  0  0
 15 14  1  0  0  0  0
 17 18  1  0  0  0  0
 18 19  1  6  0  0  0
 18 20  1  0  0  0  0
 18 22  1  0  0  0  0
 20 21  1  0  0  0  0
 20 37  1  0  0  0  0
 20 38  1  0  0  0  0
 21 39  1  0  0  0  0
 22 24  1  0  0  0  0
 22 30  1  0  0  0  0
 22 23  1  1  0  0  0
 24 25  1  6  0  0  0
 24 26  1  0  0  0  0
 24 29  1  0  0  0  0
 26 28  1  0  0  0  0
 26 27  1  1  0  0  0
 28 40  1  0  0  0  0
 29 41  1  0  0  0  0
 30 42  1  0  0  0  0
 31 43  1  0  0  0  0
 32 44  1  0  0  0  0
M  END
$$$$
