ABM
 OpenBabel04121316073D

 39 41  0  0  1  0  0  0  0  0999 V2000
    2.8413    0.2456   -1.2431 O   0  0  0  0  0  0  0  0  0  0  0  0
    2.3755    0.1123    0.1145 C   0  0  2  0  0  0  0  0  0  0  0  0
    1.2838    0.1488    0.0457 H   0  0  0  0  0  0  0  0  0  0  0  0
    2.9174    1.2258    1.0136 C   0  0  2  0  0  0  0  0  0  0  0  0
    2.2693    1.3234    1.8894 H   0  0  0  0  0  0  0  0  0  0  0  0
    2.9869    2.4720    0.3401 O   0  0  0  0  0  0  0  0  0  0  0  0
    4.2800    0.6877    1.4245 C   0  0  2  0  0  0  0  0  0  0  0  0
    4.9681    0.8290    0.5764 H   0  0  0  0  0  0  0  0  0  0  0  0
    4.1100   -0.7432    1.5319 O   0  0  0  0  0  0  0  0  0  0  0  0
    2.9246   -1.1524    0.7959 C   0  0  1  0  0  0  0  0  0  0  0  0
    3.2248   -1.9161    0.0656 H   0  0  0  0  0  0  0  0  0  0  0  0
    1.9503   -1.7962    1.6706 N   0  0  0  0  0  0  0  0  0  0  0  0
    0.6781   -2.1427    1.2746 C   0  0  0  0  0  0  0  0  0  0  0  0
   -0.0221   -2.6701    2.2590 N   0  0  0  0  0  0  0  0  0  0  0  0
    0.8506   -2.7212    3.3185 C   0  0  0  0  0  0  0  0  0  0  0  0
    2.0983   -2.2023    2.9727 C   0  0  0  0  0  0  0  0  0  0  0  0
    3.1700   -2.1226    3.7613 N   0  0  0  0  0  0  0  0  0  0  0  0
    2.9202   -2.6095    4.9948 C   0  0  0  0  0  0  0  0  0  0  0  0
    1.7624   -3.1226    5.4687 N   0  0  0  0  0  0  0  0  0  0  0  0
    0.7049   -3.1857    4.6359 C   0  0  0  0  0  0  0  0  0  0  0  0
   -0.4850   -3.6985    5.1075 N   0  0  0  0  0  0  0  0  0  0  0  0
    5.0157    1.3339    2.6514 C   0  0  0  0  0  0  0  0  0  0  0  0
    4.3668    1.3811    3.9263 O   0  0  0  0  0  0  0  0  0  0  0  0
    4.1096    2.7748    4.7065 P   0  0  1  0  0  0  0  0  0  0  0  0
    3.8449    3.9453    3.8136 O   0  0  0  0  0  0  0  0  0  0  0  0
    2.8060    2.2978    5.5193 O   0  0  0  0  0  0  0  0  0  0  0  0
    5.1641    3.1346    6.1052 C   0  0  0  0  0  0  0  0  0  0  0  0
    3.7983    0.0784   -1.2894 H   0  0  0  0  0  0  0  0  0  0  0  0
    3.2973    2.3176   -0.5723 H   0  0  0  0  0  0  0  0  0  0  0  0
    0.3026   -1.9753    0.2752 H   0  0  0  0  0  0  0  0  0  0  0  0
    3.7477   -2.5831    5.6931 H   0  0  0  0  0  0  0  0  0  0  0  0
   -0.5253   -4.0201    6.0610 H   0  0  0  0  0  0  0  0  0  0  0  0
   -1.2750   -3.7484    4.4834 H   0  0  0  0  0  0  0  0  0  0  0  0
    5.9023    0.7203    2.8331 H   0  0  0  0  0  0  0  0  0  0  0  0
    5.3478    2.3366    2.3676 H   0  0  0  0  0  0  0  0  0  0  0  0
    2.1753    1.8493    4.9315 H   0  0  0  0  0  0  0  0  0  0  0  0
    6.1745    3.4783    5.8693 H   0  0  0  0  0  0  0  0  0  0  0  0
    5.2181    2.3435    6.8622 H   0  0  0  0  0  0  0  0  0  0  0  0
    4.6790    3.9807    6.6184 H   0  0  0  0  0  0  0  0  0  0  0  0
  1 28  1  0  0  0  0
  2  4  1  0  0  0  0
  2 10  1  0  0  0  0
  2  3  1  1  0  0  0
  2  1  1  0  0  0  0
  4  7  1  0  0  0  0
  4  6  1  0  0  0  0
  4  5  1  1  0  0  0
  6 29  1  0  0  0  0
  7  9  1  0  0  0  0
  7 22  1  0  0  0  0
  7  8  1  6  0  0  0
  9 10  1  0  0  0  0
 10 12  1  0  0  0  0
 10 11  1  6  0  0  0
 12 13  1  0  0  0  0
 12 16  1  0  0  0  0
 13 14  2  0  0  0  0
 13 30  1  0  0  0  0
 14 15  1  0  0  0  0
 15 16  2  0  0  0  0
 15 20  1  0  0  0  0
 16 17  1  0  0  0  0
 17 18  2  0  0  0  0
 18 19  1  0  0  0  0
 18 31  1  0  0  0  0
 19 20  2  0  0  0  0
 20 21  1  0  0  0  0
 21 32  1  0  0  0  0
 21 33  1  0  0  0  0
 22 23  1  0  0  0  0
 22 34  1  0  0  0  0
 22 35  1  0  0  0  0
 24 23  1  6  0  0  0
 24 25  2  0  0  0  0
 24 26  1  0  0  0  0
 24 27  1  0  0  0  0
 26 36  1  0  0  0  0
 27 37  1  0  0  0  0
 27 38  1  0  0  0  0
 27 39  1  0  0  0  0
M  END
$$$$
