ABN
 OpenBabel04121316073D

 17 17  0  0  0  0  0  0  0  0999 V2000
    0.9769    0.0071   -0.0374 N   0  0  0  0  0  0  0  0  0  0  0  0
    2.4366   -0.0408   -0.0546 C   0  0  0  0  0  0  0  0  0  0  0  0
    2.8989   -0.9701   -1.1473 C   0  0  0  0  0  0  0  0  0  0  0  0
    3.2738   -0.4621   -2.4001 C   0  0  0  0  0  0  0  0  0  0  0  0
    3.4323   -1.3275   -3.4843 C   0  0  0  0  0  0  0  0  0  0  0  0
    3.2966   -2.7006   -3.3096 C   0  0  0  0  0  0  0  0  0  0  0  0
    3.0434   -3.2232   -2.0411 C   0  0  0  0  0  0  0  0  0  0  0  0
    2.8232   -2.3572   -0.9696 C   0  0  0  0  0  0  0  0  0  0  0  0
    0.6558    0.5685    0.7456 H   0  0  0  0  0  0  0  0  0  0  0  0
    0.6169   -0.9353    0.1063 H   0  0  0  0  0  0  0  0  0  0  0  0
    2.8152   -0.3824    0.9152 H   0  0  0  0  0  0  0  0  0  0  0  0
    2.8267    0.9697   -0.2158 H   0  0  0  0  0  0  0  0  0  0  0  0
    3.3922    0.6069   -2.5470 H   0  0  0  0  0  0  0  0  0  0  0  0
    3.6308   -0.9201   -4.4733 H   0  0  0  0  0  0  0  0  0  0  0  0
    3.3778   -3.3693   -4.1629 H   0  0  0  0  0  0  0  0  0  0  0  0
    2.9785   -4.2956   -1.8953 H   0  0  0  0  0  0  0  0  0  0  0  0
    2.5454   -2.7704   -0.0018 H   0  0  0  0  0  0  0  0  0  0  0  0
  1  2  1  0  0  0  0
  1  9  1  0  0  0  0
  1 10  1  0  0  0  0
  2  3  1  0  0  0  0
  2 11  1  0  0  0  0
  2 12  1  0  0  0  0
  3  4  2  0  0  0  0
  3  8  1  0  0  0  0
  4  5  1  0  0  0  0
  4 13  1  0  0  0  0
  5  6  2  0  0  0  0
  5 14  1  0  0  0  0
  6  7  1  0  0  0  0
  6 15  1  0  0  0  0
  7  8  2  0  0  0  0
  7 16  1  0  0  0  0
  8 17  1  0  0  0  0
M  END
$$$$
