AC5
 OpenBabel04121316073D

 20 20  0  0  0  0  0  0  0  0999 V2000
    0.9718    0.0621   -0.1804 O   0  0  0  0  0  0  0  0  0  0  0  0
    2.2955   -0.0964   -0.0398 C   0  0  0  0  0  0  0  0  0  0  0  0
    2.7690   -1.2274    0.0393 O   0  0  0  0  0  0  0  0  0  0  0  0
    3.1232    1.1843   -0.1928 C   0  0  0  0  0  0  0  0  0  0  0  0
    3.7130    1.1712   -1.5544 N   0  0  0  0  0  0  0  0  0  0  0  0
    2.4200    2.5360   -0.0197 C   0  0  0  0  0  0  0  0  0  0  0  0
    3.5534    3.4838    0.3783 C   0  0  0  0  0  0  0  0  0  0  0  0
    4.4318    2.6567    1.3035 C   0  0  0  0  0  0  0  0  0  0  0  0
    4.1670    1.1980    0.9399 C   0  0  0  0  0  0  0  0  0  0  0  0
    0.6437   -0.8598   -0.2522 H   0  0  0  0  0  0  0  0  0  0  0  0
    2.9345    1.1826   -2.2202 H   0  0  0  0  0  0  0  0  0  0  0  0
    4.1714    0.2698   -1.7014 H   0  0  0  0  0  0  0  0  0  0  0  0
    1.6548    2.5005    0.7633 H   0  0  0  0  0  0  0  0  0  0  0  0
    1.9290    2.8879   -0.9357 H   0  0  0  0  0  0  0  0  0  0  0  0
    3.1869    4.3935    0.8629 H   0  0  0  0  0  0  0  0  0  0  0  0
    4.1348    3.7892   -0.5008 H   0  0  0  0  0  0  0  0  0  0  0  0
    4.1494    2.8353    2.3483 H   0  0  0  0  0  0  0  0  0  0  0  0
    5.4914    2.9121    1.2052 H   0  0  0  0  0  0  0  0  0  0  0  0
    3.7744    0.6900    1.8323 H   0  0  0  0  0  0  0  0  0  0  0  0
    5.0872    0.6697    0.6690 H   0  0  0  0  0  0  0  0  0  0  0  0
  1  2  1  0  0  0  0
  1 10  1  0  0  0  0
  2  3  2  0  0  0  0
  2  4  1  0  0  0  0
  4  5  1  0  0  0  0
  4  6  1  0  0  0  0
  4  9  1  0  0  0  0
  5 11  1  0  0  0  0
  5 12  1  0  0  0  0
  6  7  1  0  0  0  0
  6 13  1  0  0  0  0
  6 14  1  0  0  0  0
  7  8  1  0  0  0  0
  7 15  1  0  0  0  0
  7 16  1  0  0  0  0
  8  9  1  0  0  0  0
  8 17  1  0  0  0  0
  8 18  1  0  0  0  0
  9 19  1  0  0  0  0
  9 20  1  0  0  0  0
M  END
$$$$
