AC6
 OpenBabel04121316073D

 18 18  0  0  0  0  0  0  0  0999 V2000
    0.9437    0.0619   -0.0074 C   0  0  0  0  0  0  0  0  0  0  0  0
    2.4490    0.0866    0.0342 C   0  0  0  0  0  0  0  0  0  0  0  0
    3.0964    0.3000    1.0558 O   0  0  0  0  0  0  0  0  0  0  0  0
    3.1472   -0.1335   -1.2442 C   0  0  0  0  0  0  0  0  0  0  0  0
    3.6270    0.9639   -1.9648 C   0  0  0  0  0  0  0  0  0  0  0  0
    4.1211    0.7712   -3.2571 C   0  0  0  0  0  0  0  0  0  0  0  0
    4.2363   -0.5237   -3.7580 C   0  0  0  0  0  0  0  0  0  0  0  0
    3.8856   -1.6255   -2.9827 C   0  0  0  0  0  0  0  0  0  0  0  0
    3.2854   -1.4313   -1.7390 C   0  0  0  0  0  0  0  0  0  0  0  0
    4.6824   -0.7606   -5.0243 O   0  0  0  0  0  0  0  0  0  0  0  0
    0.5491    0.2489    0.9960 H   0  0  0  0  0  0  0  0  0  0  0  0
    0.5838   -0.9147   -0.3421 H   0  0  0  0  0  0  0  0  0  0  0  0
    0.5736    0.8477   -0.6725 H   0  0  0  0  0  0  0  0  0  0  0  0
    3.6025    1.9607   -1.5319 H   0  0  0  0  0  0  0  0  0  0  0  0
    4.4116    1.6318   -3.8519 H   0  0  0  0  0  0  0  0  0  0  0  0
    4.0637   -2.6302   -3.3557 H   0  0  0  0  0  0  0  0  0  0  0  0
    2.9387   -2.2853   -1.1642 H   0  0  0  0  0  0  0  0  0  0  0  0
    4.7666    0.0861   -5.4933 H   0  0  0  0  0  0  0  0  0  0  0  0
  1  2  1  0  0  0  0
  1 11  1  0  0  0  0
  1 12  1  0  0  0  0
  1 13  1  0  0  0  0
  2  3  2  0  0  0  0
  2  4  1  0  0  0  0
  4  5  2  0  0  0  0
  4  9  1  0  0  0  0
  5  6  1  0  0  0  0
  5 14  1  0  0  0  0
  6  7  2  0  0  0  0
  6 15  1  0  0  0  0
  7  8  1  0  0  0  0
  7 10  1  0  0  0  0
  8  9  2  0  0  0  0
  8 16  1  0  0  0  0
  9 17  1  0  0  0  0
 10 18  1  0  0  0  0
M  END
$$$$
