ACM
 OpenBabel04121316073D

  9  8  0  0  0  0  0  0  0  0999 V2000
    0.9438   -0.0583   -0.0130 C   0  0  0  0  0  0  0  0  0  0  0  0
    2.4446   -0.0905    0.0252 C   0  0  0  0  0  0  0  0  0  0  0  0
    3.0880   -0.7619    0.8210 O   0  0  0  0  0  0  0  0  0  0  0  0
    3.0630    0.6921   -0.9026 N   0  0  0  0  0  0  0  0  0  0  0  0
    0.5487   -0.7161    0.7667 H   0  0  0  0  0  0  0  0  0  0  0  0
    0.5854   -0.4102   -0.9841 H   0  0  0  0  0  0  0  0  0  0  0  0
    0.5854    0.9582    0.1702 H   0  0  0  0  0  0  0  0  0  0  0  0
    2.5682    1.2596   -1.5753 H   0  0  0  0  0  0  0  0  0  0  0  0
    4.0749    0.6967   -0.9081 H   0  0  0  0  0  0  0  0  0  0  0  0
  1  2  1  0  0  0  0
  1  5  1  0  0  0  0
  1  6  1  0  0  0  0
  1  7  1  0  0  0  0
  2  3  2  0  0  0  0
  2  4  1  0  0  0  0
  4  8  1  0  0  0  0
  4  9  1  0  0  0  0
M  END
$$$$
