ACO
 OpenBabel04121316073D

 89 91  0  0  1  0  0  0  0  0999 V2000
    0.7108    2.6098    4.4077 O   0  0  0  0  0  0  0  0  0  0  0  0
    0.6120    1.4747    3.9486 C   0  0  0  0  0  0  0  0  0  0  0  0
   -0.5105    0.6965    4.1224 N   0  0  0  0  0  0  0  0  0  0  0  0
   -1.6632    1.1944    4.8419 C   0  0  0  0  0  0  0  0  0  0  0  0
   -2.8029    0.1716    4.8977 C   0  0  0  0  0  0  0  0  0  0  0  0
   -4.1786    0.9020    5.8302 S   0  0  0  0  0  0  0  0  0  0  0  0
   -5.3705   -0.3840    5.7970 C   0  0  0  0  0  0  0  0  0  0  0  0
   -5.1575   -1.4648    5.2295 O   0  0  0  0  0  0  0  0  0  0  0  0
   -6.6564   -0.0684    6.5080 C   0  0  0  0  0  0  0  0  0  0  0  0
    1.7523    0.8691    3.1550 C   0  0  0  0  0  0  0  0  0  0  0  0
    1.4416   -0.5127    2.6184 C   0  0  0  0  0  0  0  0  0  0  0  0
    2.4477   -1.0119    1.7282 N   0  0  0  0  0  0  0  0  0  0  0  0
    2.3467   -2.2830    1.2009 C   0  0  0  0  0  0  0  0  0  0  0  0
    1.3673   -2.9973    1.3956 O   0  0  0  0  0  0  0  0  0  0  0  0
    3.6009   -2.7719    0.4094 C   0  0  1  0  0  0  0  0  0  0  0  0
    3.8287   -2.0632   -0.3830 H   0  0  0  0  0  0  0  0  0  0  0  0
    4.7857   -2.9429    1.3848 C   0  0  0  0  0  0  0  0  0  0  0  0
    4.1899   -3.9828    2.3814 C   0  0  0  0  0  0  0  0  0  0  0  0
    3.5196   -3.2901    3.4879 O   0  0  0  0  0  0  0  0  0  0  0  0
    3.1946   -4.2969    4.8567 P   0  0  1  0  0  0  0  0  0  0  0  0
    3.3819   -5.6093    4.1047 O   0  0  0  0  0  0  0  0  0  0  0  0
    4.5907   -3.6590    5.5718 O   0  0  0  0  0  0  0  0  0  0  0  0
    5.4668   -2.6019    4.5981 P   0  0  2  0  0  0  0  0  0  0  0  0
    6.0826   -3.7760    3.8061 O   0  0  0  0  0  0  0  0  0  0  0  0
    6.9016   -2.2552    5.3646 O   0  0  0  0  0  0  0  0  0  0  0  0
    8.0073   -2.7779    4.6068 C   0  0  0  0  0  0  0  0  0  0  0  0
    9.3908   -2.3278    4.9315 C   0  0  1  0  0  0  0  0  0  0  0  0
    9.9891   -2.3768    4.0077 H   0  0  0  0  0  0  0  0  0  0  0  0
    9.4885   -0.9990    5.4171 O   0  0  0  0  0  0  0  0  0  0  0  0
   10.6897   -0.9918    6.1933 C   0  0  2  0  0  0  0  0  0  0  0  0
   11.5266   -0.7756    5.5150 H   0  0  0  0  0  0  0  0  0  0  0  0
   10.8378   -2.3974    6.8070 C   0  0  1  0  0  0  0  0  0  0  0  0
   10.4438   -2.4071    7.8304 H   0  0  0  0  0  0  0  0  0  0  0  0
    9.9734   -3.3129    5.9234 C   0  0  2  0  0  0  0  0  0  0  0  0
    9.2086   -3.7907    6.5528 H   0  0  0  0  0  0  0  0  0  0  0  0
   10.7133   -4.2674    5.1706 O   0  0  0  0  0  0  0  0  0  0  0  0
   10.2607   -5.6670    4.5335 P   0  0  0  0  0  0  0  0  0  0  0  0
   11.3405   -6.3131    3.7388 O   0  0  0  0  0  0  0  0  0  0  0  0
    9.7237   -6.5048    5.7741 O   0  0  0  0  0  0  0  0  0  0  0  0
    8.9612   -5.4290    3.6422 O   0  0  0  0  0  0  0  0  0  0  0  0
   12.1949   -2.8315    6.8609 O   0  0  0  0  0  0  0  0  0  0  0  0
   10.6615    0.0796    7.1730 N   0  0  0  0  0  0  0  0  0  0  0  0
   11.7830    0.7308    7.6270 C   0  0  0  0  0  0  0  0  0  0  0  0
   11.4990    1.6369    8.5358 N   0  0  0  0  0  0  0  0  0  0  0  0
   10.1266    1.5811    8.6687 C   0  0  0  0  0  0  0  0  0  0  0  0
    9.5870    0.6089    7.8384 C   0  0  0  0  0  0  0  0  0  0  0  0
    8.2905    0.2752    7.7361 N   0  0  0  0  0  0  0  0  0  0  0  0
    7.5249    1.0374    8.5427 C   0  0  0  0  0  0  0  0  0  0  0  0
    7.9115    2.0166    9.3900 N   0  0  0  0  0  0  0  0  0  0  0  0
    9.2295    2.3043    9.4747 C   0  0  0  0  0  0  0  0  0  0  0  0
    9.6375    3.2883   10.3468 N   0  0  0  0  0  0  0  0  0  0  0  0
    4.7769   -1.2867    5.4853 O   0  0  0  0  0  0  0  0  0  0  0  0
    2.8695   -5.3037    6.2255 O   0  0  0  0  0  0  0  0  0  0  0  0
    6.0358   -3.5361    0.6987 C   0  0  0  0  0  0  0  0  0  0  0  0
    5.2747   -1.5635    1.9380 C   0  0  0  0  0  0  0  0  0  0  0  0
    3.3795   -4.0340   -0.2278 O   0  0  0  0  0  0  0  0  0  0  0  0
   -0.5867   -0.2305    3.7300 H   0  0  0  0  0  0  0  0  0  0  0  0
   -1.9819    2.1138    4.3370 H   0  0  0  0  0  0  0  0  0  0  0  0
   -1.3168    1.4565    5.8479 H   0  0  0  0  0  0  0  0  0  0  0  0
   -2.4543   -0.7492    5.3809 H   0  0  0  0  0  0  0  0  0  0  0  0
   -3.1210   -0.0895    3.8809 H   0  0  0  0  0  0  0  0  0  0  0  0
   -6.6482    0.9354    6.9451 H   0  0  0  0  0  0  0  0  0  0  0  0
   -6.8145   -0.7878    7.3167 H   0  0  0  0  0  0  0  0  0  0  0  0
   -7.4895   -0.1225    5.8012 H   0  0  0  0  0  0  0  0  0  0  0  0
    2.6413    0.8410    3.7991 H   0  0  0  0  0  0  0  0  0  0  0  0
    1.9773    1.5458    2.3215 H   0  0  0  0  0  0  0  0  0  0  0  0
    0.5152   -0.5090    2.0377 H   0  0  0  0  0  0  0  0  0  0  0  0
    1.3252   -1.2230    3.4491 H   0  0  0  0  0  0  0  0  0  0  0  0
    3.2234   -0.4127    1.4877 H   0  0  0  0  0  0  0  0  0  0  0  0
    4.9272   -4.7275    2.6911 H   0  0  0  0  0  0  0  0  0  0  0  0
    3.5042   -4.7023    1.9242 H   0  0  0  0  0  0  0  0  0  0  0  0
    7.8910   -2.6193    3.5244 H   0  0  0  0  0  0  0  0  0  0  0  0
    7.9703   -3.8524    4.7966 H   0  0  0  0  0  0  0  0  0  0  0  0
    9.9249   -6.0687    6.6180 H   0  0  0  0  0  0  0  0  0  0  0  0
    8.9410   -6.0586    2.8889 H   0  0  0  0  0  0  0  0  0  0  0  0
   12.6874   -2.2435    7.4585 H   0  0  0  0  0  0  0  0  0  0  0  0
   12.7792    0.5046    7.2677 H   0  0  0  0  0  0  0  0  0  0  0  0
    6.4569    0.8394    8.5084 H   0  0  0  0  0  0  0  0  0  0  0  0
    8.9418    3.7713   10.8915 H   0  0  0  0  0  0  0  0  0  0  0  0
   10.6213    3.5074   10.4108 H   0  0  0  0  0  0  0  0  0  0  0  0
    5.0960   -0.4467    5.1092 H   0  0  0  0  0  0  0  0  0  0  0  0
    2.0464   -5.7904    6.0443 H   0  0  0  0  0  0  0  0  0  0  0  0
    5.8785   -4.5625    0.3640 H   0  0  0  0  0  0  0  0  0  0  0  0
    6.8990   -3.5537    1.3806 H   0  0  0  0  0  0  0  0  0  0  0  0
    6.3307   -2.9187   -0.1560 H   0  0  0  0  0  0  0  0  0  0  0  0
    4.6130   -1.1189    2.6849 H   0  0  0  0  0  0  0  0  0  0  0  0
    5.4022   -0.8377    1.1276 H   0  0  0  0  0  0  0  0  0  0  0  0
    6.2570   -1.6055    2.4204 H   0  0  0  0  0  0  0  0  0  0  0  0
    2.4175   -4.1463   -0.3373 H   0  0  0  0  0  0  0  0  0  0  0  0
  1  2  2  0  0  0  0
  2  3  1  0  0  0  0
  2 10  1  0  0  0  0
  3  4  1  0  0  0  0
  3 57  1  0  0  0  0
  4  5  1  0  0  0  0
  4 58  1  0  0  0  0
  4 59  1  0  0  0  0
  5  6  1  0  0  0  0
  5 60  1  0  0  0  0
  5 61  1  0  0  0  0
  6  7  1  0  0  0  0
  7  8  2  0  0  0  0
  7  9  1  0  0  0  0
  9 62  1  0  0  0  0
  9 63  1  0  0  0  0
  9 64  1  0  0  0  0
 10 11  1  0  0  0  0
 10 65  1  0  0  0  0
 10 66  1  0  0  0  0
 11 12  1  0  0  0  0
 11 67  1  0  0  0  0
 11 68  1  0  0  0  0
 12 13  1  0  0  0  0
 12 69  1  0  0  0  0
 13 14  2  0  0  0  0
 13 15  1  0  0  0  0
 15 16  1  6  0  0  0
 15 17  1  0  0  0  0
 15 56  1  0  0  0  0
 17 18  1  0  0  0  0
 17 54  1  0  0  0  0
 17 55  1  0  0  0  0
 18 19  1  0  0  0  0
 18 70  1  0  0  0  0
 18 71  1  0  0  0  0
 20 19  1  6  0  0  0
 20 21  2  0  0  0  0
 20 22  1  0  0  0  0
 20 53  1  0  0  0  0
 23 25  1  1  0  0  0
 23 52  1  0  0  0  0
 23 24  2  0  0  0  0
 23 22  1  0  0  0  0
 25 26  1  0  0  0  0
 26 27  1  0  0  0  0
 26 72  1  0  0  0  0
 26 73  1  0  0  0  0
 27 28  1  6  0  0  0
 27 29  1  0  0  0  0
 27 34  1  0  0  0  0
 29 30  1  0  0  0  0
 30 32  1  0  0  0  0
 30 42  1  0  0  0  0
 30 31  1  6  0  0  0
 32 33  1  1  0  0  0
 32 34  1  0  0  0  0
 32 41  1  0  0  0  0
 34 35  1  1  0  0  0
 34 36  1  0  0  0  0
 36 37  1  0  0  0  0
 37 38  2  0  0  0  0
 37 39  1  0  0  0  0
 37 40  1  0  0  0  0
 39 74  1  0  0  0  0
 40 75  1  0  0  0  0
 41 76  1  0  0  0  0
 42 43  1  0  0  0  0
 42 46  1  0  0  0  0
 43 44  2  0  0  0  0
 43 77  1  0  0  0  0
 44 45  1  0  0  0  0
 45 46  2  0  0  0  0
 45 50  1  0  0  0  0
 46 47  1  0  0  0  0
 47 48  2  0  0  0  0
 48 49  1  0  0  0  0
 48 78  1  0  0  0  0
 49 50  2  0  0  0  0
 50 51  1  0  0  0  0
 51 79  1  0  0  0  0
 51 80  1  0  0  0  0
 52 81  1  0  0  0  0
 53 82  1  0  0  0  0
 54 83  1  0  0  0  0
 54 84  1  0  0  0  0
 54 85  1  0  0  0  0
 55 86  1  0  0  0  0
 55 87  1  0  0  0  0
 55 88  1  0  0  0  0
 56 89  1  0  0  0  0
M  END
$$$$
