ACP
 OpenBabel04121316073D

 49 51  0  0  1  0  0  0  0  0999 V2000
    4.9491    4.7513   -1.0164 O   0  0  0  0  0  0  0  0  0  0  0  0
    3.8453    3.8571   -1.1134 C   0  0  2  0  0  0  0  0  0  0  0  0
    2.9320    4.4604   -1.0508 H   0  0  0  0  0  0  0  0  0  0  0  0
    3.9033    2.8131   -0.0186 C   0  0  1  0  0  0  0  0  0  0  0  0
    4.3407    3.2029    0.9082 H   0  0  0  0  0  0  0  0  0  0  0  0
    2.5537    2.1857    0.2223 C   0  0  0  0  0  0  0  0  0  0  0  0
    1.5899    3.0249    0.7752 O   0  0  0  0  0  0  0  0  0  0  0  0
    0.3044    2.2467    1.4465 P   0  0  2  0  0  0  0  0  0  0  0  0
    1.0703    1.8291    2.7207 O   0  0  0  0  0  0  0  0  0  0  0  0
    0.4979    0.6925    0.9273 O   0  0  0  0  0  0  0  0  0  0  0  0
    0.9261   -0.4128    2.1765 P   0  0  2  0  0  0  0  0  0  0  0  0
    0.0917    0.2763    3.2783 O   0  0  0  0  0  0  0  0  0  0  0  0
    2.4657    0.1433    2.9947 C   0  0  0  0  0  0  0  0  0  0  0  0
    2.0467    1.0985    4.4983 P   0  0  0  0  0  0  0  0  0  0  0  0
    3.1423    2.1407    4.2497 O   0  0  0  0  0  0  0  0  0  0  0  0
    0.4675    1.5895    4.7012 O   0  0  0  0  0  0  0  0  0  0  0  0
    1.6506    2.0015    5.9198 O   0  0  0  0  0  0  0  0  0  0  0  0
    1.8608   -1.1847    0.9423 O   0  0  0  0  0  0  0  0  0  0  0  0
   -0.5537    2.7145    0.0190 O   0  0  0  0  0  0  0  0  0  0  0  0
    4.7448    1.7467   -0.5348 O   0  0  0  0  0  0  0  0  0  0  0  0
    4.4375    1.6226   -1.9468 C   0  0  2  0  0  0  0  0  0  0  0  0
    5.3812    1.3985   -2.4553 H   0  0  0  0  0  0  0  0  0  0  0  0
    3.8687    2.9953   -2.3755 C   0  0  2  0  0  0  0  0  0  0  0  0
    2.8391    2.9706   -2.7116 H   0  0  0  0  0  0  0  0  0  0  0  0
    4.6415    3.5498   -3.4357 O   0  0  0  0  0  0  0  0  0  0  0  0
    3.5996    0.4430   -2.1642 N   0  0  0  0  0  0  0  0  0  0  0  0
    3.8658   -0.8180   -1.6789 C   0  0  0  0  0  0  0  0  0  0  0  0
    2.9268   -1.6877   -1.9878 N   0  0  0  0  0  0  0  0  0  0  0  0
    1.9911   -0.9550   -2.6958 C   0  0  0  0  0  0  0  0  0  0  0  0
    2.4141    0.3456   -2.8532 C   0  0  0  0  0  0  0  0  0  0  0  0
    1.7564    1.3213   -3.5115 N   0  0  0  0  0  0  0  0  0  0  0  0
    0.5724    0.9048   -3.9796 C   0  0  0  0  0  0  0  0  0  0  0  0
    0.0386   -0.3246   -3.8997 N   0  0  0  0  0  0  0  0  0  0  0  0
    0.7427   -1.2899   -3.2592 C   0  0  0  0  0  0  0  0  0  0  0  0
    0.1850   -2.5421   -3.1767 N   0  0  0  0  0  0  0  0  0  0  0  0
    5.7523    4.2569   -1.2465 H   0  0  0  0  0  0  0  0  0  0  0  0
    2.7476    1.3466    0.8632 H   0  0  0  0  0  0  0  0  0  0  0  0
    2.1104    1.7569   -0.6693 H   0  0  0  0  0  0  0  0  0  0  0  0
    3.2573    0.6031    2.4090 H   0  0  0  0  0  0  0  0  0  0  0  0
    2.9365   -0.7700    3.3816 H   0  0  0  0  0  0  0  0  0  0  0  0
    0.0995    1.6102    3.8089 H   0  0  0  0  0  0  0  0  0  0  0  0
    2.4743    2.1541    6.4089 H   0  0  0  0  0  0  0  0  0  0  0  0
    2.4826   -1.8696    1.2536 H   0  0  0  0  0  0  0  0  0  0  0  0
   -1.4198    2.2689   -0.0063 H   0  0  0  0  0  0  0  0  0  0  0  0
    4.4527    3.0061   -4.2231 H   0  0  0  0  0  0  0  0  0  0  0  0
    4.7525   -1.0377   -1.0937 H   0  0  0  0  0  0  0  0  0  0  0  0
   -0.0293    1.6607   -4.4824 H   0  0  0  0  0  0  0  0  0  0  0  0
   -0.6501   -2.7176   -3.7137 H   0  0  0  0  0  0  0  0  0  0  0  0
    0.7471   -3.2907   -2.7952 H   0  0  0  0  0  0  0  0  0  0  0  0
  1 36  1  0  0  0  0
  2  4  1  0  0  0  0
  2 23  1  0  0  0  0
  2  3  1  1  0  0  0
  2  1  1  0  0  0  0
  4  5  1  1  0  0  0
  4  6  1  0  0  0  0
  4 20  1  0  0  0  0
  6  7  1  0  0  0  0
  6 37  1  0  0  0  0
  6 38  1  0  0  0  0
  8 10  1  6  0  0  0
  8 19  1  0  0  0  0
  8  9  2  0  0  0  0
  8  7  1  0  0  0  0
 11 13  1  1  0  0  0
 11 18  1  0  0  0  0
 11 12  2  0  0  0  0
 11 10  1  0  0  0  0
 13 14  1  0  0  0  0
 13 39  1  0  0  0  0
 13 40  1  0  0  0  0
 14 15  2  0  0  0  0
 14 16  1  0  0  0  0
 14 17  1  0  0  0  0
 16 41  1  0  0  0  0
 17 42  1  0  0  0  0
 18 43  1  0  0  0  0
 19 44  1  0  0  0  0
 20 21  1  0  0  0  0
 21 23  1  0  0  0  0
 21 26  1  0  0  0  0
 21 22  1  6  0  0  0
 23 24  1  6  0  0  0
 23 25  1  0  0  0  0
 25 45  1  0  0  0  0
 26 27  1  0  0  0  0
 26 30  1  0  0  0  0
 27 28  2  0  0  0  0
 27 46  1  0  0  0  0
 28 29  1  0  0  0  0
 29 30  2  0  0  0  0
 29 34  1  0  0  0  0
 30 31  1  0  0  0  0
 31 32  2  0  0  0  0
 32 33  1  0  0  0  0
 32 47  1  0  0  0  0
 33 34  2  0  0  0  0
 34 35  1  0  0  0  0
 35 48  1  0  0  0  0
 35 49  1  0  0  0  0
M  END
$$$$
