ACV
 OpenBabel04121316073D

 49 48  0  0  1  0  0  0  0  0999 V2000
    0.8903    0.3337   -0.1254 S   0  0  0  0  0  0  0  0  0  0  0  0
    2.7032    0.0864   -0.1112 C   0  0  0  0  0  0  0  0  0  0  0  0
    3.2436   -0.3041    1.2686 C   0  0  1  0  0  0  0  0  0  0  0  0
    2.8758    0.3747    2.0496 H   0  0  0  0  0  0  0  0  0  0  0  0
    2.8112   -1.7492    1.6046 C   0  0  0  0  0  0  0  0  0  0  0  0
    3.5896   -2.7046    1.6591 O   0  0  0  0  0  0  0  0  0  0  0  0
    1.4812   -1.9252    1.8903 N   0  0  0  0  0  0  0  0  0  0  0  0
    0.9377   -3.2352    2.2454 C   0  0  1  0  0  0  0  0  0  0  0  0
    1.3484   -3.9789    1.5493 H   0  0  0  0  0  0  0  0  0  0  0  0
    1.4138   -3.5737    3.6859 C   0  0  0  0  0  0  0  0  0  0  0  0
    0.6649   -3.7077    4.6515 O   0  0  0  0  0  0  0  0  0  0  0  0
    2.7480   -3.7303    3.8324 O   0  0  0  0  0  0  0  0  0  0  0  0
   -0.6111   -3.2500    2.1517 C   0  0  0  0  0  0  0  0  0  0  0  0
   -1.1326   -2.8955    0.7523 C   0  0  0  0  0  0  0  0  0  0  0  0
   -1.1747   -4.6306    2.5120 C   0  0  0  0  0  0  0  0  0  0  0  0
    4.7076   -0.2453    1.3153 N   0  0  0  0  0  0  0  0  0  0  0  0
    5.3438   -0.5050    2.5072 C   0  0  0  0  0  0  0  0  0  0  0  0
    4.7308   -0.7098    3.5512 O   0  0  0  0  0  0  0  0  0  0  0  0
    6.8549   -0.5359    2.4161 C   0  0  0  0  0  0  0  0  0  0  0  0
    7.3932   -0.9224    3.7817 C   0  0  0  0  0  0  0  0  0  0  0  0
    8.9081   -0.9760    3.8678 C   0  0  0  0  0  0  0  0  0  0  0  0
    9.3873   -1.3360    5.2838 C   0  0  1  0  0  0  0  0  0  0  0  0
    9.0098   -0.6199    6.0228 H   0  0  0  0  0  0  0  0  0  0  0  0
    8.9705   -2.7653    5.7309 C   0  0  0  0  0  0  0  0  0  0  0  0
    9.7617   -3.6968    5.8730 O   0  0  0  0  0  0  0  0  0  0  0  0
    7.6535   -2.9549    5.9635 O   0  0  0  0  0  0  0  0  0  0  0  0
   10.8648   -1.2394    5.2992 N   0  0  0  0  0  0  0  0  0  0  0  0
    0.7006    0.3427   -1.4529 H   0  0  0  0  0  0  0  0  0  0  0  0
    3.1451    1.0319   -0.4355 H   0  0  0  0  0  0  0  0  0  0  0  0
    2.9768   -0.6786   -0.8485 H   0  0  0  0  0  0  0  0  0  0  0  0
    0.8357   -1.1764    1.6515 H   0  0  0  0  0  0  0  0  0  0  0  0
    3.2672   -3.4828    3.0288 H   0  0  0  0  0  0  0  0  0  0  0  0
   -1.0117   -2.5074    2.8552 H   0  0  0  0  0  0  0  0  0  0  0  0
   -0.7757   -3.6083    0.0017 H   0  0  0  0  0  0  0  0  0  0  0  0
   -0.8307   -1.8967    0.4403 H   0  0  0  0  0  0  0  0  0  0  0  0
   -2.2287   -2.9067    0.7366 H   0  0  0  0  0  0  0  0  0  0  0  0
   -0.8145   -5.3895    1.8101 H   0  0  0  0  0  0  0  0  0  0  0  0
   -2.2684   -4.6192    2.4844 H   0  0  0  0  0  0  0  0  0  0  0  0
   -0.8939   -4.9554    3.5150 H   0  0  0  0  0  0  0  0  0  0  0  0
    5.2527   -0.1740    0.4665 H   0  0  0  0  0  0  0  0  0  0  0  0
    7.2205    0.4468    2.1094 H   0  0  0  0  0  0  0  0  0  0  0  0
    7.1619   -1.2878    1.6796 H   0  0  0  0  0  0  0  0  0  0  0  0
    6.9845   -1.9169    3.9743 H   0  0  0  0  0  0  0  0  0  0  0  0
    7.0081   -0.2409    4.5524 H   0  0  0  0  0  0  0  0  0  0  0  0
    9.3072    0.0063    3.5793 H   0  0  0  0  0  0  0  0  0  0  0  0
    9.2854   -1.7046    3.1403 H   0  0  0  0  0  0  0  0  0  0  0  0
    7.0544   -2.1905    5.8659 H   0  0  0  0  0  0  0  0  0  0  0  0
   11.1886   -0.3510    4.9288 H   0  0  0  0  0  0  0  0  0  0  0  0
   11.2415   -1.9772    4.6977 H   0  0  0  0  0  0  0  0  0  0  0  0
  1  2  1  0  0  0  0
  1 28  1  0  0  0  0
  2  3  1  0  0  0  0
  2 29  1  0  0  0  0
  2 30  1  0  0  0  0
  3  4  1  1  0  0  0
  3  5  1  0  0  0  0
  3 16  1  0  0  0  0
  5  6  2  0  0  0  0
  5  7  1  0  0  0  0
  7  8  1  0  0  0  0
  7 31  1  0  0  0  0
  8  9  1  6  0  0  0
  8 10  1  0  0  0  0
  8 13  1  0  0  0  0
 10 11  2  0  0  0  0
 10 12  1  0  0  0  0
 12 32  1  0  0  0  0
 13 14  1  0  0  0  0
 13 15  1  0  0  0  0
 13 33  1  0  0  0  0
 14 34  1  0  0  0  0
 14 35  1  0  0  0  0
 14 36  1  0  0  0  0
 15 37  1  0  0  0  0
 15 38  1  0  0  0  0
 15 39  1  0  0  0  0
 16 17  1  0  0  0  0
 16 40  1  0  0  0  0
 17 18  2  0  0  0  0
 17 19  1  0  0  0  0
 19 20  1  0  0  0  0
 19 41  1  0  0  0  0
 19 42  1  0  0  0  0
 20 21  1  0  0  0  0
 20 43  1  0  0  0  0
 20 44  1  0  0  0  0
 21 22  1  0  0  0  0
 21 45  1  0  0  0  0
 21 46  1  0  0  0  0
 22 23  1  1  0  0  0
 22 24  1  0  0  0  0
 22 27  1  0  0  0  0
 24 25  2  0  0  0  0
 24 26  1  0  0  0  0
 26 47  1  0  0  0  0
 27 48  1  0  0  0  0
 27 49  1  0  0  0  0
M  END
$$$$
