AD9
 OpenBabel04121316073D

 47 49  0  0  1  0  0  0  0  0999 V2000
   -2.8273    7.9287    1.7412 O   0  0  0  0  0  0  0  0  0  0  0  0
   -1.5321    7.6383    2.2458 C   0  0  2  0  0  0  0  0  0  0  0  0
   -0.9424    7.3432    1.4032 H   0  0  0  0  0  0  0  0  0  0  0  0
   -1.5518    6.5225    3.3193 C   0  0  1  0  0  0  0  0  0  0  0  0
   -2.2439    5.7358    3.1024 H   0  0  0  0  0  0  0  0  0  0  0  0
   -0.1963    5.8436    3.4297 C   0  0  0  0  0  0  0  0  0  0  0  0
    0.0800    5.1402    2.2274 O   0  0  0  0  0  0  0  0  0  0  0  0
    1.6227    4.3675    2.3530 P   0  0  1  0  0  0  0  0  0  0  0  0
    1.4070    4.1834    3.8710 O   0  0  0  0  0  0  0  0  0  0  0  0
    1.0987    3.1421    1.2500 O   0  0  0  0  0  0  0  0  0  0  0  0
   -0.4992    3.5067    0.6963 P   0  0  2  0  0  0  0  0  0  0  0  0
   -1.0379    3.3264    2.1323 O   0  0  0  0  0  0  0  0  0  0  0  0
   -1.5358    2.2349    0.1478 O   0  0  0  0  0  0  0  0  0  0  0  0
   -2.6935    1.4572    1.8363 V   0  0  0  0  0  0  0  0  0  0  0  0
   -1.4693    0.7599    3.2031 O   0  0  0  0  0  0  0  0  0  0  0  0
   -3.9047    3.0674    2.6943 O   0  0  0  0  0  0  0  0  0  0  0  0
   -4.0057   -0.1528    1.1419 O   0  0  0  0  0  0  0  0  0  0  0  0
    0.1042    3.7087   -0.9124 O   0  0  0  0  0  0  0  0  0  0  0  0
    3.1655    3.5948    2.4785 O   0  0  0  0  0  0  0  0  0  0  0  0
   -1.8936    7.3045    4.6156 O   0  0  0  0  0  0  0  0  0  0  0  0
   -1.1242    8.6342    4.4701 C   0  0  2  0  0  0  0  0  0  0  0  0
   -1.7010    9.4405    4.8727 H   0  0  0  0  0  0  0  0  0  0  0  0
   -0.8945    8.8460    2.9633 C   0  0  2  0  0  0  0  0  0  0  0  0
    0.1490    8.9210    2.7389 H   0  0  0  0  0  0  0  0  0  0  0  0
   -1.5135   10.0512    2.5380 O   0  0  0  0  0  0  0  0  0  0  0  0
    0.1202    8.5928    5.1826 N   0  0  0  0  0  0  0  0  0  0  0  0
    0.6215    9.5660    5.9155 C   0  0  0  0  0  0  0  0  0  0  0  0
    1.7857    9.2038    6.4341 N   0  0  0  0  0  0  0  0  0  0  0  0
    2.0611    7.9623    6.0373 C   0  0  0  0  0  0  0  0  0  0  0  0
    0.9723    7.5556    5.2163 C   0  0  0  0  0  0  0  0  0  0  0  0
    0.9926    6.2779    4.6535 N   0  0  0  0  0  0  0  0  0  0  0  0
    2.0397    5.4569    4.8916 C   0  0  0  0  0  0  0  0  0  0  0  0
    3.0799    5.8368    5.6795 N   0  0  0  0  0  0  0  0  0  0  0  0
    3.1229    7.0589    6.2532 C   0  0  0  0  0  0  0  0  0  0  0  0
    4.2081    7.4247    7.0523 N   0  0  0  0  0  0  0  0  0  0  0  0
   -3.4046    8.2030    2.4709 H   0  0  0  0  0  0  0  0  0  0  0  0
   -0.2071    5.1570    4.2502 H   0  0  0  0  0  0  0  0  0  0  0  0
    0.5604    6.5823    3.5927 H   0  0  0  0  0  0  0  0  0  0  0  0
   -3.3235    3.7805    3.0018 H   0  0  0  0  0  0  0  0  0  0  0  0
   -3.4692   -0.8660    0.7619 H   0  0  0  0  0  0  0  0  0  0  0  0
   -0.6277    3.9392   -1.5058 H   0  0  0  0  0  0  0  0  0  0  0  0
    3.7308    4.0982    3.0851 H   0  0  0  0  0  0  0  0  0  0  0  0
   -1.1052   10.8031    2.9950 H   0  0  0  0  0  0  0  0  0  0  0  0
    0.1706   10.4822    6.0647 H   0  0  0  0  0  0  0  0  0  0  0  0
    2.0495    4.5176    4.4643 H   0  0  0  0  0  0  0  0  0  0  0  0
    4.9466    6.7906    7.1998 H   0  0  0  0  0  0  0  0  0  0  0  0
    4.2347    8.3166    7.4682 H   0  0  0  0  0  0  0  0  0  0  0  0
  1 36  1  0  0  0  0
  2  4  1  0  0  0  0
  2 23  1  0  0  0  0
  2  3  1  6  0  0  0
  2  1  1  0  0  0  0
  4  5  1  6  0  0  0
  4  6  1  0  0  0  0
  4 20  1  0  0  0  0
  6  7  1  0  0  0  0
  6 37  1  0  0  0  0
  6 38  1  0  0  0  0
  8  7  1  6  0  0  0
  8  9  2  0  0  0  0
  8 10  1  0  0  0  0
  8 19  1  0  0  0  0
 11 13  1  6  0  0  0
 11 18  1  0  0  0  0
 11 12  2  0  0  0  0
 11 10  1  0  0  0  0
 13 14  1  0  0  0  0
 14 15  2  0  0  0  0
 14 16  1  0  0  0  0
 14 17  1  0  0  0  0
 16 39  1  0  0  0  0
 17 40  1  0  0  0  0
 18 41  1  0  0  0  0
 19 42  1  0  0  0  0
 20 21  1  0  0  0  0
 21 23  1  0  0  0  0
 21 26  1  0  0  0  0
 21 22  1  1  0  0  0
 23 24  1  6  0  0  0
 23 25  1  0  0  0  0
 25 43  1  0  0  0  0
 26 27  1  0  0  0  0
 26 30  1  0  0  0  0
 27 28  2  0  0  0  0
 27 44  1  0  0  0  0
 28 29  1  0  0  0  0
 29 30  2  0  0  0  0
 29 34  1  0  0  0  0
 30 31  1  0  0  0  0
 31 32  2  0  0  0  0
 32 33  1  0  0  0  0
 32 45  1  0  0  0  0
 33 34  2  0  0  0  0
 34 35  1  0  0  0  0
 35 46  1  0  0  0  0
 35 47  1  0  0  0  0
M  END
$$$$
