ADA
 OpenBabel04121316073D

 23 23  0  0  1  0  0  0  0  0999 V2000
    1.0471    0.0155   -0.0973 O   0  0  0  0  0  0  0  0  0  0  0  0
    2.4751    0.0116   -0.1064 C   0  0  1  0  0  0  0  0  0  0  0  0
    2.8122    0.2366    0.9122 H   0  0  0  0  0  0  0  0  0  0  0  0
    2.9120   -1.2888   -0.4687 O   0  0  0  0  0  0  0  0  0  0  0  0
    2.5310   -1.6791   -1.7946 C   0  0  2  0  0  0  0  0  0  0  0  0
    1.4348   -1.7255   -1.8344 H   0  0  0  0  0  0  0  0  0  0  0  0
    3.0373   -3.0907   -2.1050 C   0  0  0  0  0  0  0  0  0  0  0  0
    3.6893   -3.7823   -1.3325 O   0  0  0  0  0  0  0  0  0  0  0  0
    2.7302   -3.5478   -3.3434 O   0  0  0  0  0  0  0  0  0  0  0  0
    3.0729   -0.6886   -2.8357 C   0  0  1  0  0  0  0  0  0  0  0  0
    2.7484   -0.9518   -3.8470 H   0  0  0  0  0  0  0  0  0  0  0  0
    2.5639    0.7237   -2.4983 C   0  0  1  0  0  0  0  0  0  0  0  0
    1.4699    0.7500   -2.5737 H   0  0  0  0  0  0  0  0  0  0  0  0
    2.9892    1.1008   -1.0700 C   0  0  1  0  0  0  0  0  0  0  0  0
    4.0816    1.1727   -1.0147 H   0  0  0  0  0  0  0  0  0  0  0  0
    2.4597    2.3822   -0.6953 O   0  0  0  0  0  0  0  0  0  0  0  0
    3.0409    1.6854   -3.4448 O   0  0  0  0  0  0  0  0  0  0  0  0
    4.5057   -0.6737   -2.8644 O   0  0  0  0  0  0  0  0  0  0  0  0
    0.8094   -0.5658    0.6475 H   0  0  0  0  0  0  0  0  0  0  0  0
    2.1893   -2.9802   -3.9224 H   0  0  0  0  0  0  0  0  0  0  0  0
    1.4906    2.3089   -0.7534 H   0  0  0  0  0  0  0  0  0  0  0  0
    2.8283    1.3700   -4.3375 H   0  0  0  0  0  0  0  0  0  0  0  0
    4.8545   -1.5791   -2.9596 H   0  0  0  0  0  0  0  0  0  0  0  0
  1  2  1  0  0  0  0
  1 19  1  0  0  0  0
  2  3  1  1  0  0  0
  2  4  1  0  0  0  0
  2 14  1  0  0  0  0
  4  5  1  0  0  0  0
  5  6  1  6  0  0  0
  5  7  1  0  0  0  0
  5 10  1  0  0  0  0
  7  8  2  0  0  0  0
  7  9  1  0  0  0  0
  9 20  1  0  0  0  0
 10 11  1  6  0  0  0
 10 12  1  0  0  0  0
 10 18  1  0  0  0  0
 12 13  1  6  0  0  0
 12 14  1  0  0  0  0
 12 17  1  0  0  0  0
 14 16  1  0  0  0  0
 14 15  1  1  0  0  0
 16 21  1  0  0  0  0
 17 22  1  0  0  0  0
 18 23  1  0  0  0  0
M  END
$$$$
