ADK
 OpenBabel04121316073D

 18 19  0  0  0  0  0  0  0  0999 V2000
    1.0252    0.0133   -0.0831 N   0  0  0  0  0  0  0  0  0  0  0  0
    2.3913    0.0055   -0.0887 C   0  0  0  0  0  0  0  0  0  0  0  0
    3.0512    1.2312   -0.0921 N   0  0  0  0  0  0  0  0  0  0  0  0
    4.3515    1.2159   -0.0934 C   0  0  0  0  0  0  0  0  0  0  0  0
    5.1490    0.0942   -0.0917 N   0  0  0  0  0  0  0  0  0  0  0  0
    4.5258   -1.1238   -0.0910 C   0  0  0  0  0  0  0  0  0  0  0  0
    3.0602   -1.1692   -0.0898 C   0  0  0  0  0  0  0  0  0  0  0  0
    2.6732   -2.4811   -0.0886 N   0  0  0  0  0  0  0  0  0  0  0  0
    3.8130   -3.1125   -0.0896 C   0  0  0  0  0  0  0  0  0  0  0  0
    4.9721   -2.3449   -0.0907 N   0  0  0  0  0  0  0  0  0  0  0  0
    6.5935    0.1717   -0.0870 C   0  0  0  0  0  0  0  0  0  0  0  0
    0.5615    0.9097   -0.0903 H   0  0  0  0  0  0  0  0  0  0  0  0
    0.5242   -0.8654   -0.0901 H   0  0  0  0  0  0  0  0  0  0  0  0
    4.9073    2.1681   -0.0967 H   0  0  0  0  0  0  0  0  0  0  0  0
    3.8802   -4.2124   -0.0898 H   0  0  0  0  0  0  0  0  0  0  0  0
    6.9467    1.2084   -0.0873 H   0  0  0  0  0  0  0  0  0  0  0  0
    7.0062   -0.3200   -0.9742 H   0  0  0  0  0  0  0  0  0  0  0  0
    7.0001   -0.3172    0.8046 H   0  0  0  0  0  0  0  0  0  0  0  0
  1  2  1  0  0  0  0
  1 12  1  0  0  0  0
  1 13  1  0  0  0  0
  2  3  1  0  0  0  0
  2  7  2  0  0  0  0
  3  4  2  0  0  0  0
  4  5  1  0  0  0  0
  4 14  1  0  0  0  0
  5  6  1  0  0  0  0
  5 11  1  0  0  0  0
  6  7  1  0  0  0  0
  6 10  2  0  0  0  0
  7  8  1  0  0  0  0
  8  9  2  0  0  0  0
  9 10  1  0  0  0  0
  9 15  1  0  0  0  0
 11 16  1  0  0  0  0
 11 17  1  0  0  0  0
 11 18  1  0  0  0  0
M  END
$$$$
