ADL
 OpenBabel04121316073D

 33 35  0  0  0  0  0  0  0  0999 V2000
    0.8741    0.1197    0.1438 O   0  0  0  0  0  0  0  0  0  0  0  0
    2.2121    0.0806   -0.0127 C   0  0  0  0  0  0  0  0  0  0  0  0
    2.6764   -0.3094   -1.0769 O   0  0  0  0  0  0  0  0  0  0  0  0
    2.9440    0.6131    1.1994 C   0  0  0  0  0  0  0  0  0  0  0  0
    4.4337    0.5233    1.0271 C   0  0  0  0  0  0  0  0  0  0  0  0
    5.2356    1.6595    0.8749 C   0  0  0  0  0  0  0  0  0  0  0  0
    6.6044    1.5306    0.6277 C   0  0  0  0  0  0  0  0  0  0  0  0
    7.1895    0.2603    0.5213 C   0  0  0  0  0  0  0  0  0  0  0  0
    6.3751   -0.8676    0.6726 C   0  0  0  0  0  0  0  0  0  0  0  0
    5.0129   -0.7368    0.9390 C   0  0  0  0  0  0  0  0  0  0  0  0
    4.1783   -1.8165    1.1057 O   0  0  0  0  0  0  0  0  0  0  0  0
    6.9274   -2.2167    0.5497 C   0  0  0  0  0  0  0  0  0  0  0  0
    6.1527   -3.1652    0.6689 O   0  0  0  0  0  0  0  0  0  0  0  0
    8.3611   -2.3963    0.2938 C   0  0  0  0  0  0  0  0  0  0  0  0
    9.1912   -1.2707    0.1581 C   0  0  0  0  0  0  0  0  0  0  0  0
    8.6670    0.1390    0.2707 C   0  0  0  0  0  0  0  0  0  0  0  0
   10.5569   -1.4751   -0.0767 C   0  0  0  0  0  0  0  0  0  0  0  0
   11.0699   -2.7713   -0.1706 C   0  0  0  0  0  0  0  0  0  0  0  0
   10.2340   -3.8799   -0.0334 C   0  0  0  0  0  0  0  0  0  0  0  0
    8.8810   -3.6923    0.1984 C   0  0  0  0  0  0  0  0  0  0  0  0
    8.0621   -4.7751    0.3388 O   0  0  0  0  0  0  0  0  0  0  0  0
    0.5571   -0.2395   -0.7116 H   0  0  0  0  0  0  0  0  0  0  0  0
    2.6574    0.0345    2.0869 H   0  0  0  0  0  0  0  0  0  0  0  0
    2.6492    1.6533    1.3600 H   0  0  0  0  0  0  0  0  0  0  0  0
    4.7943    2.6512    0.9340 H   0  0  0  0  0  0  0  0  0  0  0  0
    7.2081    2.4290    0.5102 H   0  0  0  0  0  0  0  0  0  0  0  0
    4.7055   -2.6313    0.9220 H   0  0  0  0  0  0  0  0  0  0  0  0
    8.9087    0.6785   -0.6548 H   0  0  0  0  0  0  0  0  0  0  0  0
    9.1876    0.6317    1.1027 H   0  0  0  0  0  0  0  0  0  0  0  0
   11.2298   -0.6259   -0.1843 H   0  0  0  0  0  0  0  0  0  0  0  0
   12.1309   -2.9197   -0.3504 H   0  0  0  0  0  0  0  0  0  0  0  0
   10.6441   -4.8808   -0.1061 H   0  0  0  0  0  0  0  0  0  0  0  0
    8.5395   -5.6096    0.2474 H   0  0  0  0  0  0  0  0  0  0  0  0
  1  2  1  0  0  0  0
  1 22  1  0  0  0  0
  2  3  2  0  0  0  0
  2  4  1  0  0  0  0
  4  5  1  0  0  0  0
  4 23  1  0  0  0  0
  4 24  1  0  0  0  0
  5  6  2  0  0  0  0
  5 10  1  0  0  0  0
  6  7  1  0  0  0  0
  6 25  1  0  0  0  0
  7  8  2  0  0  0  0
  7 26  1  0  0  0  0
  8  9  1  0  0  0  0
  8 16  1  0  0  0  0
  9 10  2  0  0  0  0
  9 12  1  0  0  0  0
 10 11  1  0  0  0  0
 11 27  1  0  0  0  0
 12 13  2  0  0  0  0
 12 14  1  0  0  0  0
 14 15  2  0  0  0  0
 14 20  1  0  0  0  0
 15 16  1  0  0  0  0
 15 17  1  0  0  0  0
 16 28  1  0  0  0  0
 16 29  1  0  0  0  0
 17 18  2  0  0  0  0
 17 30  1  0  0  0  0
 18 19  1  0  0  0  0
 18 31  1  0  0  0  0
 19 20  2  0  0  0  0
 19 32  1  0  0  0  0
 20 21  1  0  0  0  0
 21 33  1  0  0  0  0
M  END
$$$$
