ADZ
 OpenBabel04121316073D

 18 19  0  0  0  0  0  0  0  0999 V2000
    0.9746    0.0982   -0.0312 N   0  0  0  0  0  0  0  0  0  0  0  0
    2.3509    0.0651   -0.0347 C   0  0  0  0  0  0  0  0  0  0  0  0
    3.0341    1.2316   -0.0374 N   0  0  0  0  0  0  0  0  0  0  0  0
    4.3860    1.1795   -0.0403 C   0  0  0  0  0  0  0  0  0  0  0  0
    5.1895    0.0922   -0.0402 N   0  0  0  0  0  0  0  0  0  0  0  0
    4.4598   -1.0356   -0.0378 C   0  0  0  0  0  0  0  0  0  0  0  0
    3.0762   -1.1372   -0.0354 C   0  0  0  0  0  0  0  0  0  0  0  0
    2.6764   -2.4589   -0.0343 N   0  0  0  0  0  0  0  0  0  0  0  0
    3.7985   -3.1464   -0.0361 C   0  0  0  0  0  0  0  0  0  0  0  0
    4.8979   -2.3315   -0.0379 N   0  0  0  0  0  0  0  0  0  0  0  0
    6.2676   -2.7722   -0.0408 C   0  0  0  0  0  0  0  0  0  0  0  0
    0.5099    0.9906   -0.0352 H   0  0  0  0  0  0  0  0  0  0  0  0
    0.4712   -0.7775   -0.0351 H   0  0  0  0  0  0  0  0  0  0  0  0
    4.8893    2.1426   -0.0436 H   0  0  0  0  0  0  0  0  0  0  0  0
    3.8699   -4.2261   -0.0362 H   0  0  0  0  0  0  0  0  0  0  0  0
    6.2947   -3.8660   -0.0416 H   0  0  0  0  0  0  0  0  0  0  0  0
    6.7614   -2.3960    0.8582 H   0  0  0  0  0  0  0  0  0  0  0  0
    6.7579   -2.3948   -0.9413 H   0  0  0  0  0  0  0  0  0  0  0  0
  1  2  1  0  0  0  0
  1 12  1  0  0  0  0
  1 13  1  0  0  0  0
  2  3  2  0  0  0  0
  2  7  1  0  0  0  0
  3  4  1  0  0  0  0
  4  5  2  0  0  0  0
  4 14  1  0  0  0  0
  5  6  1  0  0  0  0
  6  7  2  0  0  0  0
  6 10  1  0  0  0  0
  7  8  1  0  0  0  0
  8  9  2  0  0  0  0
  9 10  1  0  0  0  0
  9 15  1  0  0  0  0
 10 11  1  0  0  0  0
 11 16  1  0  0  0  0
 11 17  1  0  0  0  0
 11 18  1  0  0  0  0
M  END
$$$$
