AF1
 OpenBabel04121316073D

 45 46  0  0  1  0  0  0  0  0999 V2000
    5.0870    4.8349    2.3903 O   0  0  0  0  0  0  0  0  0  0  0  0
    4.2041    3.8066    2.7966 C   0  0  0  0  0  0  0  0  0  0  0  0
    4.5995    3.4138    4.1816 C   0  0  0  0  0  0  0  0  0  0  0  0
    5.3273    2.3101    4.3780 C   0  0  0  0  0  0  0  0  0  0  0  0
    5.7986    1.8473    5.7061 C   0  0  2  0  0  0  0  0  0  0  0  0
    6.8825    1.8865    5.6826 H   0  0  0  0  0  0  0  0  0  0  0  0
    5.3070    0.4903    5.9604 N   0  0  0  0  0  0  0  0  0  0  0  0
    5.7443   -0.4649    4.9422 C   0  0  2  0  0  0  0  0  0  0  0  0
    5.3775   -0.1657    3.9531 H   0  0  0  0  0  0  0  0  0  0  0  0
    5.1088   -1.8490    5.1902 C   0  0  1  0  0  0  0  0  0  0  0  0
    5.4057   -2.2453    6.1694 H   0  0  0  0  0  0  0  0  0  0  0  0
    3.5750   -1.7705    5.1356 C   0  0  0  0  0  0  0  0  0  0  0  0
    5.5426   -2.7494    4.1605 O   0  0  0  0  0  0  0  0  0  0  0  0
    6.9587   -2.9021    4.1369 C   0  0  2  0  0  0  0  0  0  0  0  0
    7.3035   -3.3158    5.0908 H   0  0  0  0  0  0  0  0  0  0  0  0
    7.6781   -1.5878    3.8336 C   0  0  1  0  0  0  0  0  0  0  0  0
    7.3974   -1.2028    2.8433 H   0  0  0  0  0  0  0  0  0  0  0  0
    7.2928   -0.5665    4.8770 C   0  0  1  0  0  0  0  0  0  0  0  0
    7.6801   -0.8394    5.8664 H   0  0  0  0  0  0  0  0  0  0  0  0
    7.9711    0.6479    4.5108 O   0  0  0  0  0  0  0  0  0  0  0  0
    9.1005   -1.7324    3.8336 O   0  0  0  0  0  0  0  0  0  0  0  0
    7.2890   -3.8327    3.1174 O   0  0  0  0  0  0  0  0  0  0  0  0
    5.5218    2.6965    6.9462 C   0  0  1  0  0  0  0  0  0  0  0  0
    6.5063    2.9409    7.3695 H   0  0  0  0  0  0  0  0  0  0  0  0
    4.7057    3.9664    6.7417 C   0  0  2  0  0  0  0  0  0  0  0  0
    3.8452    3.9274    7.4192 H   0  0  0  0  0  0  0  0  0  0  0  0
    4.1793    4.2805    5.3150 C   0  0  2  0  0  0  0  0  0  0  0  0
    4.4438    5.3129    5.0625 H   0  0  0  0  0  0  0  0  0  0  0  0
    2.7486    4.1759    5.3342 O   0  0  0  0  0  0  0  0  0  0  0  0
    5.5134    5.0632    7.2119 O   0  0  0  0  0  0  0  0  0  0  0  0
    4.9011    1.9034    7.9872 O   0  0  0  0  0  0  0  0  0  0  0  0
    4.7902    5.1304    1.5155 H   0  0  0  0  0  0  0  0  0  0  0  0
    4.2999    2.9728    2.0885 H   0  0  0  0  0  0  0  0  0  0  0  0
    3.1670    4.1517    2.7616 H   0  0  0  0  0  0  0  0  0  0  0  0
    5.6198    1.7605    3.4898 H   0  0  0  0  0  0  0  0  0  0  0  0
    4.2870    0.5475    5.9994 H   0  0  0  0  0  0  0  0  0  0  0  0
    3.1600   -1.1220    5.9151 H   0  0  0  0  0  0  0  0  0  0  0  0
    3.1291   -2.7602    5.2654 H   0  0  0  0  0  0  0  0  0  0  0  0
    3.2357   -1.3889    4.1649 H   0  0  0  0  0  0  0  0  0  0  0  0
    7.6074    0.9916    3.6803 H   0  0  0  0  0  0  0  0  0  0  0  0
    9.3204   -2.4116    3.1754 H   0  0  0  0  0  0  0  0  0  0  0  0
    6.9652   -3.4373    2.2914 H   0  0  0  0  0  0  0  0  0  0  0  0
    2.5450    3.2794    5.6527 H   0  0  0  0  0  0  0  0  0  0  0  0
    5.8872    4.7833    8.0679 H   0  0  0  0  0  0  0  0  0  0  0  0
    5.2372    0.9950    7.8236 H   0  0  0  0  0  0  0  0  0  0  0  0
  1  2  1  0  0  0  0
  1 32  1  0  0  0  0
  2  3  1  0  0  0  0
  2 33  1  0  0  0  0
  2 34  1  0  0  0  0
  3  4  2  0  0  0  0
  3 27  1  0  0  0  0
  4  5  1  0  0  0  0
  4 35  1  0  0  0  0
  5  6  1  6  0  0  0
  5  7  1  0  0  0  0
  5 23  1  0  0  0  0
  7 36  1  0  0  0  0
  8 10  1  0  0  0  0
  8 18  1  0  0  0  0
  8  9  1  6  0  0  0
  8  7  1  0  0  0  0
 10 11  1  1  0  0  0
 10 12  1  0  0  0  0
 10 13  1  0  0  0  0
 12 37  1  0  0  0  0
 12 38  1  0  0  0  0
 12 39  1  0  0  0  0
 13 14  1  0  0  0  0
 14 16  1  0  0  0  0
 14 22  1  0  0  0  0
 14 15  1  1  0  0  0
 16 17  1  6  0  0  0
 16 18  1  0  0  0  0
 16 21  1  0  0  0  0
 18 20  1  0  0  0  0
 18 19  1  1  0  0  0
 20 40  1  0  0  0  0
 21 41  1  0  0  0  0
 22 42  1  0  0  0  0
 23 24  1  1  0  0  0
 23 25  1  0  0  0  0
 23 31  1  0  0  0  0
 25 26  1  1  0  0  0
 25 27  1  0  0  0  0
 25 30  1  0  0  0  0
 27 29  1  0  0  0  0
 27 28  1  6  0  0  0
 29 43  1  0  0  0  0
 30 44  1  0  0  0  0
 31 45  1  0  0  0  0
M  END
$$$$
