AFO
 OpenBabel04121316073D

 44 44  0  0  1  0  0  0  0  0999 V2000
    1.0502    0.0564    0.0185 C   0  0  0  0  0  0  0  0  0  0  0  0
    2.5673    0.0510    0.0269 C   0  0  0  0  0  0  0  0  0  0  0  0
    3.0925   -0.7232    1.2289 C   0  0  0  0  0  0  0  0  0  0  0  0
    4.6137   -0.7323    1.2440 C   0  0  0  0  0  0  0  0  0  0  0  0
    5.1233   -1.5081    2.4514 C   0  0  0  0  0  0  0  0  0  0  0  0
    6.6408   -1.5131    2.4650 C   0  0  0  0  0  0  0  0  0  0  0  0
    7.1759   -2.2829    3.6636 C   0  0  0  0  0  0  0  0  0  0  0  0
    8.6911   -2.2633    3.6192 C   0  0  0  0  0  0  0  0  0  0  0  0
    9.2126   -3.0277    4.6949 O   0  0  0  0  0  0  0  0  0  0  0  0
   10.6381   -2.9798    4.7571 C   0  0  1  0  0  0  0  0  0  0  0  0
   10.9591   -3.9703    5.0976 H   0  0  0  0  0  0  0  0  0  0  0  0
   11.2546   -2.7185    3.4855 O   0  0  0  0  0  0  0  0  0  0  0  0
   12.5415   -2.1510    3.7587 C   0  0  1  0  0  0  0  0  0  0  0  0
   12.8194   -1.5065    2.9167 H   0  0  0  0  0  0  0  0  0  0  0  0
   12.3909   -1.3414    5.0481 C   0  0  2  0  0  0  0  0  0  0  0  0
   13.2783   -1.4024    5.6839 H   0  0  0  0  0  0  0  0  0  0  0  0
   11.1358   -1.8927    5.7198 C   0  0  2  0  0  0  0  0  0  0  0  0
   10.3733   -1.1210    5.8753 H   0  0  0  0  0  0  0  0  0  0  0  0
   11.4484   -2.4386    7.0040 O   0  0  0  0  0  0  0  0  0  0  0  0
   12.2032    0.0532    4.7561 O   0  0  0  0  0  0  0  0  0  0  0  0
   13.5589   -3.2889    3.8918 C   0  0  0  0  0  0  0  0  0  0  0  0
   14.8649   -2.7946    4.1510 O   0  0  0  0  0  0  0  0  0  0  0  0
    0.6776    0.6130   -0.8456 H   0  0  0  0  0  0  0  0  0  0  0  0
    0.6590    0.5267    0.9264 H   0  0  0  0  0  0  0  0  0  0  0  0
    0.6590   -0.9647   -0.0344 H   0  0  0  0  0  0  0  0  0  0  0  0
    2.9377    1.0823    0.0561 H   0  0  0  0  0  0  0  0  0  0  0  0
    2.9377   -0.4020   -0.9001 H   0  0  0  0  0  0  0  0  0  0  0  0
    2.7194   -1.7544    1.1996 H   0  0  0  0  0  0  0  0  0  0  0  0
    2.7189   -0.2704    2.1556 H   0  0  0  0  0  0  0  0  0  0  0  0
    4.9933    0.2966    1.2761 H   0  0  0  0  0  0  0  0  0  0  0  0
    4.9939   -1.1881    0.3213 H   0  0  0  0  0  0  0  0  0  0  0  0
    4.7493   -2.5385    2.4178 H   0  0  0  0  0  0  0  0  0  0  0  0
    4.7460   -1.0530    3.3748 H   0  0  0  0  0  0  0  0  0  0  0  0
    7.0154   -0.4821    2.4908 H   0  0  0  0  0  0  0  0  0  0  0  0
    7.0153   -1.9661    1.5380 H   0  0  0  0  0  0  0  0  0  0  0  0
    6.8137   -3.3184    3.6522 H   0  0  0  0  0  0  0  0  0  0  0  0
    6.8197   -1.8431    4.6029 H   0  0  0  0  0  0  0  0  0  0  0  0
    9.0537   -1.2304    3.6793 H   0  0  0  0  0  0  0  0  0  0  0  0
    9.0165   -2.7081    2.6715 H   0  0  0  0  0  0  0  0  0  0  0  0
   11.7846   -1.7055    7.5501 H   0  0  0  0  0  0  0  0  0  0  0  0
   11.4502    0.1432    4.1473 H   0  0  0  0  0  0  0  0  0  0  0  0
   13.5798   -3.8880    2.9743 H   0  0  0  0  0  0  0  0  0  0  0  0
   13.2829   -3.9719    4.7013 H   0  0  0  0  0  0  0  0  0  0  0  0
   15.1263   -2.2327    3.4039 H   0  0  0  0  0  0  0  0  0  0  0  0
  1  2  1  0  0  0  0
  1 23  1  0  0  0  0
  1 24  1  0  0  0  0
  1 25  1  0  0  0  0
  2  3  1  0  0  0  0
  2 26  1  0  0  0  0
  2 27  1  0  0  0  0
  3  4  1  0  0  0  0
  3 28  1  0  0  0  0
  3 29  1  0  0  0  0
  4  5  1  0  0  0  0
  4 30  1  0  0  0  0
  4 31  1  0  0  0  0
  5  6  1  0  0  0  0
  5 32  1  0  0  0  0
  5 33  1  0  0  0  0
  6  7  1  0  0  0  0
  6 34  1  0  0  0  0
  6 35  1  0  0  0  0
  7  8  1  0  0  0  0
  7 36  1  0  0  0  0
  7 37  1  0  0  0  0
  8  9  1  0  0  0  0
  8 38  1  0  0  0  0
  8 39  1  0  0  0  0
  9 10  1  0  0  0  0
 10 11  1  1  0  0  0
 10 12  1  0  0  0  0
 10 17  1  0  0  0  0
 12 13  1  0  0  0  0
 13 14  1  6  0  0  0
 13 15  1  0  0  0  0
 13 21  1  0  0  0  0
 15 17  1  0  0  0  0
 15 20  1  0  0  0  0
 15 16  1  1  0  0  0
 17 18  1  1  0  0  0
 17 19  1  0  0  0  0
 19 40  1  0  0  0  0
 20 41  1  0  0  0  0
 21 22  1  0  0  0  0
 21 42  1  0  0  0  0
 21 43  1  0  0  0  0
 22 44  1  0  0  0  0
M  END
$$$$
