AG3
 OpenBabel04121316073D

 34 33  0  0  0  0  0  0  0  0999 V2000
    0.9552   -0.1038    0.0338 N   0  0  0  0  0  0  0  0  0  0  0  0
    2.4121   -0.0927    0.0256 C   0  0  0  0  0  0  0  0  0  0  0  0
    2.9353    1.1279    0.7773 C   0  0  0  0  0  0  0  0  0  0  0  0
    4.4609    1.1279    0.7789 C   0  0  0  0  0  0  0  0  0  0  0  0
    4.9628    2.2992    1.4954 N   0  0  0  0  0  0  0  0  0  0  0  0
    6.4220    2.2948    1.4989 C   0  0  0  0  0  0  0  0  0  0  0  0
    6.9393    3.5147    2.2480 C   0  0  0  0  0  0  0  0  0  0  0  0
    8.4696    3.5292    2.2550 C   0  0  0  0  0  0  0  0  0  0  0  0
    8.9640    4.7525    3.0077 C   0  0  0  0  0  0  0  0  0  0  0  0
   10.4075    4.8212    3.0548 N   0  0  0  0  0  0  0  0  0  0  0  0
   11.0797    5.8186    3.6670 C   0  0  0  0  0  0  0  0  0  0  0  0
   10.5639    6.8188    4.2815 N   0  0  0  0  0  0  0  0  0  0  0  0
   12.4116    5.7215    3.6116 N   0  0  0  0  0  0  0  0  0  0  0  0
    0.6180   -0.8988   -0.5065 H   0  0  0  0  0  0  0  0  0  0  0  0
    0.6062    0.7314   -0.4358 H   0  0  0  0  0  0  0  0  0  0  0  0
    2.7724   -0.0838   -1.0093 H   0  0  0  0  0  0  0  0  0  0  0  0
    2.7800   -1.0104    0.4974 H   0  0  0  0  0  0  0  0  0  0  0  0
    2.5610    1.1190    1.8093 H   0  0  0  0  0  0  0  0  0  0  0  0
    2.5646    2.0470    0.3049 H   0  0  0  0  0  0  0  0  0  0  0  0
    4.8248    1.1437   -0.2555 H   0  0  0  0  0  0  0  0  0  0  0  0
    4.8278    0.2101    1.2542 H   0  0  0  0  0  0  0  0  0  0  0  0
    4.6104    2.2899    2.4534 H   0  0  0  0  0  0  0  0  0  0  0  0
    6.7970    2.3196    0.4691 H   0  0  0  0  0  0  0  0  0  0  0  0
    6.7987    1.3844    1.9795 H   0  0  0  0  0  0  0  0  0  0  0  0
    6.5650    3.5089    3.2802 H   0  0  0  0  0  0  0  0  0  0  0  0
    6.5626    4.4319    1.7761 H   0  0  0  0  0  0  0  0  0  0  0  0
    8.8483    3.5400    1.2257 H   0  0  0  0  0  0  0  0  0  0  0  0
    8.8494    2.6152    2.7276 H   0  0  0  0  0  0  0  0  0  0  0  0
    8.5737    4.7255    4.0317 H   0  0  0  0  0  0  0  0  0  0  0  0
    8.5764    5.6551    2.5212 H   0  0  0  0  0  0  0  0  0  0  0  0
   10.9317    4.0903    2.5960 H   0  0  0  0  0  0  0  0  0  0  0  0
    9.5471    6.7515    4.2387 H   0  0  0  0  0  0  0  0  0  0  0  0
   12.9213    4.9903    3.1512 H   0  0  0  0  0  0  0  0  0  0  0  0
   12.9227    6.4684    4.0640 H   0  0  0  0  0  0  0  0  0  0  0  0
  1  2  1  0  0  0  0
  1 14  1  0  0  0  0
  1 15  1  0  0  0  0
  2  3  1  0  0  0  0
  2 16  1  0  0  0  0
  2 17  1  0  0  0  0
  3  4  1  0  0  0  0
  3 18  1  0  0  0  0
  3 19  1  0  0  0  0
  4  5  1  0  0  0  0
  4 20  1  0  0  0  0
  4 21  1  0  0  0  0
  5  6  1  0  0  0  0
  5 22  1  0  0  0  0
  6  7  1  0  0  0  0
  6 23  1  0  0  0  0
  6 24  1  0  0  0  0
  7  8  1  0  0  0  0
  7 25  1  0  0  0  0
  7 26  1  0  0  0  0
  8  9  1  0  0  0  0
  8 27  1  0  0  0  0
  8 28  1  0  0  0  0
  9 10  1  0  0  0  0
  9 29  1  0  0  0  0
  9 30  1  0  0  0  0
 10 11  1  0  0  0  0
 10 31  1  0  0  0  0
 11 12  2  0  0  0  0
 11 13  1  0  0  0  0
 12 32  1  0  0  0  0
 13 33  1  0  0  0  0
 13 34  1  0  0  0  0
M  END
$$$$
