AGO
 OpenBabel04121316073D

 64 67  0  0  1  0  0  0  0  0999 V2000
   -0.0830   -7.4420    2.7342 C   0  0  0  0  0  0  0  0  0  0  0  0
    1.0220   -7.3215    3.6736 N   0  0  0  0  0  0  0  0  0  0  0  0
    1.0363   -8.2962    4.6566 C   0  0  0  0  0  0  0  0  0  0  0  0
    1.3602   -7.7352    5.9010 C   0  0  0  0  0  0  0  0  0  0  0  0
    1.0476   -8.4227    7.0409 C   0  0  0  0  0  0  0  0  0  0  0  0
    0.3809   -9.6361    6.9050 C   0  0  0  0  0  0  0  0  0  0  0  0
    0.1492  -10.2217    5.6400 C   0  0  0  0  0  0  0  0  0  0  0  0
    0.6281   -9.6378    4.4674 C   0  0  0  0  0  0  0  0  0  0  0  0
    0.5280  -10.4850    3.1389 C   0  0  0  0  0  0  0  0  0  0  0  0
   -0.1868  -11.4902    3.1875 O   0  0  0  0  0  0  0  0  0  0  0  0
    1.1686  -10.2203    1.9064 O   0  0  0  0  0  0  0  0  0  0  0  0
    2.0020   -9.0838    1.7376 C   0  0  2  0  0  0  0  0  0  0  0  0
    1.8482   -8.6582    2.6443 H   0  0  0  0  0  0  0  0  0  0  0  0
    1.8578   -8.0026    0.5948 C   0  0  1  0  0  0  0  0  0  0  0  0
    0.9202   -8.1366    0.0298 H   0  0  0  0  0  0  0  0  0  0  0  0
    2.0447   -6.3152    0.8743 C   0  0  0  0  0  0  0  0  0  0  0  0
    1.4107   -5.6169    1.9808 O   0  0  0  0  0  0  0  0  0  0  0  0
    0.7856   -4.0636    2.0970 P   0  0  2  0  0  0  0  0  0  0  0  0
    0.9060   -3.8276    0.5756 O   0  0  0  0  0  0  0  0  0  0  0  0
    2.2997   -3.2631    2.3409 O   0  0  0  0  0  0  0  0  0  0  0  0
    2.9316   -2.7470    0.8154 P   0  0  1  0  0  0  0  0  0  0  0  0
    2.8103   -3.8868   -0.1723 O   0  0  0  0  0  0  0  0  0  0  0  0
    2.5604   -1.0594    1.2241 N   0  0  0  0  0  0  0  0  0  0  0  0
    1.9874   -0.9839    2.7648 P   0  0  0  0  0  0  0  0  0  0  0  0
    0.7988   -1.8394    3.0962 O   0  0  0  0  0  0  0  0  0  0  0  0
    3.4350   -1.1923    3.4325 O   0  0  0  0  0  0  0  0  0  0  0  0
    1.6312    0.0313    3.9413 O   0  0  0  0  0  0  0  0  0  0  0  0
    3.5634   -2.2309   -0.7102 O   0  0  0  0  0  0  0  0  0  0  0  0
    0.6508   -4.3280    3.8013 O   0  0  0  0  0  0  0  0  0  0  0  0
    2.9481   -8.4013   -0.2727 O   0  0  0  0  0  0  0  0  0  0  0  0
    4.0746   -8.7360    0.5880 C   0  0  2  0  0  0  0  0  0  0  0  0
    4.5855   -9.6198    0.2116 H   0  0  0  0  0  0  0  0  0  0  0  0
    3.4650   -9.0875    1.8871 C   0  0  0  0  0  0  0  0  0  0  0  0
    4.0252   -9.1640    2.9757 O   0  0  0  0  0  0  0  0  0  0  0  0
    4.9677   -7.6085    0.6470 N   0  0  0  0  0  0  0  0  0  0  0  0
    5.2407   -6.7415    1.6793 C   0  0  0  0  0  0  0  0  0  0  0  0
    6.0968   -5.8062    1.3193 N   0  0  0  0  0  0  0  0  0  0  0  0
    6.3882   -6.1162    0.0175 C   0  0  0  0  0  0  0  0  0  0  0  0
    5.6733   -7.1875   -0.4322 C   0  0  0  0  0  0  0  0  0  0  0  0
    5.6655   -7.7676   -1.6561 N   0  0  0  0  0  0  0  0  0  0  0  0
    6.4972   -7.2047   -2.4859 C   0  0  0  0  0  0  0  0  0  0  0  0
    6.6141   -7.6662   -3.7500 N   0  0  0  0  0  0  0  0  0  0  0  0
    7.3020   -6.1390   -2.1468 N   0  0  0  0  0  0  0  0  0  0  0  0
    7.9454   -5.7573   -2.8134 H   0  0  0  0  0  0  0  0  0  0  0  0
    7.3307   -5.4986   -0.8970 C   0  0  0  0  0  0  0  0  0  0  0  0
    8.0564   -4.5828   -0.6502 O   0  0  0  0  0  0  0  0  0  0  0  0
    0.2086   -7.1825    1.7397 H   0  0  0  0  0  0  0  0  0  0  0  0
   -0.8646   -6.7397    2.9629 H   0  0  0  0  0  0  0  0  0  0  0  0
   -0.4384   -8.4431    2.5064 H   0  0  0  0  0  0  0  0  0  0  0  0
    1.9778   -7.0619    3.3803 H   0  0  0  0  0  0  0  0  0  0  0  0
    1.7244   -6.7059    5.9424 H   0  0  0  0  0  0  0  0  0  0  0  0
    1.2405   -7.9645    8.0042 H   0  0  0  0  0  0  0  0  0  0  0  0
    0.0380  -10.1413    7.8002 H   0  0  0  0  0  0  0  0  0  0  0  0
   -0.4520  -11.1256    5.5853 H   0  0  0  0  0  0  0  0  0  0  0  0
    1.8475   -5.8529   -0.0976 H   0  0  0  0  0  0  0  0  0  0  0  0
    3.0738   -6.1189    1.1082 H   0  0  0  0  0  0  0  0  0  0  0  0
    2.0741   -0.6161    0.4753 H   0  0  0  0  0  0  0  0  0  0  0  0
    4.0363   -0.5268    3.0119 H   0  0  0  0  0  0  0  0  0  0  0  0
    1.2048   -0.6432    4.5727 H   0  0  0  0  0  0  0  0  0  0  0  0
    3.5631   -3.0707   -1.2209 H   0  0  0  0  0  0  0  0  0  0  0  0
    0.7329   -3.4318    4.1850 H   0  0  0  0  0  0  0  0  0  0  0  0
    4.7632   -6.7833    2.6546 H   0  0  0  0  0  0  0  0  0  0  0  0
    6.0062   -8.4215   -4.0437 H   0  0  0  0  0  0  0  0  0  0  0  0
    7.2330   -7.2604   -4.4328 H   0  0  0  0  0  0  0  0  0  0  0  0
  1  2  1  0  0  0  0
  1 47  1  0  0  0  0
  1 48  1  0  0  0  0
  1 49  1  0  0  0  0
  2  3  1  0  0  0  0
  2 50  1  0  0  0  0
  3  4  2  0  0  0  0
  3  8  1  0  0  0  0
  4  5  1  0  0  0  0
  4 51  1  0  0  0  0
  5  6  2  0  0  0  0
  5 52  1  0  0  0  0
  6  7  1  0  0  0  0
  6 53  1  0  0  0  0
  7  8  2  0  0  0  0
  7 54  1  0  0  0  0
  8  9  1  0  0  0  0
  9 10  2  0  0  0  0
  9 11  1  0  0  0  0
 12 14  1  0  0  0  0
 12 33  1  0  0  0  0
 12 13  1  1  0  0  0
 12 11  1  0  0  0  0
 14 15  1  6  0  0  0
 14 16  1  0  0  0  0
 14 30  1  0  0  0  0
 16 17  1  0  0  0  0
 16 55  1  0  0  0  0
 16 56  1  0  0  0  0
 18 20  1  1  0  0  0
 18 29  1  0  0  0  0
 18 19  2  0  0  0  0
 18 17  1  0  0  0  0
 21 20  1  1  0  0  0
 21 22  2  0  0  0  0
 21 23  1  0  0  0  0
 21 28  1  0  0  0  0
 23 24  1  0  0  0  0
 23 57  1  0  0  0  0
 24 25  2  0  0  0  0
 24 26  1  0  0  0  0
 24 27  1  0  0  0  0
 26 58  1  0  0  0  0
 27 59  1  0  0  0  0
 28 60  1  0  0  0  0
 29 61  1  0  0  0  0
 30 31  1  0  0  0  0
 31 33  1  0  0  0  0
 31 35  1  0  0  0  0
 31 32  1  6  0  0  0
 33 34  2  0  0  0  0
 35 36  1  0  0  0  0
 35 39  1  0  0  0  0
 36 37  2  0  0  0  0
 36 62  1  0  0  0  0
 37 38  1  0  0  0  0
 38 39  2  0  0  0  0
 38 45  1  0  0  0  0
 39 40  1  0  0  0  0
 40 41  2  0  0  0  0
 41 42  1  0  0  0  0
 41 43  1  0  0  0  0
 42 63  1  0  0  0  0
 42 64  1  0  0  0  0
 43 44  1  0  0  0  0
 43 45  1  0  0  0  0
 45 46  2  0  0  0  0
M  END
$$$$
