AHE
 OpenBabel04121316073D

 41 40  0  0  1  0  0  0  0  0999 V2000
    1.0641    0.0230    0.0545 O   0  0  0  0  0  0  0  0  0  0  0  0
    2.4821    0.0653    0.0178 C   0  0  0  0  0  0  0  0  0  0  0  0
    2.9695    1.7628   -0.3382 S   0  0  0  0  0  0  0  0  0  0  0  0
    4.7904    1.7471   -0.1259 C   0  0  0  0  0  0  0  0  0  0  0  0
    5.3318    3.1941   -0.2091 C   0  0  1  0  0  0  0  0  0  0  0  0
    4.9781    3.6815   -1.1282 H   0  0  0  0  0  0  0  0  0  0  0  0
    4.8910    4.0394    1.0258 C   0  0  0  0  0  0  0  0  0  0  0  0
    5.6693    4.4458    1.8906 O   0  0  0  0  0  0  0  0  0  0  0  0
    3.5489    4.2967    1.1084 N   0  0  0  0  0  0  0  0  0  0  0  0
    2.9891    5.0073    2.2319 C   0  0  0  0  0  0  0  0  0  0  0  0
    1.4707    4.9508    2.1728 C   0  0  0  0  0  0  0  0  0  0  0  0
    0.8385    4.3371    1.3220 O   0  0  0  0  0  0  0  0  0  0  0  0
    0.8597    5.6341    3.1666 O   0  0  0  0  0  0  0  0  0  0  0  0
    6.7912    3.2441   -0.2623 N   0  0  0  0  0  0  0  0  0  0  0  0
    7.3895    4.4810   -0.4213 C   0  0  0  0  0  0  0  0  0  0  0  0
    6.7686    5.5172   -0.6223 O   0  0  0  0  0  0  0  0  0  0  0  0
    8.8877    4.4235   -0.3733 C   0  0  0  0  0  0  0  0  0  0  0  0
    9.5069    5.8124   -0.5180 C   0  0  0  0  0  0  0  0  0  0  0  0
   11.0382    5.7999   -0.5243 C   0  0  1  0  0  0  0  0  0  0  0  0
   11.4302    5.3493    0.3941 H   0  0  0  0  0  0  0  0  0  0  0  0
   11.6264    5.0362   -1.7415 C   0  0  0  0  0  0  0  0  0  0  0  0
   12.2354    5.5679   -2.6691 O   0  0  0  0  0  0  0  0  0  0  0  0
   11.4290    3.6977   -1.7402 O   0  0  0  0  0  0  0  0  0  0  0  0
   11.5156    7.2009   -0.5600 N   0  0  0  0  0  0  0  0  0  0  0  0
    0.7837   -0.8994    0.1465 H   0  0  0  0  0  0  0  0  0  0  0  0
    2.8300   -0.5816   -0.7895 H   0  0  0  0  0  0  0  0  0  0  0  0
    2.8618   -0.2869    0.9814 H   0  0  0  0  0  0  0  0  0  0  0  0
    5.2155    1.1411   -0.9337 H   0  0  0  0  0  0  0  0  0  0  0  0
    5.0814    1.2940    0.8294 H   0  0  0  0  0  0  0  0  0  0  0  0
    2.8997    3.7746    0.5130 H   0  0  0  0  0  0  0  0  0  0  0  0
    3.3347    6.0422    2.1687 H   0  0  0  0  0  0  0  0  0  0  0  0
    3.3442    4.5383    3.1547 H   0  0  0  0  0  0  0  0  0  0  0  0
    1.4682    6.0863    3.7809 H   0  0  0  0  0  0  0  0  0  0  0  0
    7.3449    2.4114   -0.1138 H   0  0  0  0  0  0  0  0  0  0  0  0
    9.1463    3.7939   -1.2252 H   0  0  0  0  0  0  0  0  0  0  0  0
    9.2265    3.9465    0.5547 H   0  0  0  0  0  0  0  0  0  0  0  0
    9.1465    6.4427    0.3093 H   0  0  0  0  0  0  0  0  0  0  0  0
    9.1336    6.2755   -1.4407 H   0  0  0  0  0  0  0  0  0  0  0  0
   11.0080    3.3273   -0.9455 H   0  0  0  0  0  0  0  0  0  0  0  0
   11.0734    7.7665    0.1608 H   0  0  0  0  0  0  0  0  0  0  0  0
   11.2423    7.6115   -1.4585 H   0  0  0  0  0  0  0  0  0  0  0  0
  1  2  1  0  0  0  0
  1 25  1  0  0  0  0
  2  3  1  0  0  0  0
  2 26  1  0  0  0  0
  2 27  1  0  0  0  0
  3  4  1  0  0  0  0
  4  5  1  0  0  0  0
  4 28  1  0  0  0  0
  4 29  1  0  0  0  0
  5  6  1  6  0  0  0
  5  7  1  0  0  0  0
  5 14  1  0  0  0  0
  7  8  2  0  0  0  0
  7  9  1  0  0  0  0
  9 10  1  0  0  0  0
  9 30  1  0  0  0  0
 10 11  1  0  0  0  0
 10 31  1  0  0  0  0
 10 32  1  0  0  0  0
 11 12  2  0  0  0  0
 11 13  1  0  0  0  0
 13 33  1  0  0  0  0
 14 15  1  0  0  0  0
 14 34  1  0  0  0  0
 15 16  2  0  0  0  0
 15 17  1  0  0  0  0
 17 18  1  0  0  0  0
 17 35  1  0  0  0  0
 17 36  1  0  0  0  0
 18 19  1  0  0  0  0
 18 37  1  0  0  0  0
 18 38  1  0  0  0  0
 19 20  1  1  0  0  0
 19 21  1  0  0  0  0
 19 24  1  0  0  0  0
 21 22  2  0  0  0  0
 21 23  1  0  0  0  0
 23 39  1  0  0  0  0
 24 40  1  0  0  0  0
 24 41  1  0  0  0  0
M  END
$$$$
