AHQ
 OpenBabel04121316073D

 38 40  0  0  1  0  0  0  0  0999 V2000
    5.0854    0.0182   -0.2412 O   0  0  0  0  0  0  0  0  0  0  0  0
    4.3908   -1.1142    0.0158 C   0  0  0  0  0  0  0  0  0  0  0  0
    4.9191   -2.0340    0.6296 O   0  0  0  0  0  0  0  0  0  0  0  0
    2.9808   -1.0864   -0.6059 C   0  0  1  0  0  0  0  0  0  0  0  0
    2.4225   -0.3142   -0.0620 H   0  0  0  0  0  0  0  0  0  0  0  0
    2.9948   -0.7443   -2.0964 C   0  0  0  0  0  0  0  0  0  0  0  0
    3.8005   -1.7967   -2.8697 C   0  0  1  0  0  0  0  0  0  0  0  0
    3.6034   -1.6524   -3.9399 H   0  0  0  0  0  0  0  0  0  0  0  0
    5.3173   -1.6643   -2.6446 C   0  0  0  0  0  0  0  0  0  0  0  0
    6.0533   -2.5173   -2.1686 O   0  0  0  0  0  0  0  0  0  0  0  0
    5.8168   -0.4425   -2.9457 O   0  0  0  0  0  0  0  0  0  0  0  0
    3.3436   -3.1912   -2.5001 C   0  0  0  0  0  0  0  0  0  0  0  0
    2.6314   -3.4340   -1.2928 C   0  0  0  0  0  0  0  0  0  0  0  0
    2.2690   -2.3661   -0.4642 N   0  0  0  0  0  0  0  0  0  0  0  0
    2.3616   -4.7786   -0.9573 C   0  0  0  0  0  0  0  0  0  0  0  0
    1.6999   -5.1318    0.1953 O   0  0  0  0  0  0  0  0  0  0  0  0
    2.7881   -5.8355   -1.7755 C   0  0  0  0  0  0  0  0  0  0  0  0
    3.4898   -5.5664   -2.9298 C   0  0  0  0  0  0  0  0  0  0  0  0
    3.7551   -4.2583   -3.3068 C   0  0  0  0  0  0  0  0  0  0  0  0
    4.6232   -4.1897   -4.4038 N   0  0  0  0  0  0  0  0  0  0  0  0
    5.0034   -5.5809   -4.7318 C   0  0  1  0  0  0  0  0  0  0  0  0
    6.0366   -5.7063   -4.3831 H   0  0  0  0  0  0  0  0  0  0  0  0
    4.0388   -6.4996   -3.9559 C   0  0  0  0  0  0  0  0  0  0  0  0
    4.9978   -5.8729   -6.2363 C   0  0  0  0  0  0  0  0  0  0  0  0
    4.6638   -5.0701   -7.0994 O   0  0  0  0  0  0  0  0  0  0  0  0
    5.4537   -7.1099   -6.5677 O   0  0  0  0  0  0  0  0  0  0  0  0
    2.5390   -7.1328   -1.4317 O   0  0  0  0  0  0  0  0  0  0  0  0
    6.0218   -0.2363   -0.0637 H   0  0  0  0  0  0  0  0  0  0  0  0
    3.3783    0.2647   -2.2713 H   0  0  0  0  0  0  0  0  0  0  0  0
    1.9573   -0.7422   -2.4665 H   0  0  0  0  0  0  0  0  0  0  0  0
    5.1652    0.2127   -3.2496 H   0  0  0  0  0  0  0  0  0  0  0  0
    1.6900   -2.4697    0.3538 H   0  0  0  0  0  0  0  0  0  0  0  0
    1.5740   -4.3148    0.7015 H   0  0  0  0  0  0  0  0  0  0  0  0
    4.5544   -3.4933   -5.1352 H   0  0  0  0  0  0  0  0  0  0  0  0
    4.5738   -7.3432   -3.5117 H   0  0  0  0  0  0  0  0  0  0  0  0
    3.2275   -6.8652   -4.5939 H   0  0  0  0  0  0  0  0  0  0  0  0
    5.7529   -7.6734   -5.8282 H   0  0  0  0  0  0  0  0  0  0  0  0
    2.0658   -7.0740   -0.5786 H   0  0  0  0  0  0  0  0  0  0  0  0
  1  2  1  0  0  0  0
  1 28  1  0  0  0  0
  2  3  2  0  0  0  0
  4  6  1  0  0  0  0
  4 14  1  0  0  0  0
  4  5  1  1  0  0  0
  4  2  1  0  0  0  0
  6  7  1  0  0  0  0
  6 29  1  0  0  0  0
  6 30  1  0  0  0  0
  7  8  1  6  0  0  0
  7  9  1  0  0  0  0
  7 12  1  0  0  0  0
  9 10  2  0  0  0  0
  9 11  1  0  0  0  0
 11 31  1  0  0  0  0
 12 13  2  0  0  0  0
 12 19  1  0  0  0  0
 13 14  1  0  0  0  0
 13 15  1  0  0  0  0
 14 32  1  0  0  0  0
 15 16  1  0  0  0  0
 15 17  2  0  0  0  0
 16 33  1  0  0  0  0
 17 18  1  0  0  0  0
 17 27  1  0  0  0  0
 18 19  2  0  0  0  0
 18 23  1  0  0  0  0
 19 20  1  0  0  0  0
 20 21  1  0  0  0  0
 20 34  1  0  0  0  0
 21 22  1  1  0  0  0
 21 23  1  0  0  0  0
 21 24  1  0  0  0  0
 23 35  1  0  0  0  0
 23 36  1  0  0  0  0
 24 25  2  0  0  0  0
 24 26  1  0  0  0  0
 26 37  1  0  0  0  0
 27 38  1  0  0  0  0
M  END
$$$$
