AHU
 OpenBabel04121316073D

 31 32  0  0  1  0  0  0  0  0999 V2000
    0.8877   -0.0211   -0.1460 O   0  0  0  0  0  0  0  0  0  0  0  0
    2.3047   -0.0217   -0.1469 C   0  0  0  0  0  0  0  0  0  0  0  0
    2.9157   -1.2549   -0.8436 C   0  0  1  0  0  0  0  0  0  0  0  0
    3.2735   -0.9383   -1.8307 H   0  0  0  0  0  0  0  0  0  0  0  0
    4.0848   -1.6539   -0.1173 O   0  0  0  0  0  0  0  0  0  0  0  0
    3.7840   -2.2125    1.1604 C   0  0  0  0  0  0  0  0  0  0  0  0
    2.8725   -3.4632    1.1340 C   0  0  2  0  0  0  0  0  0  0  0  0
    3.4268   -4.2764    0.6472 H   0  0  0  0  0  0  0  0  0  0  0  0
    1.6288   -3.1225    0.2716 C   0  0  0  0  0  0  0  0  0  0  0  0
    2.0180   -2.4859   -1.0558 C   0  0  2  0  0  0  0  0  0  0  0  0
    1.1305   -2.2276   -1.6419 H   0  0  0  0  0  0  0  0  0  0  0  0
    2.7469   -3.4671   -1.8185 O   0  0  0  0  0  0  0  0  0  0  0  0
    2.5031   -3.9519    2.5081 N   0  0  0  0  0  0  0  0  0  0  0  0
    1.3575   -4.7251    2.6865 C   0  0  0  0  0  0  0  0  0  0  0  0
    0.8690   -5.0327    3.8967 C   0  0  0  0  0  0  0  0  0  0  0  0
   -0.9485   -5.9230    4.1634 I   0  0  0  0  0  0  0  0  0  0  0  0
    1.6865   -4.6635    5.0773 C   0  0  0  0  0  0  0  0  0  0  0  0
    1.3016   -4.7759    6.2395 O   0  0  0  0  0  0  0  0  0  0  0  0
    2.9291   -4.1891    4.7979 N   0  0  0  0  0  0  0  0  0  0  0  0
    3.5033   -3.9134    5.5792 H   0  0  0  0  0  0  0  0  0  0  0  0
    3.3150   -3.6580    3.6069 C   0  0  0  0  0  0  0  0  0  0  0  0
    4.3106   -2.9437    3.6183 O   0  0  0  0  0  0  0  0  0  0  0  0
    0.6211    0.7212    0.4273 H   0  0  0  0  0  0  0  0  0  0  0  0
    2.6337    0.0873    0.8901 H   0  0  0  0  0  0  0  0  0  0  0  0
    2.6651    0.8869   -0.6399 H   0  0  0  0  0  0  0  0  0  0  0  0
    3.3164   -1.4652    1.8115 H   0  0  0  0  0  0  0  0  0  0  0  0
    4.7621   -2.4377    1.5807 H   0  0  0  0  0  0  0  0  0  0  0  0
    0.9712   -2.4440    0.8289 H   0  0  0  0  0  0  0  0  0  0  0  0
    1.0465   -4.0249    0.0555 H   0  0  0  0  0  0  0  0  0  0  0  0
    2.1857   -4.2513   -1.9381 H   0  0  0  0  0  0  0  0  0  0  0  0
    0.8185   -5.0375    1.7988 H   0  0  0  0  0  0  0  0  0  0  0  0
  1  2  1  0  0  0  0
  1 23  1  0  0  0  0
  2  3  1  0  0  0  0
  2 24  1  0  0  0  0
  2 25  1  0  0  0  0
  3  4  1  6  0  0  0
  3  5  1  0  0  0  0
  3 10  1  0  0  0  0
  5  6  1  0  0  0  0
  6  7  1  0  0  0  0
  6 26  1  0  0  0  0
  6 27  1  0  0  0  0
  7  9  1  0  0  0  0
  7 13  1  0  0  0  0
  7  8  1  6  0  0  0
  9 10  1  0  0  0  0
  9 28  1  0  0  0  0
  9 29  1  0  0  0  0
 10 11  1  6  0  0  0
 10 12  1  0  0  0  0
 12 30  1  0  0  0  0
 13 14  1  0  0  0  0
 13 21  1  0  0  0  0
 14 15  2  0  0  0  0
 14 31  1  0  0  0  0
 15 16  1  0  0  0  0
 15 17  1  0  0  0  0
 17 18  2  0  0  0  0
 17 19  1  0  0  0  0
 19 20  1  0  0  0  0
 19 21  1  0  0  0  0
 21 22  2  0  0  0  0
M  END
$$$$
