AIQ
 OpenBabel04121316073D

 32 34  0  0  0  0  0  0  0  0999 V2000
    0.9018   -0.0092   -0.0718 N   0  0  0  0  0  0  0  0  0  0  0  0
    2.2805    0.0020   -0.0549 C   0  0  0  0  0  0  0  0  0  0  0  0
    2.9846   -1.1971   -0.0573 C   0  0  0  0  0  0  0  0  0  0  0  0
    4.3999   -1.2773   -0.0501 C   0  0  0  0  0  0  0  0  0  0  0  0
    5.1134   -2.6321   -0.0385 C   0  0  0  0  0  0  0  0  0  0  0  0
    3.9426   -4.0436   -0.0317 S   0  0  0  0  0  0  0  0  0  0  0  0
    4.8943   -5.4523   -0.0197 C   0  0  0  0  0  0  0  0  0  0  0  0
    6.1935   -5.5847   -0.0118 N   0  0  0  0  0  0  0  0  0  0  0  0
    6.3974   -6.9443   -0.0084 C   0  0  0  0  0  0  0  0  0  0  0  0
    5.2028   -7.6294   -0.0129 C   0  0  0  0  0  0  0  0  0  0  0  0
    4.2483   -6.6545   -0.0193 N   0  0  0  0  0  0  0  0  0  0  0  0
    3.2444   -6.7712   -0.0249 H   0  0  0  0  0  0  0  0  0  0  0  0
    5.1237   -0.0682   -0.0507 C   0  0  0  0  0  0  0  0  0  0  0  0
    4.3994    1.1363   -0.0534 C   0  0  0  0  0  0  0  0  0  0  0  0
    3.0005    1.1793   -0.0559 C   0  0  0  0  0  0  0  0  0  0  0  0
    5.1545    2.3950   -0.0521 C   0  0  0  0  0  0  0  0  0  0  0  0
    4.6005    3.4913   -0.0521 O   0  0  0  0  0  0  0  0  0  0  0  0
    6.5151    2.2697   -0.0500 N   0  0  0  0  0  0  0  0  0  0  0  0
    7.0303    3.1342   -0.0489 H   0  0  0  0  0  0  0  0  0  0  0  0
    7.1616    1.0696   -0.0490 C   0  0  0  0  0  0  0  0  0  0  0  0
    6.5364   -0.0668   -0.0489 N   0  0  0  0  0  0  0  0  0  0  0  0
    8.5105    1.1194   -0.0480 N   0  0  0  0  0  0  0  0  0  0  0  0
    0.3951   -0.8846   -0.0533 H   0  0  0  0  0  0  0  0  0  0  0  0
    0.3769    0.8530   -0.0518 H   0  0  0  0  0  0  0  0  0  0  0  0
    2.3752   -2.0947   -0.0626 H   0  0  0  0  0  0  0  0  0  0  0  0
    5.7405   -2.6951    0.8580 H   0  0  0  0  0  0  0  0  0  0  0  0
    5.7495   -2.7078   -0.9275 H   0  0  0  0  0  0  0  0  0  0  0  0
    7.3955   -7.3597   -0.0037 H   0  0  0  0  0  0  0  0  0  0  0  0
    4.9560   -8.6811   -0.0128 H   0  0  0  0  0  0  0  0  0  0  0  0
    2.4845    2.1343   -0.0574 H   0  0  0  0  0  0  0  0  0  0  0  0
    9.0440    1.9750   -0.0464 H   0  0  0  0  0  0  0  0  0  0  0  0
    9.0136    0.2413   -0.0474 H   0  0  0  0  0  0  0  0  0  0  0  0
  1  2  1  0  0  0  0
  1 23  1  0  0  0  0
  1 24  1  0  0  0  0
  2  3  2  0  0  0  0
  2 15  1  0  0  0  0
  3  4  1  0  0  0  0
  3 25  1  0  0  0  0
  4  5  1  0  0  0  0
  4 13  2  0  0  0  0
  5  6  1  0  0  0  0
  5 26  1  0  0  0  0
  5 27  1  0  0  0  0
  6  7  1  0  0  0  0
  7  8  2  0  0  0  0
  7 11  1  0  0  0  0
  8  9  1  0  0  0  0
  9 10  2  0  0  0  0
  9 28  1  0  0  0  0
 10 11  1  0  0  0  0
 10 29  1  0  0  0  0
 11 12  1  0  0  0  0
 13 14  1  0  0  0  0
 13 21  1  0  0  0  0
 14 15  2  0  0  0  0
 14 16  1  0  0  0  0
 15 30  1  0  0  0  0
 16 17  2  0  0  0  0
 16 18  1  0  0  0  0
 18 19  1  0  0  0  0
 18 20  1  0  0  0  0
 20 21  2  0  0  0  0
 20 22  1  0  0  0  0
 22 31  1  0  0  0  0
 22 32  1  0  0  0  0
M  END
$$$$
