AJB
 OpenBabel04121316073D

 37 39  0  0  0  0  0  0  0  0999 V2000
    0.9800    0.0425    0.0926 C   0  0  0  0  0  0  0  0  0  0  0  0
    2.4564    0.1527    0.0929 C   0  0  0  0  0  0  0  0  0  0  0  0
    3.2079    1.3119    0.0915 C   0  0  0  0  0  0  0  0  0  0  0  0
    4.8805    0.9367    0.1006 S   0  0  0  0  0  0  0  0  0  0  0  0
    4.4688   -0.7125    0.1096 C   0  0  0  0  0  0  0  0  0  0  0  0
    3.1959   -1.0041    0.0977 N   0  0  0  0  0  0  0  0  0  0  0  0
    5.5345   -1.5605    0.1311 N   0  0  0  0  0  0  0  0  0  0  0  0
    5.3244   -2.9197    0.1437 C   0  0  0  0  0  0  0  0  0  0  0  0
    4.2115   -3.4534    0.1007 O   0  0  0  0  0  0  0  0  0  0  0  0
    6.5258   -3.8118    0.1424 C   0  0  0  0  0  0  0  0  0  0  0  0
    7.8163   -3.2724    0.0620 C   0  0  0  0  0  0  0  0  0  0  0  0
    8.9412   -4.0625   -0.1568 C   0  0  0  0  0  0  0  0  0  0  0  0
    8.7613   -5.4485   -0.1348 C   0  0  0  0  0  0  0  0  0  0  0  0
    7.4968   -6.0087    0.0928 C   0  0  0  0  0  0  0  0  0  0  0  0
    6.3552   -5.2087    0.1365 C   0  0  0  0  0  0  0  0  0  0  0  0
    5.1137   -5.8047    0.4049 N   0  0  0  0  0  0  0  0  0  0  0  0
   10.5819   -3.4338   -0.4898 S   0  0  0  0  0  0  0  0  0  0  0  0
   10.4378   -1.7069   -0.4681 C   0  0  0  0  0  0  0  0  0  0  0  0
    9.6096   -0.9637    0.2321 N   0  0  0  0  0  0  0  0  0  0  0  0
    9.8562    0.3539   -0.0512 N   0  0  0  0  0  0  0  0  0  0  0  0
   10.8905    0.3898   -0.8575 C   0  0  0  0  0  0  0  0  0  0  0  0
   11.2880   -0.8814   -1.1494 N   0  0  0  0  0  0  0  0  0  0  0  0
   12.3982   -1.2509   -1.9837 C   0  0  0  0  0  0  0  0  0  0  0  0
    0.5258    1.0366    0.0930 H   0  0  0  0  0  0  0  0  0  0  0  0
    0.6341   -0.4954    0.9810 H   0  0  0  0  0  0  0  0  0  0  0  0
    0.6340   -0.4954   -0.7957 H   0  0  0  0  0  0  0  0  0  0  0  0
    2.8615    2.3319    0.0881 H   0  0  0  0  0  0  0  0  0  0  0  0
    6.4382   -1.1135    0.1310 H   0  0  0  0  0  0  0  0  0  0  0  0
    7.9319   -2.2134    0.1755 H   0  0  0  0  0  0  0  0  0  0  0  0
    9.6050   -6.1191   -0.2805 H   0  0  0  0  0  0  0  0  0  0  0  0
    7.4028   -7.0836    0.2174 H   0  0  0  0  0  0  0  0  0  0  0  0
    4.9583   -6.7503    0.0870 H   0  0  0  0  0  0  0  0  0  0  0  0
    4.3344   -5.1665    0.1699 H   0  0  0  0  0  0  0  0  0  0  0  0
   11.3681    1.2844   -1.2310 H   0  0  0  0  0  0  0  0  0  0  0  0
   12.8948   -0.3501   -2.3524 H   0  0  0  0  0  0  0  0  0  0  0  0
   12.0216   -1.8358   -2.8264 H   0  0  0  0  0  0  0  0  0  0  0  0
   13.1013   -1.8378   -1.3872 H   0  0  0  0  0  0  0  0  0  0  0  0
  1  2  1  0  0  0  0
  1 24  1  0  0  0  0
  1 25  1  0  0  0  0
  1 26  1  0  0  0  0
  2  3  2  0  0  0  0
  2  6  1  0  0  0  0
  3  4  1  0  0  0  0
  3 27  1  0  0  0  0
  4  5  1  0  0  0  0
  5  6  2  0  0  0  0
  5  7  1  0  0  0  0
  7  8  1  0  0  0  0
  7 28  1  0  0  0  0
  8  9  2  0  0  0  0
  8 10  1  0  0  0  0
 10 11  2  0  0  0  0
 10 15  1  0  0  0  0
 11 12  1  0  0  0  0
 11 29  1  0  0  0  0
 12 13  2  0  0  0  0
 12 17  1  0  0  0  0
 13 14  1  0  0  0  0
 13 30  1  0  0  0  0
 14 15  2  0  0  0  0
 14 31  1  0  0  0  0
 15 16  1  0  0  0  0
 16 32  1  0  0  0  0
 16 33  1  0  0  0  0
 17 18  1  0  0  0  0
 18 19  2  0  0  0  0
 18 22  1  0  0  0  0
 19 20  1  0  0  0  0
 20 21  2  0  0  0  0
 21 22  1  0  0  0  0
 21 34  1  0  0  0  0
 22 23  1  0  0  0  0
 23 35  1  0  0  0  0
 23 36  1  0  0  0  0
 23 37  1  0  0  0  0
M  END
$$$$
