AJI
 OpenBabel04121316073D

 45 48  0  0  0  0  0  0  0  0999 V2000
    1.1365    0.1543    0.8401 F   0  0  0  0  0  0  0  0  0  0  0  0
    2.4768    0.2129    0.8230 C   0  0  0  0  0  0  0  0  0  0  0  0
    3.1150    1.4091    0.5144 C   0  0  0  0  0  0  0  0  0  0  0  0
    4.4841    1.4105    0.2224 C   0  0  0  0  0  0  0  0  0  0  0  0
    5.2539    0.2459    0.3690 C   0  0  0  0  0  0  0  0  0  0  0  0
    4.6018   -0.9190    0.8155 C   0  0  0  0  0  0  0  0  0  0  0  0
    3.2038   -0.9598    0.9147 C   0  0  0  0  0  0  0  0  0  0  0  0
    6.9207    0.3270   -0.3518 S   0  0  0  0  0  0  0  0  0  0  0  0
    7.4895   -1.3318   -0.6546 C   0  0  0  0  0  0  0  0  0  0  0  0
    8.8349   -1.6344   -0.3581 C   0  0  0  0  0  0  0  0  0  0  0  0
    9.2811   -2.9602   -0.1747 C   0  0  0  0  0  0  0  0  0  0  0  0
    8.4296   -3.9961   -0.4902 C   0  0  0  0  0  0  0  0  0  0  0  0
    7.1950   -3.6853   -0.8902 N   0  0  0  0  0  0  0  0  0  0  0  0
    6.7241   -2.4055   -1.0366 C   0  0  0  0  0  0  0  0  0  0  0  0
    5.2764   -2.3590   -1.5545 C   0  0  0  0  0  0  0  0  0  0  0  0
    4.5776   -3.3262   -1.3130 O   0  0  0  0  0  0  0  0  0  0  0  0
    4.7896   -1.1877   -2.1540 N   0  0  0  0  0  0  0  0  0  0  0  0
    3.4155   -0.9494   -2.2910 C   0  0  0  0  0  0  0  0  0  0  0  0
    2.2989   -2.2434   -2.4171 S   0  0  0  0  0  0  0  0  0  0  0  0
    1.0350   -1.1939   -1.9819 C   0  0  0  0  0  0  0  0  0  0  0  0
    1.4597    0.1172   -2.0673 C   0  0  0  0  0  0  0  0  0  0  0  0
    2.8494    0.2494   -2.2800 N   0  0  0  0  0  0  0  0  0  0  0  0
    0.5557    1.2925   -1.8449 C   0  0  0  0  0  0  0  0  0  0  0  0
    8.9959   -5.6897   -0.4772 S   0  0  0  0  0  0  0  0  0  0  0  0
    7.8593   -6.8099   -1.1946 C   0  0  0  0  0  0  0  0  0  0  0  0
    8.0452   -8.1214   -1.1503 N   0  0  0  0  0  0  0  0  0  0  0  0
    6.9683   -8.7535   -1.7511 N   0  0  0  0  0  0  0  0  0  0  0  0
    6.1564   -7.8185   -2.1654 C   0  0  0  0  0  0  0  0  0  0  0  0
    6.7045   -6.6053   -1.8928 N   0  0  0  0  0  0  0  0  0  0  0  0
    5.9876   -5.4139   -2.1591 C   0  0  0  0  0  0  0  0  0  0  0  0
    2.5216    2.2983    0.3285 H   0  0  0  0  0  0  0  0  0  0  0  0
    4.9078    2.3030   -0.2351 H   0  0  0  0  0  0  0  0  0  0  0  0
    5.1040   -1.8768    0.9020 H   0  0  0  0  0  0  0  0  0  0  0  0
    2.6771   -1.9150    0.8951 H   0  0  0  0  0  0  0  0  0  0  0  0
    9.5675   -0.8342   -0.2642 H   0  0  0  0  0  0  0  0  0  0  0  0
   10.2766   -3.1513    0.2204 H   0  0  0  0  0  0  0  0  0  0  0  0
    5.3308   -0.3443   -2.0290 H   0  0  0  0  0  0  0  0  0  0  0  0
    0.0573   -1.5671   -1.7178 H   0  0  0  0  0  0  0  0  0  0  0  0
   -0.4911    0.9617   -1.8671 H   0  0  0  0  0  0  0  0  0  0  0  0
    0.6921    2.0462   -2.6207 H   0  0  0  0  0  0  0  0  0  0  0  0
    0.6831    1.7782   -0.8723 H   0  0  0  0  0  0  0  0  0  0  0  0
    5.1877   -7.9256   -2.6374 H   0  0  0  0  0  0  0  0  0  0  0  0
    5.0794   -5.5598   -2.7391 H   0  0  0  0  0  0  0  0  0  0  0  0
    6.6445   -4.7493   -2.7278 H   0  0  0  0  0  0  0  0  0  0  0  0
    5.6749   -5.1186   -1.1583 H   0  0  0  0  0  0  0  0  0  0  0  0
  1  2  1  0  0  0  0
  2  3  2  0  0  0  0
  2  7  1  0  0  0  0
  3  4  1  0  0  0  0
  3 31  1  0  0  0  0
  4  5  2  0  0  0  0
  4 32  1  0  0  0  0
  5  6  1  0  0  0  0
  5  8  1  0  0  0  0
  6  7  2  0  0  0  0
  6 33  1  0  0  0  0
  7 34  1  0  0  0  0
  8  9  1  0  0  0  0
  9 10  2  0  0  0  0
  9 14  1  0  0  0  0
 10 11  1  0  0  0  0
 10 35  1  0  0  0  0
 11 12  2  0  0  0  0
 11 36  1  0  0  0  0
 12 13  1  0  0  0  0
 12 24  1  0  0  0  0
 13 14  2  0  0  0  0
 14 15  1  0  0  0  0
 15 16  2  0  0  0  0
 15 17  1  0  0  0  0
 17 18  1  0  0  0  0
 17 37  1  0  0  0  0
 18 19  1  0  0  0  0
 18 22  2  0  0  0  0
 19 20  1  0  0  0  0
 20 21  2  0  0  0  0
 20 38  1  0  0  0  0
 21 22  1  0  0  0  0
 21 23  1  0  0  0  0
 23 39  1  0  0  0  0
 23 40  1  0  0  0  0
 23 41  1  0  0  0  0
 24 25  1  0  0  0  0
 25 26  2  0  0  0  0
 25 29  1  0  0  0  0
 26 27  1  0  0  0  0
 27 28  2  0  0  0  0
 28 29  1  0  0  0  0
 28 42  1  0  0  0  0
 29 30  1  0  0  0  0
 30 43  1  0  0  0  0
 30 44  1  0  0  0  0
 30 45  1  0  0  0  0
M  END
$$$$
