AK2
 OpenBabel04121316073D

 43 46  0  0  0  0  0  0  0  0999 V2000
    0.8738   -0.1463    0.1123 O   0  0  0  0  0  0  0  0  0  0  0  0
    2.1031   -0.1353   -0.0005 C   0  0  0  0  0  0  0  0  0  0  0  0
    2.8333    0.6285   -0.8677 N   0  0  0  0  0  0  0  0  0  0  0  0
    2.1915    1.5899   -1.5755 C   0  0  0  0  0  0  0  0  0  0  0  0
    1.2608    1.4615   -2.4806 N   0  0  0  0  0  0  0  0  0  0  0  0
    1.0260    2.7062   -3.0217 C   0  0  0  0  0  0  0  0  0  0  0  0
    1.7389    3.7494   -2.4439 C   0  0  0  0  0  0  0  0  0  0  0  0
    2.8043    3.1368   -1.2636 S   0  0  0  0  0  0  0  0  0  0  0  0
    1.7532    5.2184   -2.6910 C   0  0  0  0  0  0  0  0  0  0  0  0
    0.8458    5.5529   -3.8327 C   0  0  0  0  0  0  0  0  0  0  0  0
    0.7763    6.9507   -4.1438 N   0  0  0  0  0  0  0  0  0  0  0  0
    0.0209    7.3684   -5.2206 C   0  0  0  0  0  0  0  0  0  0  0  0
    0.0437    8.6864   -5.4983 N   0  0  0  0  0  0  0  0  0  0  0  0
   -0.6747    9.1326   -6.5408 C   0  0  0  0  0  0  0  0  0  0  0  0
   -1.4309    8.4192   -7.3867 N   0  0  0  0  0  0  0  0  0  0  0  0
   -1.4613    7.0905   -7.1148 C   0  0  0  0  0  0  0  0  0  0  0  0
   -0.7665    6.5361   -6.0461 C   0  0  0  0  0  0  0  0  0  0  0  0
   -1.0622    4.8288   -5.9832 S   0  0  0  0  0  0  0  0  0  0  0  0
   -2.0272    4.8275   -7.3530 C   0  0  0  0  0  0  0  0  0  0  0  0
   -2.1786    6.0942   -7.8599 C   0  0  0  0  0  0  0  0  0  0  0  0
    2.8551   -0.9326    0.8329 N   0  0  0  0  0  0  0  0  0  0  0  0
    4.2513   -0.9902    0.8451 C   0  0  0  0  0  0  0  0  0  0  0  0
    4.9561   -0.0813    1.6378 C   0  0  0  0  0  0  0  0  0  0  0  0
    6.3460   -0.0316    1.5583 C   0  0  0  0  0  0  0  0  0  0  0  0
    7.0104   -0.8019    0.6034 C   0  0  0  0  0  0  0  0  0  0  0  0
    6.2937   -1.7043   -0.1842 C   0  0  0  0  0  0  0  0  0  0  0  0
    4.9183   -1.8506   -0.0223 C   0  0  0  0  0  0  0  0  0  0  0  0
    7.1083   -2.6005   -1.4060 Cl  0  0  0  0  0  0  0  0  0  0  0  0
    3.7322    0.9255   -0.5250 H   0  0  0  0  0  0  0  0  0  0  0  0
    0.3172    2.7761   -3.8420 H   0  0  0  0  0  0  0  0  0  0  0  0
    2.7699    5.5451   -2.9336 H   0  0  0  0  0  0  0  0  0  0  0  0
    1.4221    5.7536   -1.7950 H   0  0  0  0  0  0  0  0  0  0  0  0
   -0.1568    5.2061   -3.5508 H   0  0  0  0  0  0  0  0  0  0  0  0
    1.2242    5.0002   -4.7032 H   0  0  0  0  0  0  0  0  0  0  0  0
    1.3444    7.6413   -3.6741 H   0  0  0  0  0  0  0  0  0  0  0  0
   -0.6329   10.2042   -6.7168 H   0  0  0  0  0  0  0  0  0  0  0  0
   -2.4312    3.8852   -7.6909 H   0  0  0  0  0  0  0  0  0  0  0  0
   -2.7787    6.2971   -8.7328 H   0  0  0  0  0  0  0  0  0  0  0  0
    2.3200   -1.5899    1.3841 H   0  0  0  0  0  0  0  0  0  0  0  0
    4.4278    0.5951    2.3066 H   0  0  0  0  0  0  0  0  0  0  0  0
    6.9082    0.6210    2.2215 H   0  0  0  0  0  0  0  0  0  0  0  0
    8.0843   -0.6923    0.4743 H   0  0  0  0  0  0  0  0  0  0  0  0
    4.3690   -2.5864   -0.6025 H   0  0  0  0  0  0  0  0  0  0  0  0
  1  2  2  0  0  0  0
  2  3  1  0  0  0  0
  2 21  1  0  0  0  0
  3  4  1  0  0  0  0
  3 29  1  0  0  0  0
  4  5  2  0  0  0  0
  4  8  1  0  0  0  0
  5  6  1  0  0  0  0
  6  7  2  0  0  0  0
  6 30  1  0  0  0  0
  7  8  1  0  0  0  0
  7  9  1  0  0  0  0
  9 10  1  0  0  0  0
  9 31  1  0  0  0  0
  9 32  1  0  0  0  0
 10 11  1  0  0  0  0
 10 33  1  0  0  0  0
 10 34  1  0  0  0  0
 11 12  1  0  0  0  0
 11 35  1  0  0  0  0
 12 13  2  0  0  0  0
 12 17  1  0  0  0  0
 13 14  1  0  0  0  0
 14 15  2  0  0  0  0
 14 36  1  0  0  0  0
 15 16  1  0  0  0  0
 16 17  2  0  0  0  0
 16 20  1  0  0  0  0
 17 18  1  0  0  0  0
 18 19  1  0  0  0  0
 19 20  2  0  0  0  0
 19 37  1  0  0  0  0
 20 38  1  0  0  0  0
 21 22  1  0  0  0  0
 21 39  1  0  0  0  0
 22 23  2  0  0  0  0
 22 27  1  0  0  0  0
 23 24  1  0  0  0  0
 23 40  1  0  0  0  0
 24 25  2  0  0  0  0
 24 41  1  0  0  0  0
 25 26  1  0  0  0  0
 25 42  1  0  0  0  0
 26 27  2  0  0  0  0
 26 28  1  0  0  0  0
 27 43  1  0  0  0  0
M  END
$$$$
