AKI
 OpenBabel04121316073D

 67 72  0  0  0  0  0  0  0  0999 V2000
    0.8319   -0.0151    0.0604 O   0  0  0  0  0  0  0  0  0  0  0  0
    2.0377   -0.0799   -0.0702 C   0  0  0  0  0  0  0  0  0  0  0  0
    2.6999   -0.5900   -1.1629 N   0  0  0  0  0  0  0  0  0  0  0  0
    2.0395   -1.0564   -2.2891 C   0  0  0  0  0  0  0  0  0  0  0  0
    2.0802   -2.4282   -2.5224 C   0  0  0  0  0  0  0  0  0  0  0  0
    1.6871   -2.9141   -3.7612 C   0  0  0  0  0  0  0  0  0  0  0  0
    1.1675   -2.0351   -4.7125 C   0  0  0  0  0  0  0  0  0  0  0  0
    1.0542   -0.6705   -4.4324 C   0  0  0  0  0  0  0  0  0  0  0  0
    1.5588   -0.1653   -3.2409 C   0  0  0  0  0  0  0  0  0  0  0  0
    2.8616    0.4023    0.9191 N   0  0  0  0  0  0  0  0  0  0  0  0
    4.2549    0.3270    1.0160 C   0  0  0  0  0  0  0  0  0  0  0  0
    5.0067   -0.6702    0.3773 C   0  0  0  0  0  0  0  0  0  0  0  0
    6.3794   -0.7219    0.4946 C   0  0  0  0  0  0  0  0  0  0  0  0
    7.0224    0.2415    1.2537 C   0  0  0  0  0  0  0  0  0  0  0  0
    6.2780    1.2796    1.8433 C   0  0  0  0  0  0  0  0  0  0  0  0
    4.8957    1.2896    1.7805 C   0  0  0  0  0  0  0  0  0  0  0  0
    8.4913    0.0639    1.4760 C   0  0  0  0  0  0  0  0  0  0  0  0
    9.0517    1.1913    2.3261 C   0  0  0  0  0  0  0  0  0  0  0  0
   10.4776    1.0587    2.4027 N   0  0  0  0  0  0  0  0  0  0  0  0
   11.0378    1.8976    3.3615 C   0  0  0  0  0  0  0  0  0  0  0  0
   10.7351    3.2079    3.3231 N   0  0  0  0  0  0  0  0  0  0  0  0
   11.3711    4.0373    4.1653 C   0  0  0  0  0  0  0  0  0  0  0  0
   12.2861    3.7312    5.1020 N   0  0  0  0  0  0  0  0  0  0  0  0
   12.5233    2.4075    5.1444 C   0  0  0  0  0  0  0  0  0  0  0  0
   11.9372    1.4518    4.3348 C   0  0  0  0  0  0  0  0  0  0  0  0
   12.4377    0.1905    4.7514 C   0  0  0  0  0  0  0  0  0  0  0  0
   12.1182   -1.1006    4.1359 C   0  0  0  0  0  0  0  0  0  0  0  0
   11.6090   -2.1744    4.8690 C   0  0  0  0  0  0  0  0  0  0  0  0
   11.8827   -3.4654    4.4042 C   0  0  0  0  0  0  0  0  0  0  0  0
   12.1717   -3.6656    3.0629 C   0  0  0  0  0  0  0  0  0  0  0  0
   12.2525   -2.5696    2.2187 C   0  0  0  0  0  0  0  0  0  0  0  0
   12.3904   -1.3065    2.7801 C   0  0  0  0  0  0  0  0  0  0  0  0
   13.3769    0.4440    5.7687 C   0  0  0  0  0  0  0  0  0  0  0  0
   13.4137    1.8043    6.0041 O   0  0  0  0  0  0  0  0  0  0  0  0
   14.2692   -0.4261    6.5862 C   0  0  0  0  0  0  0  0  0  0  0  0
   15.3879   -0.0808    7.3285 C   0  0  0  0  0  0  0  0  0  0  0  0
   16.2098   -1.1094    7.8789 C   0  0  0  0  0  0  0  0  0  0  0  0
   15.8572   -2.4670    7.8317 C   0  0  0  0  0  0  0  0  0  0  0  0
   14.6834   -2.8081    7.2396 C   0  0  0  0  0  0  0  0  0  0  0  0
   14.0197   -1.7955    6.5827 C   0  0  0  0  0  0  0  0  0  0  0  0
    3.5356   -0.0647   -1.3866 H   0  0  0  0  0  0  0  0  0  0  0  0
    2.4454   -3.1039   -1.7536 H   0  0  0  0  0  0  0  0  0  0  0  0
    1.7845   -3.9728   -3.9812 H   0  0  0  0  0  0  0  0  0  0  0  0
    0.8459   -2.4164   -5.6767 H   0  0  0  0  0  0  0  0  0  0  0  0
    0.5849   -0.0004   -5.1460 H   0  0  0  0  0  0  0  0  0  0  0  0
    1.5669    0.9047   -3.0535 H   0  0  0  0  0  0  0  0  0  0  0  0
    2.3573    0.8889    1.6504 H   0  0  0  0  0  0  0  0  0  0  0  0
    4.5534   -1.4753   -0.1883 H   0  0  0  0  0  0  0  0  0  0  0  0
    6.9274   -1.5330    0.0210 H   0  0  0  0  0  0  0  0  0  0  0  0
    6.7496    2.0977    2.3820 H   0  0  0  0  0  0  0  0  0  0  0  0
    4.3546    2.0724    2.3049 H   0  0  0  0  0  0  0  0  0  0  0  0
    9.0150    0.0062    0.5138 H   0  0  0  0  0  0  0  0  0  0  0  0
    8.6484   -0.9029    1.9815 H   0  0  0  0  0  0  0  0  0  0  0  0
    8.5876    1.1452    3.3247 H   0  0  0  0  0  0  0  0  0  0  0  0
    8.8214    2.1523    1.8589 H   0  0  0  0  0  0  0  0  0  0  0  0
   10.7414    0.0912    2.4705 H   0  0  0  0  0  0  0  0  0  0  0  0
   11.1055    5.0844    4.0490 H   0  0  0  0  0  0  0  0  0  0  0  0
   11.3249   -2.0426    5.9160 H   0  0  0  0  0  0  0  0  0  0  0  0
   11.9641   -4.2931    5.1085 H   0  0  0  0  0  0  0  0  0  0  0  0
   12.3470   -4.6664    2.6819 H   0  0  0  0  0  0  0  0  0  0  0  0
   12.3005   -2.6982    1.1436 H   0  0  0  0  0  0  0  0  0  0  0  0
   12.6858   -0.4758    2.1406 H   0  0  0  0  0  0  0  0  0  0  0  0
   15.6861    0.9561    7.4521 H   0  0  0  0  0  0  0  0  0  0  0  0
   17.1609   -0.8588    8.3368 H   0  0  0  0  0  0  0  0  0  0  0  0
   16.4895   -3.2623    8.2078 H   0  0  0  0  0  0  0  0  0  0  0  0
   14.2972   -3.8204    7.1569 H   0  0  0  0  0  0  0  0  0  0  0  0
   13.3135   -2.1972    5.9286 H   0  0  0  0  0  0  0  0  0  0  0  0
  1  2  2  0  0  0  0
  2  3  1  0  0  0  0
  2 10  1  0  0  0  0
  3  4  1  0  0  0  0
  3 41  1  0  0  0  0
  4  5  2  0  0  0  0
  4  9  1  0  0  0  0
  5  6  1  0  0  0  0
  5 42  1  0  0  0  0
  6  7  2  0  0  0  0
  6 43  1  0  0  0  0
  7  8  1  0  0  0  0
  7 44  1  0  0  0  0
  8  9  2  0  0  0  0
  8 45  1  0  0  0  0
  9 46  1  0  0  0  0
 10 11  1  0  0  0  0
 10 47  1  0  0  0  0
 11 12  2  0  0  0  0
 11 16  1  0  0  0  0
 12 13  1  0  0  0  0
 12 48  1  0  0  0  0
 13 14  2  0  0  0  0
 13 49  1  0  0  0  0
 14 15  1  0  0  0  0
 14 17  1  0  0  0  0
 15 16  2  0  0  0  0
 15 50  1  0  0  0  0
 16 51  1  0  0  0  0
 17 18  1  0  0  0  0
 17 52  1  0  0  0  0
 17 53  1  0  0  0  0
 18 19  1  0  0  0  0
 18 54  1  0  0  0  0
 18 55  1  0  0  0  0
 19 20  1  0  0  0  0
 19 56  1  0  0  0  0
 20 21  2  0  0  0  0
 20 25  1  0  0  0  0
 21 22  1  0  0  0  0
 22 23  2  0  0  0  0
 22 57  1  0  0  0  0
 23 24  1  0  0  0  0
 24 25  2  0  0  0  0
 24 34  1  0  0  0  0
 25 26  1  0  0  0  0
 26 27  1  0  0  0  0
 26 33  2  0  0  0  0
 27 28  2  0  0  0  0
 27 32  1  0  0  0  0
 28 29  1  0  0  0  0
 28 58  1  0  0  0  0
 29 30  2  0  0  0  0
 29 59  1  0  0  0  0
 30 31  1  0  0  0  0
 30 60  1  0  0  0  0
 31 32  2  0  0  0  0
 31 61  1  0  0  0  0
 32 62  1  0  0  0  0
 33 34  1  0  0  0  0
 33 35  1  0  0  0  0
 35 36  2  0  0  0  0
 35 40  1  0  0  0  0
 36 37  1  0  0  0  0
 36 63  1  0  0  0  0
 37 38  2  0  0  0  0
 37 64  1  0  0  0  0
 38 39  1  0  0  0  0
 38 65  1  0  0  0  0
 39 40  2  0  0  0  0
 39 66  1  0  0  0  0
 40 67  1  0  0  0  0
M  END
$$$$
