AKV
 OpenBabel04121316073D

 52 54  0  0  1  0  0  0  0  0999 V2000
   -1.8589   -2.9216    2.1023 C   0  0  0  0  0  0  0  0  0  0  0  0
   -1.9119   -1.8929    3.2030 C   0  0  0  0  0  0  0  0  0  0  0  0
   -0.5696   -1.4403    3.8200 C   0  0  1  0  0  0  0  0  0  0  0  0
   -0.0509   -2.2764    4.3057 H   0  0  0  0  0  0  0  0  0  0  0  0
    0.3566   -0.7019    2.8430 C   0  0  0  0  0  0  0  0  0  0  0  0
    1.0340   -1.5912    1.7862 C   0  0  2  0  0  0  0  0  0  0  0  0
    2.1121   -1.3900    1.7407 H   0  0  0  0  0  0  0  0  0  0  0  0
    0.5416   -1.3847    0.3384 C   0  0  0  0  0  0  0  0  0  0  0  0
    0.0705   -2.3200   -0.6434 C   0  0  0  0  0  0  0  0  0  0  0  0
   -0.0859   -3.8477   -0.4748 C   0  0  0  0  0  0  0  0  0  0  0  0
    0.7780   -4.4919    0.5825 C   0  0  0  0  0  0  0  0  0  0  0  0
    1.9846   -4.2053    0.6866 O   0  0  0  0  0  0  0  0  0  0  0  0
    0.1116   -5.2786    1.4772 O   0  0  0  0  0  0  0  0  0  0  0  0
    0.6750   -5.4623    2.8140 C   0  0  0  0  0  0  0  0  0  0  0  0
   -0.3456   -1.8254   -1.9199 C   0  0  0  0  0  0  0  0  0  0  0  0
   -0.2577   -0.4655   -2.2433 C   0  0  0  0  0  0  0  0  0  0  0  0
    0.2294    0.4182   -1.2978 C   0  0  0  0  0  0  0  0  0  0  0  0
    0.6438   -0.0367   -0.0511 C   0  0  0  0  0  0  0  0  0  0  0  0
    1.2284    0.8299    0.8513 O   0  0  0  0  0  0  0  0  0  0  0  0
    0.3412    1.8427   -1.5735 C   0  0  0  0  0  0  0  0  0  0  0  0
    0.7297    2.5794   -0.6660 O   0  0  0  0  0  0  0  0  0  0  0  0
   -0.0138    2.3612   -2.8840 C   0  0  0  0  0  0  0  0  0  0  0  0
   -0.4846    1.4893   -3.8677 C   0  0  0  0  0  0  0  0  0  0  0  0
   -0.6304    0.0367   -3.5871 C   0  0  0  0  0  0  0  0  0  0  0  0
   -1.0381   -0.7290   -4.4464 O   0  0  0  0  0  0  0  0  0  0  0  0
   -0.8213    2.0012   -5.1209 C   0  0  0  0  0  0  0  0  0  0  0  0
   -0.6846    3.3725   -5.3663 C   0  0  0  0  0  0  0  0  0  0  0  0
   -0.2142    4.2366   -4.3738 C   0  0  0  0  0  0  0  0  0  0  0  0
    0.1217    3.7298   -3.1327 C   0  0  0  0  0  0  0  0  0  0  0  0
    0.5837    4.5619   -2.1556 O   0  0  0  0  0  0  0  0  0  0  0  0
    0.9406   -2.8544    2.3784 O   0  0  0  0  0  0  0  0  0  0  0  0
   -0.8662   -0.5138    4.8721 O   0  0  0  0  0  0  0  0  0  0  0  0
   -2.8160   -3.1634    1.6390 H   0  0  0  0  0  0  0  0  0  0  0  0
   -1.4250   -3.8484    2.4580 H   0  0  0  0  0  0  0  0  0  0  0  0
   -1.2795   -2.5208    1.2975 H   0  0  0  0  0  0  0  0  0  0  0  0
   -2.5392   -2.3080    3.9945 H   0  0  0  0  0  0  0  0  0  0  0  0
   -2.4222   -1.0109    2.8049 H   0  0  0  0  0  0  0  0  0  0  0  0
    1.1718   -0.2230    3.4059 H   0  0  0  0  0  0  0  0  0  0  0  0
   -0.2261    0.1204    2.4187 H   0  0  0  0  0  0  0  0  0  0  0  0
    0.2621   -4.3149   -1.4040 H   0  0  0  0  0  0  0  0  0  0  0  0
   -1.1528   -4.1036   -0.3833 H   0  0  0  0  0  0  0  0  0  0  0  0
    0.5885   -6.5060    3.1144 H   0  0  0  0  0  0  0  0  0  0  0  0
    0.0872   -4.8783    3.5387 H   0  0  0  0  0  0  0  0  0  0  0  0
    1.7243   -5.1581    2.9151 H   0  0  0  0  0  0  0  0  0  0  0  0
   -0.7244   -2.5143   -2.6803 H   0  0  0  0  0  0  0  0  0  0  0  0
    1.0916    1.7614    0.5574 H   0  0  0  0  0  0  0  0  0  0  0  0
   -1.1898    1.3424   -5.9055 H   0  0  0  0  0  0  0  0  0  0  0  0
   -0.9476    3.7738   -6.3408 H   0  0  0  0  0  0  0  0  0  0  0  0
   -0.1126    5.2973   -4.5744 H   0  0  0  0  0  0  0  0  0  0  0  0
    0.6318    5.4848   -2.4370 H   0  0  0  0  0  0  0  0  0  0  0  0
    1.7625   -3.3142    2.1293 H   0  0  0  0  0  0  0  0  0  0  0  0
   -1.3451   -1.0203    5.5476 H   0  0  0  0  0  0  0  0  0  0  0  0
  1  2  1  0  0  0  0
  1 33  1  0  0  0  0
  1 34  1  0  0  0  0
  1 35  1  0  0  0  0
  2  3  1  0  0  0  0
  2 36  1  0  0  0  0
  2 37  1  0  0  0  0
  3  4  1  1  0  0  0
  3  5  1  0  0  0  0
  3 32  1  0  0  0  0
  5 38  1  0  0  0  0
  5 39  1  0  0  0  0
  6  8  1  0  0  0  0
  6 31  1  0  0  0  0
  6  7  1  1  0  0  0
  6  5  1  0  0  0  0
  8  9  2  0  0  0  0
  8 18  1  0  0  0  0
  9 10  1  0  0  0  0
  9 15  1  0  0  0  0
 10 11  1  0  0  0  0
 10 40  1  0  0  0  0
 10 41  1  0  0  0  0
 11 12  2  0  0  0  0
 11 13  1  0  0  0  0
 13 14  1  0  0  0  0
 14 42  1  0  0  0  0
 14 43  1  0  0  0  0
 14 44  1  0  0  0  0
 15 16  2  0  0  0  0
 15 45  1  0  0  0  0
 16 17  1  0  0  0  0
 16 24  1  0  0  0  0
 17 18  2  0  0  0  0
 17 20  1  0  0  0  0
 18 19  1  0  0  0  0
 19 46  1  0  0  0  0
 20 21  2  0  0  0  0
 20 22  1  0  0  0  0
 22 23  2  0  0  0  0
 22 29  1  0  0  0  0
 23 24  1  0  0  0  0
 23 26  1  0  0  0  0
 24 25  2  0  0  0  0
 26 27  2  0  0  0  0
 26 47  1  0  0  0  0
 27 28  1  0  0  0  0
 27 48  1  0  0  0  0
 28 29  2  0  0  0  0
 28 49  1  0  0  0  0
 29 30  1  0  0  0  0
 30 50  1  0  0  0  0
 31 51  1  0  0  0  0
 32 52  1  0  0  0  0
M  END
$$$$
