ALI
 OpenBabel04121316073D

 26 27  0  0  1  0  0  0  0  0999 V2000
    1.0776    0.0283   -0.0514 O   0  0  0  0  0  0  0  0  0  0  0  0
    2.4965    0.0134   -0.0676 C   0  0  0  0  0  0  0  0  0  0  0  0
    3.0684    0.0543   -1.4890 C   0  0  2  0  0  0  0  0  0  0  0  0
    3.7110   -0.8340   -1.5586 H   0  0  0  0  0  0  0  0  0  0  0  0
    3.9580    1.2817   -1.7572 C   0  0  1  0  0  0  0  0  0  0  0  0
    3.5962    2.1988   -1.2768 H   0  0  0  0  0  0  0  0  0  0  0  0
    5.2697    1.0401   -1.2538 O   0  0  0  0  0  0  0  0  0  0  0  0
    3.9131    1.4287   -3.2905 C   0  0  1  0  0  0  0  0  0  0  0  0
    4.5551    0.6681   -3.7499 H   0  0  0  0  0  0  0  0  0  0  0  0
    2.4305    1.1651   -3.5939 C   0  0  2  0  0  0  0  0  0  0  0  0
    1.7922    2.0425   -3.4367 H   0  0  0  0  0  0  0  0  0  0  0  0
    2.0750    0.0223   -2.6528 C   0  0  1  0  0  0  0  0  0  0  0  0
    1.0160   -0.0040   -2.3831 H   0  0  0  0  0  0  0  0  0  0  0  0
    2.3388   -1.1233   -3.4598 O   0  0  0  0  0  0  0  0  0  0  0  0
    2.2390   -0.6535   -4.7304 C   0  0  0  0  0  0  0  0  0  0  0  0
    2.2511    0.6220   -4.9499 N   0  0  0  0  0  0  0  0  0  0  0  0
    2.0888   -1.5899   -5.6919 N   0  0  0  0  0  0  0  0  0  0  0  0
    1.1499   -2.4355   -5.4285 C   0  0  0  0  0  0  0  0  0  0  0  0
    4.3864    2.6858   -3.7539 O   0  0  0  0  0  0  0  0  0  0  0  0
    0.8007   -0.1279    0.8708 H   0  0  0  0  0  0  0  0  0  0  0  0
    2.8147   -0.9210    0.4107 H   0  0  0  0  0  0  0  0  0  0  0  0
    2.8582    0.8364    0.5564 H   0  0  0  0  0  0  0  0  0  0  0  0
    5.5754    0.1748   -1.5801 H   0  0  0  0  0  0  0  0  0  0  0  0
    0.9077   -3.2490   -6.1259 H   0  0  0  0  0  0  0  0  0  0  0  0
    0.5456   -2.3849   -4.5045 H   0  0  0  0  0  0  0  0  0  0  0  0
    3.6478    3.3116   -3.8283 H   0  0  0  0  0  0  0  0  0  0  0  0
  1  2  1  0  0  0  0
  1 20  1  0  0  0  0
  2  3  1  0  0  0  0
  2 21  1  0  0  0  0
  2 22  1  0  0  0  0
  3  5  1  0  0  0  0
  3 12  1  0  0  0  0
  3  4  1  6  0  0  0
  5  8  1  0  0  0  0
  5  6  1  1  0  0  0
  5  7  1  0  0  0  0
  7 23  1  0  0  0  0
  8 10  1  0  0  0  0
  8 19  1  0  0  0  0
  8  9  1  6  0  0  0
 10 12  1  0  0  0  0
 10 16  1  0  0  0  0
 10 11  1  1  0  0  0
 12 14  1  0  0  0  0
 12 13  1  1  0  0  0
 14 15  1  0  0  0  0
 15 16  2  0  0  0  0
 15 17  1  0  0  0  0
 17 18  2  0  0  0  0
 18 24  1  0  0  0  0
 18 25  1  0  0  0  0
 19 26  1  0  0  0  0
M  END
$$$$
