AM1
 OpenBabel04121316073D

 25 25  0  0  1  0  0  0  0  0999 V2000
    1.0502    0.0193   -0.0225 N   0  0  0  0  0  0  0  0  0  0  0  0
    2.5268    0.0786    0.0249 C   0  0  1  0  0  0  0  0  0  0  0  0
    2.8323    1.1043   -0.1716 H   0  0  0  0  0  0  0  0  0  0  0  0
    3.0361   -0.3617    1.4133 C   0  0  0  0  0  0  0  0  0  0  0  0
    3.6644   -1.3866    1.6334 O   0  0  0  0  0  0  0  0  0  0  0  0
    2.6684    0.4752    2.4074 O   0  0  0  0  0  0  0  0  0  0  0  0
    3.0948   -0.8656   -1.0352 C   0  0  0  0  0  0  0  0  0  0  0  0
    4.5837   -0.9567   -1.0847 C   0  0  0  0  0  0  0  0  0  0  0  0
    5.4959    0.0918   -1.0876 C   0  0  0  0  0  0  0  0  0  0  0  0
    5.4258    1.5768   -1.0705 C   0  0  0  0  0  0  0  0  0  0  0  0
    6.7504   -0.4198   -1.0711 O   0  0  0  0  0  0  0  0  0  0  0  0
    6.6999   -1.7887   -1.0696 N   0  0  0  0  0  0  0  0  0  0  0  0
    5.4020   -2.1512   -1.0648 C   0  0  0  0  0  0  0  0  0  0  0  0
    5.0826   -3.6040   -1.0286 C   0  0  0  0  0  0  0  0  0  0  0  0
    5.9449   -4.4813   -0.9956 O   0  0  0  0  0  0  0  0  0  0  0  0
    3.7829   -4.0097   -1.0682 O   0  0  0  0  0  0  0  0  0  0  0  0
    0.6276    0.6570    0.6459 H   0  0  0  0  0  0  0  0  0  0  0  0
    0.7333   -0.9173    0.2440 H   0  0  0  0  0  0  0  0  0  0  0  0
    2.1576    1.2468    2.1054 H   0  0  0  0  0  0  0  0  0  0  0  0
    2.7136   -0.6630   -2.0435 H   0  0  0  0  0  0  0  0  0  0  0  0
    2.6743   -1.8212   -0.7474 H   0  0  0  0  0  0  0  0  0  0  0  0
    4.3979    1.9391   -1.0985 H   0  0  0  0  0  0  0  0  0  0  0  0
    5.9277    2.0135   -1.9393 H   0  0  0  0  0  0  0  0  0  0  0  0
    5.8903    1.9910   -0.1674 H   0  0  0  0  0  0  0  0  0  0  0  0
    3.0927   -3.3538   -1.2009 H   0  0  0  0  0  0  0  0  0  0  0  0
  1  2  1  0  0  0  0
  1 17  1  0  0  0  0
  1 18  1  0  0  0  0
  2  3  1  6  0  0  0
  2  4  1  0  0  0  0
  2  7  1  0  0  0  0
  4  5  2  0  0  0  0
  4  6  1  0  0  0  0
  6 19  1  0  0  0  0
  7  8  1  0  0  0  0
  7 20  1  0  0  0  0
  7 21  1  0  0  0  0
  8  9  2  0  0  0  0
  8 13  1  0  0  0  0
  9 10  1  0  0  0  0
  9 11  1  0  0  0  0
 10 22  1  0  0  0  0
 10 23  1  0  0  0  0
 10 24  1  0  0  0  0
 11 12  1  0  0  0  0
 12 13  2  0  0  0  0
 13 14  1  0  0  0  0
 14 15  2  0  0  0  0
 14 16  1  0  0  0  0
 16 25  1  0  0  0  0
M  END
$$$$
