AM8
 OpenBabel04121316073D

 53 56  0  0  0  0  0  0  0  0999 V2000
    0.8679   -0.1059    0.0318 Cl  0  0  0  0  0  0  0  0  0  0  0  0
    2.5840   -0.1356    0.0228 C   0  0  0  0  0  0  0  0  0  0  0  0
    3.2808    1.0587    0.0163 C   0  0  0  0  0  0  0  0  0  0  0  0
    4.6255    0.9998    0.3059 C   0  0  0  0  0  0  0  0  0  0  0  0
    5.2612   -0.2410    0.4444 C   0  0  0  0  0  0  0  0  0  0  0  0
    4.6576   -1.4027    0.0328 C   0  0  0  0  0  0  0  0  0  0  0  0
    3.2646   -1.3617    0.0508 C   0  0  0  0  0  0  0  0  0  0  0  0
    5.4401   -2.5485   -0.3767 N   0  0  0  0  0  0  0  0  0  0  0  0
    7.1230   -2.5390   -0.8671 S   0  0  0  0  0  0  0  0  0  0  0  0
    7.8280   -3.1790    0.2337 O   0  0  0  0  0  0  0  0  0  0  0  0
    7.1709   -3.1817   -2.1690 O   0  0  0  0  0  0  0  0  0  0  0  0
    7.8558   -0.9265   -1.1041 C   0  0  0  0  0  0  0  0  0  0  0  0
    7.0688    0.2578   -1.4581 C   0  0  0  0  0  0  0  0  0  0  0  0
    7.4072    1.5016   -1.0889 C   0  0  0  0  0  0  0  0  0  0  0  0
    8.8058    1.7164   -0.8549 C   0  0  0  0  0  0  0  0  0  0  0  0
    9.3292    2.8730   -0.7829 N   0  0  0  0  0  0  0  0  0  0  0  0
   10.6623    2.6263   -0.8343 C   0  0  0  0  0  0  0  0  0  0  0  0
   11.4634    3.5181   -0.8972 O   0  0  0  0  0  0  0  0  0  0  0  0
   10.8865    1.1355   -0.8683 C   0  0  0  0  0  0  0  0  0  0  0  0
    9.6895    0.5640   -0.8751 C   0  0  0  0  0  0  0  0  0  0  0  0
    9.1863   -0.7828   -0.9077 C   0  0  0  0  0  0  0  0  0  0  0  0
   12.1398    0.3593   -0.9382 C   0  0  0  0  0  0  0  0  0  0  0  0
   13.4334    1.0675   -0.9837 C   0  0  0  0  0  0  0  0  0  0  0  0
   13.5753    2.4219   -1.0069 N   0  0  0  0  0  0  0  0  0  0  0  0
   12.8404    3.1122   -1.0037 H   0  0  0  0  0  0  0  0  0  0  0  0
   14.8702    2.7918   -1.0167 C   0  0  0  0  0  0  0  0  0  0  0  0
   15.6020    1.6351   -1.0299 C   0  0  0  0  0  0  0  0  0  0  0  0
   14.7018    0.5392   -1.0146 C   0  0  0  0  0  0  0  0  0  0  0  0
   15.0422   -0.8968   -1.0268 C   0  0  0  0  0  0  0  0  0  0  0  0
   17.0624    1.5635   -1.0573 C   0  0  0  0  0  0  0  0  0  0  0  0
   15.2581    4.2152   -1.0211 C   0  0  0  0  0  0  0  0  0  0  0  0
    4.8133   -3.8877   -0.3734 C   0  0  0  0  0  0  0  0  0  0  0  0
    2.7938    2.0212   -0.1027 H   0  0  0  0  0  0  0  0  0  0  0  0
    5.1990    1.9174    0.3884 H   0  0  0  0  0  0  0  0  0  0  0  0
    6.2981   -0.2822    0.7464 H   0  0  0  0  0  0  0  0  0  0  0  0
    2.6702   -2.2596    0.1557 H   0  0  0  0  0  0  0  0  0  0  0  0
    6.0789    0.1031   -1.8587 H   0  0  0  0  0  0  0  0  0  0  0  0
    6.7915    2.3896   -1.1068 H   0  0  0  0  0  0  0  0  0  0  0  0
    9.8575   -1.6221   -0.7356 H   0  0  0  0  0  0  0  0  0  0  0  0
   12.0939   -0.3108   -1.8140 H   0  0  0  0  0  0  0  0  0  0  0  0
   12.1615   -0.3235   -0.0735 H   0  0  0  0  0  0  0  0  0  0  0  0
   16.1245   -1.0305   -1.0537 H   0  0  0  0  0  0  0  0  0  0  0  0
   14.6079   -1.3730   -1.9109 H   0  0  0  0  0  0  0  0  0  0  0  0
   14.6500   -1.3805   -0.1274 H   0  0  0  0  0  0  0  0  0  0  0  0
   17.4916    2.5674   -1.0647 H   0  0  0  0  0  0  0  0  0  0  0  0
   17.3669    1.0358   -1.9626 H   0  0  0  0  0  0  0  0  0  0  0  0
   17.4015    1.0337   -0.1658 H   0  0  0  0  0  0  0  0  0  0  0  0
   14.3937    4.8884   -1.0033 H   0  0  0  0  0  0  0  0  0  0  0  0
   15.8372    4.4242   -1.9237 H   0  0  0  0  0  0  0  0  0  0  0  0
   15.8716    4.4220   -0.1409 H   0  0  0  0  0  0  0  0  0  0  0  0
    3.7466   -3.8518   -0.1530 H   0  0  0  0  0  0  0  0  0  0  0  0
    5.2566   -4.5147    0.4033 H   0  0  0  0  0  0  0  0  0  0  0  0
    4.8901   -4.3622   -1.3553 H   0  0  0  0  0  0  0  0  0  0  0  0
  1  2  1  0  0  0  0
  2  3  2  0  0  0  0
  2  7  1  0  0  0  0
  3  4  1  0  0  0  0
  3 33  1  0  0  0  0
  4  5  2  0  0  0  0
  4 34  1  0  0  0  0
  5  6  1  0  0  0  0
  5 35  1  0  0  0  0
  6  7  2  0  0  0  0
  6  8  1  0  0  0  0
  7 36  1  0  0  0  0
  8  9  1  0  0  0  0
  8 32  1  0  0  0  0
  9 10  2  0  0  0  0
  9 11  2  0  0  0  0
  9 12  1  0  0  0  0
 12 13  1  0  0  0  0
 12 21  2  0  0  0  0
 13 14  2  0  0  0  0
 13 37  1  0  0  0  0
 14 15  1  0  0  0  0
 14 38  1  0  0  0  0
 15 16  2  0  0  0  0
 15 20  1  0  0  0  0
 16 17  1  0  0  0  0
 17 18  2  0  0  0  0
 17 19  1  0  0  0  0
 19 20  2  0  0  0  0
 19 22  1  0  0  0  0
 20 21  1  0  0  0  0
 21 39  1  0  0  0  0
 22 23  1  0  0  0  0
 22 40  1  0  0  0  0
 22 41  1  0  0  0  0
 23 24  1  0  0  0  0
 23 28  2  0  0  0  0
 24 25  1  0  0  0  0
 24 26  1  0  0  0  0
 26 27  2  0  0  0  0
 26 31  1  0  0  0  0
 27 28  1  0  0  0  0
 27 30  1  0  0  0  0
 28 29  1  0  0  0  0
 29 42  1  0  0  0  0
 29 43  1  0  0  0  0
 29 44  1  0  0  0  0
 30 45  1  0  0  0  0
 30 46  1  0  0  0  0
 30 47  1  0  0  0  0
 31 48  1  0  0  0  0
 31 49  1  0  0  0  0
 31 50  1  0  0  0  0
 32 51  1  0  0  0  0
 32 52  1  0  0  0  0
 32 53  1  0  0  0  0
M  END
$$$$
