AMG
 OpenBabel04121316073D

 27 27  0  0  1  0  0  0  0  0999 V2000
    0.8636    0.1242    0.1008 C   0  0  0  0  0  0  0  0  0  0  0  0
    2.2768   -0.0131    0.0298 O   0  0  0  0  0  0  0  0  0  0  0  0
    2.8119   -0.8220    1.0957 C   0  0  1  0  0  0  0  0  0  0  0  0
    2.6442   -0.2916    2.0412 H   0  0  0  0  0  0  0  0  0  0  0  0
    2.1594   -2.0952    1.1583 O   0  0  0  0  0  0  0  0  0  0  0  0
    2.3325   -2.8585   -0.0435 C   0  0  2  0  0  0  0  0  0  0  0  0
    1.9237   -2.2948   -0.8915 H   0  0  0  0  0  0  0  0  0  0  0  0
    1.5171   -4.1482    0.0602 C   0  0  0  0  0  0  0  0  0  0  0  0
    1.6730   -4.9338   -1.1180 O   0  0  0  0  0  0  0  0  0  0  0  0
    3.8193   -3.1235   -0.3247 C   0  0  1  0  0  0  0  0  0  0  0  0
    3.9517   -3.6849   -1.2556 H   0  0  0  0  0  0  0  0  0  0  0  0
    4.5509   -1.7744   -0.4334 C   0  0  1  0  0  0  0  0  0  0  0  0
    4.1559   -1.2080   -1.2861 H   0  0  0  0  0  0  0  0  0  0  0  0
    4.3374   -0.9663    0.8606 C   0  0  1  0  0  0  0  0  0  0  0  0
    4.8104   -1.4834    1.7029 H   0  0  0  0  0  0  0  0  0  0  0  0
    4.9501    0.3316    0.7651 O   0  0  0  0  0  0  0  0  0  0  0  0
    5.9423   -1.9596   -0.7095 O   0  0  0  0  0  0  0  0  0  0  0  0
    4.4097   -3.8996    0.7241 O   0  0  0  0  0  0  0  0  0  0  0  0
    0.5489    0.7778   -0.7166 H   0  0  0  0  0  0  0  0  0  0  0  0
    0.5539    0.5576    1.0542 H   0  0  0  0  0  0  0  0  0  0  0  0
    0.3718   -0.8420   -0.0482 H   0  0  0  0  0  0  0  0  0  0  0  0
    0.4529   -3.9275    0.1995 H   0  0  0  0  0  0  0  0  0  0  0  0
    1.8226   -4.7471    0.9233 H   0  0  0  0  0  0  0  0  0  0  0  0
    1.3302   -4.4184   -1.8673 H   0  0  0  0  0  0  0  0  0  0  0  0
    4.5358    0.7739    0.0045 H   0  0  0  0  0  0  0  0  0  0  0  0
    6.0153   -2.5999   -1.4413 H   0  0  0  0  0  0  0  0  0  0  0  0
    3.9546   -4.7607    0.7578 H   0  0  0  0  0  0  0  0  0  0  0  0
  1  2  1  0  0  0  0
  1 19  1  0  0  0  0
  1 20  1  0  0  0  0
  1 21  1  0  0  0  0
  2  3  1  0  0  0  0
  3  4  1  1  0  0  0
  3  5  1  0  0  0  0
  3 14  1  0  0  0  0
  5  6  1  0  0  0  0
  6  7  1  6  0  0  0
  6  8  1  0  0  0  0
  6 10  1  0  0  0  0
  8  9  1  0  0  0  0
  8 22  1  0  0  0  0
  8 23  1  0  0  0  0
  9 24  1  0  0  0  0
 10 11  1  6  0  0  0
 10 12  1  0  0  0  0
 10 18  1  0  0  0  0
 12 13  1  6  0  0  0
 12 14  1  0  0  0  0
 12 17  1  0  0  0  0
 14 16  1  0  0  0  0
 14 15  1  1  0  0  0
 16 25  1  0  0  0  0
 17 26  1  0  0  0  0
 18 27  1  0  0  0  0
M  END
$$$$
