AMI
 OpenBabel04121316073D

 31 32  0  0  1  0  0  0  0  0999 V2000
    0.6548    0.2927    0.0574 O   0  0  0  0  0  0  0  0  0  0  0  0
    2.0291    0.0735   -0.0829 C   0  0  0  0  0  0  0  0  0  0  0  0
    2.9768    1.2587   -0.3279 C   0  0  2  0  0  0  0  0  0  0  0  0
    3.2023    1.6101    0.6851 H   0  0  0  0  0  0  0  0  0  0  0  0
    2.8206    2.5708   -1.1662 C   0  0  1  0  0  0  0  0  0  0  0  0
    2.1103    2.5509   -2.0000 H   0  0  0  0  0  0  0  0  0  0  0  0
    2.4558    3.6961   -0.3534 O   0  0  0  0  0  0  0  0  0  0  0  0
    4.2722    2.7906   -1.7217 C   0  0  1  0  0  0  0  0  0  0  0  0
    4.9305    3.2058   -0.9452 H   0  0  0  0  0  0  0  0  0  0  0  0
    4.6444    1.3740   -2.1050 C   0  0  2  0  0  0  0  0  0  0  0  0
    4.1673    1.0682   -3.0442 H   0  0  0  0  0  0  0  0  0  0  0  0
    4.1688    0.5512   -0.9585 C   0  0  1  0  0  0  0  0  0  0  0  0
    3.9771   -0.4662   -1.3166 H   0  0  0  0  0  0  0  0  0  0  0  0
    5.2690    0.4767   -0.0857 O   0  0  0  0  0  0  0  0  0  0  0  0
    6.2999    0.5771   -0.9697 C   0  0  0  0  0  0  0  0  0  0  0  0
    6.0800    1.1111   -2.1228 N   0  0  0  0  0  0  0  0  0  0  0  0
    7.4753    0.0065   -0.5450 N   0  0  0  0  0  0  0  0  0  0  0  0
    8.3499   -0.4113   -1.6340 C   0  0  0  0  0  0  0  0  0  0  0  0
    7.4876   -0.8596    0.6275 C   0  0  0  0  0  0  0  0  0  0  0  0
    4.3534    3.6353   -2.8676 O   0  0  0  0  0  0  0  0  0  0  0  0
    0.2840   -0.6078    0.1752 H   0  0  0  0  0  0  0  0  0  0  0  0
    2.1372   -0.7256   -0.8277 H   0  0  0  0  0  0  0  0  0  0  0  0
    2.3840   -0.3788    0.8573 H   0  0  0  0  0  0  0  0  0  0  0  0
    2.5248    3.4668    0.5879 H   0  0  0  0  0  0  0  0  0  0  0  0
    9.3412   -0.6907   -1.2723 H   0  0  0  0  0  0  0  0  0  0  0  0
    8.4789    0.3979   -2.3613 H   0  0  0  0  0  0  0  0  0  0  0  0
    7.9011   -1.2674   -2.1523 H   0  0  0  0  0  0  0  0  0  0  0  0
    8.5126   -1.1207    0.9105 H   0  0  0  0  0  0  0  0  0  0  0  0
    6.9411   -1.7881    0.4234 H   0  0  0  0  0  0  0  0  0  0  0  0
    7.0290   -0.3722    1.4958 H   0  0  0  0  0  0  0  0  0  0  0  0
    4.8820    3.1634   -3.5408 H   0  0  0  0  0  0  0  0  0  0  0  0
  1  2  1  0  0  0  0
  1 21  1  0  0  0  0
  2  3  1  0  0  0  0
  2 22  1  0  0  0  0
  2 23  1  0  0  0  0
  3  5  1  0  0  0  0
  3 12  1  0  0  0  0
  3  4  1  1  0  0  0
  5  8  1  0  0  0  0
  5  6  1  6  0  0  0
  5  7  1  0  0  0  0
  7 24  1  0  0  0  0
  8 10  1  0  0  0  0
  8 20  1  0  0  0  0
  8  9  1  1  0  0  0
 10 12  1  0  0  0  0
 10 16  1  0  0  0  0
 10 11  1  6  0  0  0
 12 14  1  0  0  0  0
 12 13  1  6  0  0  0
 14 15  1  0  0  0  0
 15 16  2  0  0  0  0
 15 17  1  0  0  0  0
 17 18  1  0  0  0  0
 17 19  1  0  0  0  0
 18 25  1  0  0  0  0
 18 26  1  0  0  0  0
 18 27  1  0  0  0  0
 19 28  1  0  0  0  0
 19 29  1  0  0  0  0
 19 30  1  0  0  0  0
 20 31  1  0  0  0  0
M  END
$$$$
