AMM
 OpenBabel04121316073D

 32 31  0  0  1  0  0  0  0  0999 V2000
    0.6009    0.0649    0.8961 N   0  0  0  0  0  0  0  0  0  0  0  0
    2.0266    0.3214    1.2311 C   0  0  0  0  0  0  0  0  0  0  0  0
    2.8924    2.1902    0.3164 Si  0  0  0  0  0  0  0  0  0  0  0  0
    2.4139    2.4863   -1.8794 C   0  0  0  0  0  0  0  0  0  0  0  0
    2.9432    1.4344   -3.1476 C   0  0  1  0  0  0  0  0  0  0  0  0
    4.0522    1.4757   -3.1588 H   0  0  0  0  0  0  0  0  0  0  0  0
    2.4839   -0.1606   -3.1828 C   0  0  0  0  0  0  0  0  0  0  0  0
    3.1531   -1.0431   -2.1218 C   0  0  0  0  0  0  0  0  0  0  0  0
    2.9967   -0.1108   -1.0693 C   0  0  0  0  0  0  0  0  0  0  0  0
    2.4953   -2.2664   -1.5053 C   0  0  0  0  0  0  0  0  0  0  0  0
    2.4806    1.9271   -4.4824 C   0  0  0  0  0  0  0  0  0  0  0  0
    2.7761    1.3063   -5.5611 O   0  0  0  0  0  0  0  0  0  0  0  0
    2.3044    3.4404    1.2099 O   0  0  0  0  0  0  0  0  0  0  0  0
    4.5874    2.0674    0.2550 O   0  0  0  0  0  0  0  0  0  0  0  0
    0.5063   -0.9658    0.8263 H   0  0  0  0  0  0  0  0  0  0  0  0
    0.3512    0.3197   -0.0618 H   0  0  0  0  0  0  0  0  0  0  0  0
    2.5227   -0.6077    0.9340 H   0  0  0  0  0  0  0  0  0  0  0  0
    2.3148    0.2891    2.2862 H   0  0  0  0  0  0  0  0  0  0  0  0
    2.8759    3.4843   -2.0369 H   0  0  0  0  0  0  0  0  0  0  0  0
    1.3307    2.5825   -1.8408 H   0  0  0  0  0  0  0  0  0  0  0  0
    2.7209   -0.6468   -4.1301 H   0  0  0  0  0  0  0  0  0  0  0  0
    1.3903   -0.1571   -3.0676 H   0  0  0  0  0  0  0  0  0  0  0  0
    4.2421   -1.1107   -2.1873 H   0  0  0  0  0  0  0  0  0  0  0  0
    1.9214    0.1426   -0.9899 H   0  0  0  0  0  0  0  0  0  0  0  0
    3.5055    0.7508   -1.3960 H   0  0  0  0  0  0  0  0  0  0  0  0
    3.6648   -0.3125   -0.2485 H   0  0  0  0  0  0  0  0  0  0  0  0
    1.4135   -2.1372   -1.3672 H   0  0  0  0  0  0  0  0  0  0  0  0
    2.8864   -2.4532   -0.4842 H   0  0  0  0  0  0  0  0  0  0  0  0
    2.7148   -3.1393   -2.1026 H   0  0  0  0  0  0  0  0  0  0  0  0
    1.8195    2.7787   -4.5228 H   0  0  0  0  0  0  0  0  0  0  0  0
    1.3556    3.3091    1.3635 H   0  0  0  0  0  0  0  0  0  0  0  0
    4.9795    1.5470   -0.4781 H   0  0  0  0  0  0  0  0  0  0  0  0
  1  2  1  0  0  0  0
  1 15  1  0  0  0  0
  1 16  1  0  0  0  0
  2  3  1  0  0  0  0
  2 17  1  0  0  0  0
  2 18  1  0  0  0  0
  3  4  1  0  0  0  0
  3 13  1  0  0  0  0
  3 14  1  0  0  0  0
  4  5  1  0  0  0  0
  4 19  1  0  0  0  0
  4 20  1  0  0  0  0
  5  6  1  6  0  0  0
  5  7  1  0  0  0  0
  5 11  1  0  0  0  0
  7  8  1  0  0  0  0
  7 21  1  0  0  0  0
  7 22  1  0  0  0  0
  8  9  1  0  0  0  0
  8 10  1  0  0  0  0
  8 23  1  0  0  0  0
  9 24  1  0  0  0  0
  9 25  1  0  0  0  0
  9 26  1  0  0  0  0
 10 27  1  0  0  0  0
 10 28  1  0  0  0  0
 10 29  1  0  0  0  0
 11 12  2  0  0  0  0
 11 30  1  0  0  0  0
 13 31  1  0  0  0  0
 14 32  1  0  0  0  0
M  END
$$$$
