AMQ
 OpenBabel04121316073D

 23 23  0  0  1  0  0  0  0  0999 V2000
    3.1200    1.8676   -2.9460 O   0  0  0  0  0  0  0  0  0  0  0  0
    2.7689    0.7923   -2.2069 C   0  0  0  0  0  0  0  0  0  0  0  0
    2.1209   -0.1204   -2.7065 O   0  0  0  0  0  0  0  0  0  0  0  0
    3.1640    0.9225   -0.7331 C   0  0  2  0  0  0  0  0  0  0  0  0
    2.7092    0.1128   -0.1633 H   0  0  0  0  0  0  0  0  0  0  0  0
    2.6386    2.2554   -0.1973 C   0  0  0  0  0  0  0  0  0  0  0  0
    1.1648    2.4423   -0.3448 C   0  0  0  0  0  0  0  0  0  0  0  0
    0.1034    1.5556   -0.4636 C   0  0  0  0  0  0  0  0  0  0  0  0
   -0.0613    0.0749   -0.4852 C   0  0  0  0  0  0  0  0  0  0  0  0
   -1.0545    2.2746   -0.6231 O   0  0  0  0  0  0  0  0  0  0  0  0
   -0.7698    3.6420   -0.6008 N   0  0  0  0  0  0  0  0  0  0  0  0
    0.5425    3.6938   -0.4325 C   0  0  0  0  0  0  0  0  0  0  0  0
    1.1294    4.8934   -0.3776 O   0  0  0  0  0  0  0  0  0  0  0  0
    4.6181    0.7524   -0.5638 N   0  0  0  0  0  0  0  0  0  0  0  0
    2.6281    1.7618   -3.7872 H   0  0  0  0  0  0  0  0  0  0  0  0
    3.1449    3.0792   -0.7246 H   0  0  0  0  0  0  0  0  0  0  0  0
    2.9004    2.3784    0.8606 H   0  0  0  0  0  0  0  0  0  0  0  0
    0.8771   -0.4602   -0.3515 H   0  0  0  0  0  0  0  0  0  0  0  0
   -0.4762   -0.2712   -1.4381 H   0  0  0  0  0  0  0  0  0  0  0  0
   -0.7106   -0.2706    0.3237 H   0  0  0  0  0  0  0  0  0  0  0  0
    0.4327    5.5641   -0.4631 H   0  0  0  0  0  0  0  0  0  0  0  0
    4.8528    0.8700    0.4210 H   0  0  0  0  0  0  0  0  0  0  0  0
    5.1011    1.4887   -1.0764 H   0  0  0  0  0  0  0  0  0  0  0  0
  1  2  1  0  0  0  0
  1 15  1  0  0  0  0
  2  3  2  0  0  0  0
  4  6  1  0  0  0  0
  4 14  1  0  0  0  0
  4  5  1  1  0  0  0
  4  2  1  0  0  0  0
  6  7  1  0  0  0  0
  6 16  1  0  0  0  0
  6 17  1  0  0  0  0
  7  8  2  0  0  0  0
  7 12  1  0  0  0  0
  8  9  1  0  0  0  0
  8 10  1  0  0  0  0
  9 18  1  0  0  0  0
  9 19  1  0  0  0  0
  9 20  1  0  0  0  0
 10 11  1  0  0  0  0
 11 12  2  0  0  0  0
 12 13  1  0  0  0  0
 13 21  1  0  0  0  0
 14 22  1  0  0  0  0
 14 23  1  0  0  0  0
M  END
$$$$
