AN0
 OpenBabel04121316073D

 24 23  0  0  1  0  0  0  0  0999 V2000
    0.9404    0.0501    0.0135 C   0  0  0  0  0  0  0  0  0  0  0  0
    2.4515    0.0800    0.0015 C   0  0  0  0  0  0  0  0  0  0  0  0
    3.0622    0.1655    1.4000 C   0  0  0  0  0  0  0  0  0  0  0  0
    4.6012    0.1992    1.3822 C   0  0  1  0  0  0  0  0  0  0  0  0
    5.0049   -0.6876    0.8777 H   0  0  0  0  0  0  0  0  0  0  0  0
    5.1392    1.4784    0.6773 C   0  0  0  0  0  0  0  0  0  0  0  0
    5.6618    2.4255    1.2626 O   0  0  0  0  0  0  0  0  0  0  0  0
    4.9703    1.5205   -0.6654 O   0  0  0  0  0  0  0  0  0  0  0  0
    5.1085    0.1606    2.7614 N   0  0  0  0  0  0  0  0  0  0  0  0
    6.4674    0.1174    2.9848 C   0  0  0  0  0  0  0  0  0  0  0  0
    7.2835   -0.0162    2.0777 O   0  0  0  0  0  0  0  0  0  0  0  0
    6.8921    0.2493    4.4217 C   0  0  0  0  0  0  0  0  0  0  0  0
    0.5739    0.0171   -1.0179 H   0  0  0  0  0  0  0  0  0  0  0  0
    0.5537    0.9624    0.4782 H   0  0  0  0  0  0  0  0  0  0  0  0
    0.5604   -0.8191    0.5530 H   0  0  0  0  0  0  0  0  0  0  0  0
    2.7045    0.9716   -0.5739 H   0  0  0  0  0  0  0  0  0  0  0  0
    2.8464   -0.7959   -0.5268 H   0  0  0  0  0  0  0  0  0  0  0  0
    2.7196   -0.6950    1.9921 H   0  0  0  0  0  0  0  0  0  0  0  0
    2.6804    1.0599    1.9088 H   0  0  0  0  0  0  0  0  0  0  0  0
    4.5705    0.7338   -1.0781 H   0  0  0  0  0  0  0  0  0  0  0  0
    4.4759    0.3096    3.5374 H   0  0  0  0  0  0  0  0  0  0  0  0
    6.0404    0.2917    5.1053 H   0  0  0  0  0  0  0  0  0  0  0  0
    7.4843    1.1617    4.5426 H   0  0  0  0  0  0  0  0  0  0  0  0
    7.5050   -0.6190    4.6770 H   0  0  0  0  0  0  0  0  0  0  0  0
  1  2  1  0  0  0  0
  1 13  1  0  0  0  0
  1 14  1  0  0  0  0
  1 15  1  0  0  0  0
  2  3  1  0  0  0  0
  2 16  1  0  0  0  0
  2 17  1  0  0  0  0
  3  4  1  0  0  0  0
  3 18  1  0  0  0  0
  3 19  1  0  0  0  0
  4  5  1  6  0  0  0
  4  6  1  0  0  0  0
  4  9  1  0  0  0  0
  6  7  2  0  0  0  0
  6  8  1  0  0  0  0
  8 20  1  0  0  0  0
  9 10  1  0  0  0  0
  9 21  1  0  0  0  0
 10 11  2  0  0  0  0
 10 12  1  0  0  0  0
 12 22  1  0  0  0  0
 12 23  1  0  0  0  0
 12 24  1  0  0  0  0
M  END
$$$$
