ANC
 OpenBabel04121316073D

 26 28  0  0  0  0  0  0  0  0999 V2000
    0.9103   -0.0683    0.1981 N   0  0  0  0  0  0  0  0  0  0  0  0
    2.2947   -0.0538   -0.0078 C   0  0  0  0  0  0  0  0  0  0  0  0
    3.0211   -1.2170    0.2814 C   0  0  0  0  0  0  0  0  0  0  0  0
    4.4151   -1.2193    0.2830 C   0  0  0  0  0  0  0  0  0  0  0  0
    5.1151   -0.0473    0.0087 C   0  0  0  0  0  0  0  0  0  0  0  0
    4.4212    1.1476   -0.2271 C   0  0  0  0  0  0  0  0  0  0  0  0
    3.0073    1.1520   -0.2330 C   0  0  0  0  0  0  0  0  0  0  0  0
    2.3501    2.3853   -0.3917 C   0  0  0  0  0  0  0  0  0  0  0  0
    3.0483    3.5830   -0.2330 C   0  0  0  0  0  0  0  0  0  0  0  0
    2.3496    4.7752    0.0013 C   0  0  0  0  0  0  0  0  0  0  0  0
    3.0477    5.9455    0.2888 C   0  0  0  0  0  0  0  0  0  0  0  0
    4.4394    5.9416    0.2933 C   0  0  0  0  0  0  0  0  0  0  0  0
    5.1429    4.7668    0.0156 C   0  0  0  0  0  0  0  0  0  0  0  0
    4.4506    3.5704   -0.2218 C   0  0  0  0  0  0  0  0  0  0  0  0
    5.1284    2.3519   -0.3642 C   0  0  0  0  0  0  0  0  0  0  0  0
    0.4322   -0.9590    0.2144 H   0  0  0  0  0  0  0  0  0  0  0  0
    0.3608    0.7146   -0.1284 H   0  0  0  0  0  0  0  0  0  0  0  0
    2.4949   -2.1330    0.5363 H   0  0  0  0  0  0  0  0  0  0  0  0
    4.9567   -2.1284    0.5312 H   0  0  0  0  0  0  0  0  0  0  0  0
    6.2009   -0.0572    0.0583 H   0  0  0  0  0  0  0  0  0  0  0  0
    1.2782    2.4255   -0.5292 H   0  0  0  0  0  0  0  0  0  0  0  0
    1.2637    4.7800    0.0392 H   0  0  0  0  0  0  0  0  0  0  0  0
    2.5003    6.8524    0.5305 H   0  0  0  0  0  0  0  0  0  0  0  0
    4.9830    6.8500    0.5373 H   0  0  0  0  0  0  0  0  0  0  0  0
    6.2277    4.7743    0.0599 H   0  0  0  0  0  0  0  0  0  0  0  0
    6.2092    2.3427   -0.4618 H   0  0  0  0  0  0  0  0  0  0  0  0
  1  2  1  0  0  0  0
  1 16  1  0  0  0  0
  1 17  1  0  0  0  0
  2  3  2  0  0  0  0
  2  7  1  0  0  0  0
  3  4  1  0  0  0  0
  3 18  1  0  0  0  0
  4  5  2  0  0  0  0
  4 19  1  0  0  0  0
  5  6  1  0  0  0  0
  5 20  1  0  0  0  0
  6  7  2  0  0  0  0
  6 15  1  0  0  0  0
  7  8  1  0  0  0  0
  8  9  2  0  0  0  0
  8 21  1  0  0  0  0
  9 10  1  0  0  0  0
  9 14  1  0  0  0  0
 10 11  2  0  0  0  0
 10 22  1  0  0  0  0
 11 12  1  0  0  0  0
 11 23  1  0  0  0  0
 12 13  2  0  0  0  0
 12 24  1  0  0  0  0
 13 14  1  0  0  0  0
 13 25  1  0  0  0  0
 14 15  2  0  0  0  0
 15 26  1  0  0  0  0
M  END
$$$$
