ANG
 OpenBabel04121316073D

 18 19  0  0  0  0  0  0  0  0999 V2000
    1.2033    0.0233   -0.0708 N   0  0  0  0  0  0  0  0  0  0  0  0
    2.5378   -0.0373   -0.0712 C   0  0  0  0  0  0  0  0  0  0  0  0
    3.2625   -1.1308   -0.0714 N   0  0  0  0  0  0  0  0  0  0  0  0
    4.5601   -0.6875   -0.0711 C   0  0  0  0  0  0  0  0  0  0  0  0
    4.6303    0.6860   -0.0701 C   0  0  0  0  0  0  0  0  0  0  0  0
    3.3237    1.0939   -0.0713 N   0  0  0  0  0  0  0  0  0  0  0  0
    2.9945    2.0454   -0.0713 H   0  0  0  0  0  0  0  0  0  0  0  0
    5.7369    1.4733   -0.0675 N   0  0  0  0  0  0  0  0  0  0  0  0
    6.8568    0.7936   -0.0676 C   0  0  0  0  0  0  0  0  0  0  0  0
    6.9094   -0.5886   -0.0704 N   0  0  0  0  0  0  0  0  0  0  0  0
    7.7943   -1.0650   -0.0719 H   0  0  0  0  0  0  0  0  0  0  0  0
    5.8011   -1.4231   -0.0708 C   0  0  0  0  0  0  0  0  0  0  0  0
    5.9115   -2.6468   -0.0702 O   0  0  0  0  0  0  0  0  0  0  0  0
    8.0561    1.4234   -0.0652 N   0  0  0  0  0  0  0  0  0  0  0  0
    0.6859   -0.8518   -0.0704 H   0  0  0  0  0  0  0  0  0  0  0  0
    0.6405    0.8630   -0.0713 H   0  0  0  0  0  0  0  0  0  0  0  0
    8.0693    2.4354   -0.0521 H   0  0  0  0  0  0  0  0  0  0  0  0
    8.9441    0.9439   -0.0509 H   0  0  0  0  0  0  0  0  0  0  0  0
  1  2  1  0  0  0  0
  1 15  1  0  0  0  0
  1 16  1  0  0  0  0
  2  3  2  0  0  0  0
  2  6  1  0  0  0  0
  3  4  1  0  0  0  0
  4  5  2  0  0  0  0
  4 12  1  0  0  0  0
  5  6  1  0  0  0  0
  5  8  1  0  0  0  0
  6  7  1  0  0  0  0
  8  9  2  0  0  0  0
  9 10  1  0  0  0  0
  9 14  1  0  0  0  0
 10 11  1  0  0  0  0
 10 12  1  0  0  0  0
 12 13  2  0  0  0  0
 14 17  1  0  0  0  0
 14 18  1  0  0  0  0
M  END
$$$$
