ANP
 OpenBabel04121316073D

 48 50  0  0  1  0  0  0  0  0999 V2000
    2.8342    0.1291   -1.4780 O   0  0  0  0  0  0  0  0  0  0  0  0
    2.3863   -0.0433   -0.1341 C   0  0  2  0  0  0  0  0  0  0  0  0
    1.2919   -0.0428   -0.1629 H   0  0  0  0  0  0  0  0  0  0  0  0
    2.9471    1.0520    0.7553 C   0  0  1  0  0  0  0  0  0  0  0  0
    3.0861    1.9883    0.2040 H   0  0  0  0  0  0  0  0  0  0  0  0
    2.1009    1.2975    1.9936 C   0  0  0  0  0  0  0  0  0  0  0  0
    0.7957    1.7648    1.6642 O   0  0  0  0  0  0  0  0  0  0  0  0
   -0.1689    1.9826    3.0838 P   0  0  1  0  0  0  0  0  0  0  0  0
    0.8972    2.8122    3.7995 O   0  0  0  0  0  0  0  0  0  0  0  0
   -1.2212    3.0391    2.2067 O   0  0  0  0  0  0  0  0  0  0  0  0
   -0.6626    3.1860    0.5760 P   0  0  1  0  0  0  0  0  0  0  0  0
    0.7026    3.7854    0.7844 O   0  0  0  0  0  0  0  0  0  0  0  0
   -1.9722    2.1109    0.0305 N   0  0  0  0  0  0  0  0  0  0  0  0
   -2.9506    1.6101    1.4306 P   0  0  0  0  0  0  0  0  0  0  0  0
   -1.8422    0.7633    2.0128 O   0  0  0  0  0  0  0  0  0  0  0  0
   -3.4513    3.1237    1.5988 O   0  0  0  0  0  0  0  0  0  0  0  0
   -3.9015    1.1233    2.7914 O   0  0  0  0  0  0  0  0  0  0  0  0
   -0.1039    3.3329   -1.0548 O   0  0  0  0  0  0  0  0  0  0  0  0
   -1.1334    2.2003    4.5033 O   0  0  0  0  0  0  0  0  0  0  0  0
    4.2389    0.5663    1.1718 O   0  0  0  0  0  0  0  0  0  0  0  0
    4.1566   -0.8624    1.3463 C   0  0  2  0  0  0  0  0  0  0  0  0
    5.0905   -1.3078    0.9850 H   0  0  0  0  0  0  0  0  0  0  0  0
    2.9348   -1.3194    0.5115 C   0  0  2  0  0  0  0  0  0  0  0  0
    2.1329   -1.7320    1.1277 H   0  0  0  0  0  0  0  0  0  0  0  0
    3.2730   -2.3132   -0.4533 O   0  0  0  0  0  0  0  0  0  0  0  0
    4.0915   -1.1851    2.7729 N   0  0  0  0  0  0  0  0  0  0  0  0
    3.2983   -2.1446    3.3594 C   0  0  0  0  0  0  0  0  0  0  0  0
    3.4198   -2.1815    4.6616 N   0  0  0  0  0  0  0  0  0  0  0  0
    4.3921   -1.2451    4.9434 C   0  0  0  0  0  0  0  0  0  0  0  0
    4.8304   -0.6256    3.7890 C   0  0  0  0  0  0  0  0  0  0  0  0
    5.7809    0.3287    3.7097 N   0  0  0  0  0  0  0  0  0  0  0  0
    6.2610    0.6363    4.9316 C   0  0  0  0  0  0  0  0  0  0  0  0
    5.9283    0.1079    6.1297 N   0  0  0  0  0  0  0  0  0  0  0  0
    4.9784   -0.8540    6.1581 C   0  0  0  0  0  0  0  0  0  0  0  0
    4.6261   -1.4100    7.3644 N   0  0  0  0  0  0  0  0  0  0  0  0
    3.8019    0.0342   -1.4889 H   0  0  0  0  0  0  0  0  0  0  0  0
    2.6386    2.0239    2.6122 H   0  0  0  0  0  0  0  0  0  0  0  0
    1.9815    0.3939    2.5976 H   0  0  0  0  0  0  0  0  0  0  0  0
   -1.5090    1.2994   -0.3553 H   0  0  0  0  0  0  0  0  0  0  0  0
   -3.9078    3.3690    0.7644 H   0  0  0  0  0  0  0  0  0  0  0  0
   -3.2812    0.6682    3.3920 H   0  0  0  0  0  0  0  0  0  0  0  0
    0.6115    3.9985   -0.9577 H   0  0  0  0  0  0  0  0  0  0  0  0
   -0.6854    1.7498    5.2407 H   0  0  0  0  0  0  0  0  0  0  0  0
    3.6058   -3.1044    0.0045 H   0  0  0  0  0  0  0  0  0  0  0  0
    2.6286   -2.7951    2.8077 H   0  0  0  0  0  0  0  0  0  0  0  0
    7.0216    1.4153    4.9600 H   0  0  0  0  0  0  0  0  0  0  0  0
    5.0910   -1.0924    8.1987 H   0  0  0  0  0  0  0  0  0  0  0  0
    3.9229   -2.1370    7.3806 H   0  0  0  0  0  0  0  0  0  0  0  0
  1 36  1  0  0  0  0
  2  4  1  0  0  0  0
  2 23  1  0  0  0  0
  2  3  1  1  0  0  0
  2  1  1  0  0  0  0
  4  5  1  6  0  0  0
  4  6  1  0  0  0  0
  4 20  1  0  0  0  0
  6  7  1  0  0  0  0
  6 37  1  0  0  0  0
  6 38  1  0  0  0  0
  8  7  1  6  0  0  0
  8  9  2  0  0  0  0
  8 10  1  0  0  0  0
  8 19  1  0  0  0  0
 11 10  1  1  0  0  0
 11 12  2  0  0  0  0
 11 13  1  0  0  0  0
 11 18  1  0  0  0  0
 13 14  1  0  0  0  0
 13 39  1  0  0  0  0
 14 15  2  0  0  0  0
 14 16  1  0  0  0  0
 14 17  1  0  0  0  0
 16 40  1  0  0  0  0
 17 41  1  0  0  0  0
 18 42  1  0  0  0  0
 19 43  1  0  0  0  0
 20 21  1  0  0  0  0
 21 23  1  0  0  0  0
 21 26  1  0  0  0  0
 21 22  1  6  0  0  0
 23 24  1  1  0  0  0
 23 25  1  0  0  0  0
 25 44  1  0  0  0  0
 26 27  1  0  0  0  0
 26 30  1  0  0  0  0
 27 28  2  0  0  0  0
 27 45  1  0  0  0  0
 28 29  1  0  0  0  0
 29 30  2  0  0  0  0
 29 34  1  0  0  0  0
 30 31  1  0  0  0  0
 31 32  2  0  0  0  0
 32 33  1  0  0  0  0
 32 46  1  0  0  0  0
 33 34  2  0  0  0  0
 34 35  1  0  0  0  0
 35 47  1  0  0  0  0
 35 48  1  0  0  0  0
M  END
$$$$
