AO1
 OpenBabel04121316073D

 50 51  0  0  1  0  0  0  0  0999 V2000
   15.5795    2.5788   -6.8011 C   0  0  0  0  0  0  0  0  0  0  0  0
   15.1477    1.8988   -5.5307 C   0  0  0  0  0  0  0  0  0  0  0  0
   13.6143    2.6992   -5.0872 S   0  0  0  0  0  0  0  0  0  0  0  0
   13.2444    1.6369   -3.6463 C   0  0  0  0  0  0  0  0  0  0  0  0
   11.9407    2.1281   -3.0488 C   0  0  0  0  0  0  0  0  0  0  0  0
   11.4953    1.6546   -1.5462 C   0  0  1  0  0  0  0  0  0  0  0  0
   11.1412    0.6310   -1.6272 H   0  0  0  0  0  0  0  0  0  0  0  0
   12.8726    1.4219   -0.2834 C   0  0  1  0  0  0  0  0  0  0  0  0
   13.4701    2.3110    0.0138 H   0  0  0  0  0  0  0  0  0  0  0  0
   12.4261    1.3227    1.3146 C   0  0  0  0  0  0  0  0  0  0  0  0
   12.9092    0.4144    2.0059 O   0  0  0  0  0  0  0  0  0  0  0  0
   11.6858    2.3226    1.9980 N   0  0  0  0  0  0  0  0  0  0  0  0
   11.1069    3.8359    1.7838 C   0  0  2  0  0  0  0  0  0  0  0  0
   10.0217    3.6796    1.7259 H   0  0  0  0  0  0  0  0  0  0  0  0
   11.5845    4.6202    0.5657 C   0  0  0  0  0  0  0  0  0  0  0  0
   12.1550    3.8282   -0.2374 C   0  0  0  0  0  0  0  0  0  0  0  0
   12.9605    4.0237   -1.3500 C   0  0  0  0  0  0  0  0  0  0  0  0
   12.5189    4.9868   -2.1651 C   0  0  0  0  0  0  0  0  0  0  0  0
   12.0541    5.9535   -1.4805 C   0  0  0  0  0  0  0  0  0  0  0  0
   11.6289    5.8484   -0.0536 C   0  0  0  0  0  0  0  0  0  0  0  0
   11.2683    6.9477    0.5455 C   0  0  0  0  0  0  0  0  0  0  0  0
   11.1231    8.0745   -0.2464 C   0  0  0  0  0  0  0  0  0  0  0  0
   11.4321    8.1112   -1.6280 C   0  0  0  0  0  0  0  0  0  0  0  0
   12.0433    7.0847   -2.2316 C   0  0  0  0  0  0  0  0  0  0  0  0
   11.5511    4.6726    2.9431 C   0  0  0  0  0  0  0  0  0  0  0  0
   14.0099    0.8459   -0.9231 O   0  0  0  0  0  0  0  0  0  0  0  0
   10.0637    2.3747   -1.2376 N   0  0  0  0  0  0  0  0  0  0  0  0
   16.3871    2.0132   -7.2637 H   0  0  0  0  0  0  0  0  0  0  0  0
   15.9263    3.5998   -6.5999 H   0  0  0  0  0  0  0  0  0  0  0  0
   14.7486    2.6368   -7.5146 H   0  0  0  0  0  0  0  0  0  0  0  0
   15.9104    1.9688   -4.7440 H   0  0  0  0  0  0  0  0  0  0  0  0
   14.8839    0.8526   -5.6871 H   0  0  0  0  0  0  0  0  0  0  0  0
   14.1150    1.8692   -3.0223 H   0  0  0  0  0  0  0  0  0  0  0  0
   13.2112    0.5770   -3.8476 H   0  0  0  0  0  0  0  0  0  0  0  0
   11.1054    2.4918   -3.6792 H   0  0  0  0  0  0  0  0  0  0  0  0
   12.3107    3.1119   -3.0648 H   0  0  0  0  0  0  0  0  0  0  0  0
   11.3484    1.9158    2.8682 H   0  0  0  0  0  0  0  0  0  0  0  0
   11.7004    2.8970    0.0051 H   0  0  0  0  0  0  0  0  0  0  0  0
   13.5245    3.2105   -1.7091 H   0  0  0  0  0  0  0  0  0  0  0  0
   12.6150    4.9502   -3.2626 H   0  0  0  0  0  0  0  0  0  0  0  0
   11.0346    6.9747    1.5983 H   0  0  0  0  0  0  0  0  0  0  0  0
   10.7326    8.9302    0.2525 H   0  0  0  0  0  0  0  0  0  0  0  0
   11.1693    8.9560   -2.2414 H   0  0  0  0  0  0  0  0  0  0  0  0
   12.4673    7.0895   -3.2413 H   0  0  0  0  0  0  0  0  0  0  0  0
   11.0407    5.6290    2.8901 H   0  0  0  0  0  0  0  0  0  0  0  0
   12.6340    4.8383    2.8571 H   0  0  0  0  0  0  0  0  0  0  0  0
   11.3027    4.2493    3.9090 H   0  0  0  0  0  0  0  0  0  0  0  0
   14.6531    1.5816   -1.0741 H   0  0  0  0  0  0  0  0  0  0  0  0
    9.6263    2.7458   -2.0930 H   0  0  0  0  0  0  0  0  0  0  0  0
   10.1072    3.2831   -0.7490 H   0  0  0  0  0  0  0  0  0  0  0  0
  1  2  1  0  0  0  0
  1 28  1  0  0  0  0
  1 29  1  0  0  0  0
  1 30  1  0  0  0  0
  2  3  1  0  0  0  0
  2 31  1  0  0  0  0
  2 32  1  0  0  0  0
  3  4  1  0  0  0  0
  4  5  1  0  0  0  0
  4 33  1  0  0  0  0
  4 34  1  0  0  0  0
  5  6  1  0  0  0  0
  5 35  1  0  0  0  0
  5 36  1  0  0  0  0
  6  7  1  6  0  0  0
  6  8  1  0  0  0  0
  6 27  1  0  0  0  0
  8  9  1  1  0  0  0
  8 10  1  0  0  0  0
  8 26  1  0  0  0  0
 10 11  2  0  0  0  0
 10 12  1  0  0  0  0
 12 37  1  0  0  0  0
 13 15  1  0  0  0  0
 13 25  1  0  0  0  0
 13 14  1  6  0  0  0
 13 12  1  0  0  0  0
 15 16  2  0  0  0  0
 15 20  1  0  0  0  0
 16 17  1  0  0  0  0
 16 38  1  0  0  0  0
 17 18  2  0  0  0  0
 17 39  1  0  0  0  0
 18 19  1  0  0  0  0
 18 40  1  0  0  0  0
 19 20  2  0  0  0  0
 19 24  1  0  0  0  0
 20 21  1  0  0  0  0
 21 22  2  0  0  0  0
 21 41  1  0  0  0  0
 22 23  1  0  0  0  0
 22 42  1  0  0  0  0
 23 24  2  0  0  0  0
 23 43  1  0  0  0  0
 24 44  1  0  0  0  0
 25 45  1  0  0  0  0
 25 46  1  0  0  0  0
 25 47  1  0  0  0  0
 26 48  1  0  0  0  0
 27 49  1  0  0  0  0
 27 50  1  0  0  0  0
M  END
$$$$
