AOD
 OpenBabel04121316073D

 36 37  0  0  1  0  0  0  0  0999 V2000
    4.1106   -1.0741   -1.5656 O   0  0  0  0  0  0  0  0  0  0  0  0
    4.3173    0.2605   -1.6327 C   0  0  0  0  0  0  0  0  0  0  0  0
    5.2495    0.7285   -2.2700 O   0  0  0  0  0  0  0  0  0  0  0  0
    3.2468    1.1193   -0.9673 C   0  0  2  0  0  0  0  0  0  0  0  0
    2.5535    0.4397   -0.4565 H   0  0  0  0  0  0  0  0  0  0  0  0
    2.5350    1.8684   -2.0834 C   0  0  0  0  0  0  0  0  0  0  0  0
    1.4608    2.8193   -1.5709 C   0  0  0  0  0  0  0  0  0  0  0  0
    2.0454    3.9120   -0.6486 C   0  0  0  0  0  0  0  0  0  0  0  0
    2.6875    3.1985    0.5227 C   0  0  1  0  0  0  0  0  0  0  0  0
    1.7532    2.8280    0.9528 H   0  0  0  0  0  0  0  0  0  0  0  0
    3.7941    2.1767    0.0185 C   0  0  0  0  0  0  0  0  0  0  0  0
    3.2178    3.9566    1.6274 N   0  0  0  0  0  0  0  0  0  0  0  0
    3.5370    3.3885    2.8822 C   0  0  0  0  0  0  0  0  0  0  0  0
    4.2304    4.3001    3.7356 C   0  0  0  0  0  0  0  0  0  0  0  0
    4.9351    3.8842    4.8719 C   0  0  0  0  0  0  0  0  0  0  0  0
    4.8800    2.5607    5.2535 C   0  0  0  0  0  0  0  0  0  0  0  0
    4.0987    1.6719    4.5406 C   0  0  0  0  0  0  0  0  0  0  0  0
    3.4526    2.0216    3.3388 C   0  0  0  0  0  0  0  0  0  0  0  0
    2.8206    0.7205    2.8194 C   0  0  0  0  0  0  0  0  0  0  0  0
    3.1230   -0.3895    3.1765 O   0  0  0  0  0  0  0  0  0  0  0  0
    1.8504    0.8403    1.9120 O   0  0  0  0  0  0  0  0  0  0  0  0
    5.8647    1.9193    6.7278 Br  0  0  0  0  0  0  0  0  0  0  0  0
    3.2974   -1.3930   -1.1294 H   0  0  0  0  0  0  0  0  0  0  0  0
    2.1100    1.1521   -2.7928 H   0  0  0  0  0  0  0  0  0  0  0  0
    3.2816    2.4611   -2.6245 H   0  0  0  0  0  0  0  0  0  0  0  0
    0.6992    2.2313   -1.0349 H   0  0  0  0  0  0  0  0  0  0  0  0
    0.9682    3.2866   -2.4245 H   0  0  0  0  0  0  0  0  0  0  0  0
    1.2165    4.5481   -0.3070 H   0  0  0  0  0  0  0  0  0  0  0  0
    2.7636    4.5460   -1.1700 H   0  0  0  0  0  0  0  0  0  0  0  0
    4.3016    1.6536    0.8391 H   0  0  0  0  0  0  0  0  0  0  0  0
    4.6112    2.7478   -0.4429 H   0  0  0  0  0  0  0  0  0  0  0  0
    3.0820    4.9685    1.6025 H   0  0  0  0  0  0  0  0  0  0  0  0
    4.2751    5.3640    3.4941 H   0  0  0  0  0  0  0  0  0  0  0  0
    5.5343    4.5911    5.4395 H   0  0  0  0  0  0  0  0  0  0  0  0
    4.0072    0.6534    4.9161 H   0  0  0  0  0  0  0  0  0  0  0  0
    2.3150    1.3900    1.2981 H   0  0  0  0  0  0  0  0  0  0  0  0
  1  2  1  0  0  0  0
  1 23  1  0  0  0  0
  2  3  2  0  0  0  0
  4  6  1  0  0  0  0
  4 11  1  0  0  0  0
  4  5  1  1  0  0  0
  4  2  1  0  0  0  0
  6  7  1  0  0  0  0
  6 24  1  0  0  0  0
  6 25  1  0  0  0  0
  7  8  1  0  0  0  0
  7 26  1  0  0  0  0
  7 27  1  0  0  0  0
  8  9  1  0  0  0  0
  8 28  1  0  0  0  0
  8 29  1  0  0  0  0
  9 10  1  1  0  0  0
  9 11  1  0  0  0  0
  9 12  1  0  0  0  0
 11 30  1  0  0  0  0
 11 31  1  0  0  0  0
 12 13  1  0  0  0  0
 12 32  1  0  0  0  0
 13 14  2  0  0  0  0
 13 18  1  0  0  0  0
 14 15  1  0  0  0  0
 14 33  1  0  0  0  0
 15 16  2  0  0  0  0
 15 34  1  0  0  0  0
 16 17  1  0  0  0  0
 16 22  1  0  0  0  0
 17 18  2  0  0  0  0
 17 35  1  0  0  0  0
 18 19  1  0  0  0  0
 19 20  2  0  0  0  0
 19 21  1  0  0  0  0
 21 36  1  0  0  0  0
M  END
$$$$
