AP0
 OpenBabel04121316073D

 76 80  0  0  1  0  0  0  0  0999 V2000
   -5.3389   -4.2711    4.4076 O   0  0  0  0  0  0  0  0  0  0  0  0
   -4.0058   -3.7338    4.2863 C   0  0  2  0  0  0  0  0  0  0  0  0
   -4.0587   -2.8642    3.6267 H   0  0  0  0  0  0  0  0  0  0  0  0
   -3.0713   -4.7857    3.7511 C   0  0  2  0  0  0  0  0  0  0  0  0
   -2.1684   -4.3367    3.3226 H   0  0  0  0  0  0  0  0  0  0  0  0
   -3.6429   -5.6081    2.7410 O   0  0  0  0  0  0  0  0  0  0  0  0
   -2.7577   -5.5124    5.0578 C   0  0  2  0  0  0  0  0  0  0  0  0
   -3.6146   -6.1679    5.2684 H   0  0  0  0  0  0  0  0  0  0  0  0
   -2.6931   -4.6081    6.1261 O   0  0  0  0  0  0  0  0  0  0  0  0
   -3.3669   -3.4419    5.6634 C   0  0  1  0  0  0  0  0  0  0  0  0
   -4.1356   -3.2474    6.4191 H   0  0  0  0  0  0  0  0  0  0  0  0
   -2.4282   -2.3423    5.5789 N   0  0  0  0  0  0  0  0  0  0  0  0
   -2.9006   -1.0688    5.8533 C   0  0  0  0  0  0  0  0  0  0  0  0
   -2.1078   -0.0536    6.1124 C   0  0  0  0  0  0  0  0  0  0  0  0
   -0.6124   -0.2420    6.1361 C   0  0  0  0  0  0  0  0  0  0  0  0
   -0.1555   -1.5557    5.5236 C   0  0  0  0  0  0  0  0  0  0  0  0
   -1.0682   -2.5116    5.3238 C   0  0  0  0  0  0  0  0  0  0  0  0
    1.2895   -1.7585    5.1488 C   0  0  2  0  0  0  0  0  0  0  0  0
    1.3429   -2.0909    4.1038 H   0  0  0  0  0  0  0  0  0  0  0  0
    1.8422   -2.8013    5.9473 O   0  0  0  0  0  0  0  0  0  0  0  0
    2.1291   -0.4998    5.3046 C   0  0  0  0  0  0  0  0  0  0  0  0
   -1.5585   -6.3906    4.9444 C   0  0  0  0  0  0  0  0  0  0  0  0
   -0.3134   -6.2131    5.4772 O   0  0  0  0  0  0  0  0  0  0  0  0
    1.0948   -7.1863    5.2266 P   0  0  1  0  0  0  0  0  0  0  0  0
    1.1839   -7.5327    6.7097 O   0  0  0  0  0  0  0  0  0  0  0  0
    0.2377   -8.3089    4.4382 O   0  0  0  0  0  0  0  0  0  0  0  0
   -1.0766   -9.0094    3.8291 P   0  0  1  0  0  0  0  0  0  0  0  0
   -1.6625   -9.2849    5.1962 O   0  0  0  0  0  0  0  0  0  0  0  0
   -0.9600   -7.8945    2.6101 O   0  0  0  0  0  0  0  0  0  0  0  0
    0.2974   -7.6795    2.0132 C   0  0  0  0  0  0  0  0  0  0  0  0
    0.4030   -7.0188    0.6520 C   0  0  1  0  0  0  0  0  0  0  0  0
    0.6052   -5.9431    0.7774 H   0  0  0  0  0  0  0  0  0  0  0  0
    1.5893   -7.5973    0.0580 O   0  0  0  0  0  0  0  0  0  0  0  0
    1.4211   -7.4998   -1.3508 C   0  0  2  0  0  0  0  0  0  0  0  0
    1.8584   -6.5386   -1.6470 H   0  0  0  0  0  0  0  0  0  0  0  0
   -0.0796   -7.5465   -1.6462 C   0  0  1  0  0  0  0  0  0  0  0  0
   -0.3975   -8.5465   -1.9578 H   0  0  0  0  0  0  0  0  0  0  0  0
   -0.7522   -7.2108   -0.3114 C   0  0  2  0  0  0  0  0  0  0  0  0
   -1.4039   -8.0285    0.0084 H   0  0  0  0  0  0  0  0  0  0  0  0
   -1.5327   -6.0190   -0.3761 O   0  0  0  0  0  0  0  0  0  0  0  0
   -0.4535   -6.6335   -2.6823 O   0  0  0  0  0  0  0  0  0  0  0  0
    2.1747   -8.5341   -2.0411 N   0  0  0  0  0  0  0  0  0  0  0  0
    2.8801   -8.3057   -3.1983 C   0  0  0  0  0  0  0  0  0  0  0  0
    3.3881   -9.4081   -3.7001 N   0  0  0  0  0  0  0  0  0  0  0  0
    3.0041  -10.4011   -2.8236 C   0  0  0  0  0  0  0  0  0  0  0  0
    2.2336   -9.8817   -1.7891 C   0  0  0  0  0  0  0  0  0  0  0  0
    1.6651  -10.5765   -0.7875 N   0  0  0  0  0  0  0  0  0  0  0  0
    1.9783  -11.8905   -0.8775 C   0  0  0  0  0  0  0  0  0  0  0  0
    2.7149  -12.5246   -1.8174 N   0  0  0  0  0  0  0  0  0  0  0  0
    3.2382  -11.7883   -2.8217 C   0  0  0  0  0  0  0  0  0  0  0  0
    3.9651  -12.4261   -3.8026 N   0  0  0  0  0  0  0  0  0  0  0  0
   -2.5981   -8.3529    3.6385 O   0  0  0  0  0  0  0  0  0  0  0  0
    2.5030   -8.1594    4.9761 O   0  0  0  0  0  0  0  0  0  0  0  0
   -5.3326   -4.9827    5.0707 H   0  0  0  0  0  0  0  0  0  0  0  0
   -4.4461   -6.0384    3.0796 H   0  0  0  0  0  0  0  0  0  0  0  0
   -3.9908   -0.9874    5.8566 H   0  0  0  0  0  0  0  0  0  0  0  0
   -2.5211    0.9276    6.3335 H   0  0  0  0  0  0  0  0  0  0  0  0
   -0.2682   -0.2009    7.1757 H   0  0  0  0  0  0  0  0  0  0  0  0
   -0.1905    0.6005    5.5891 H   0  0  0  0  0  0  0  0  0  0  0  0
   -0.7624   -3.4901    4.9534 H   0  0  0  0  0  0  0  0  0  0  0  0
    2.7771   -2.8919    5.7022 H   0  0  0  0  0  0  0  0  0  0  0  0
    3.1718   -0.6813    5.0349 H   0  0  0  0  0  0  0  0  0  0  0  0
    2.1239   -0.1603    6.3470 H   0  0  0  0  0  0  0  0  0  0  0  0
    1.7463    0.3038    4.6666 H   0  0  0  0  0  0  0  0  0  0  0  0
   -1.9025   -7.2194    5.5307 H   0  0  0  0  0  0  0  0  0  0  0  0
   -1.3852   -6.4144    3.8907 H   0  0  0  0  0  0  0  0  0  0  0  0
    0.7792   -8.6535    1.9916 H   0  0  0  0  0  0  0  0  0  0  0  0
    0.8732   -7.0130    2.6637 H   0  0  0  0  0  0  0  0  0  0  0  0
   -2.1428   -6.1206   -1.1300 H   0  0  0  0  0  0  0  0  0  0  0  0
    0.0076   -6.8922   -3.5002 H   0  0  0  0  0  0  0  0  0  0  0  0
    2.9793   -7.3208   -3.6373 H   0  0  0  0  0  0  0  0  0  0  0  0
    1.5841  -12.5291   -0.0910 H   0  0  0  0  0  0  0  0  0  0  0  0
    4.1315  -13.4158   -3.7164 H   0  0  0  0  0  0  0  0  0  0  0  0
    4.3868  -11.8741   -4.5361 H   0  0  0  0  0  0  0  0  0  0  0  0
   -3.0536   -8.2713    4.5010 H   0  0  0  0  0  0  0  0  0  0  0  0
    3.1821   -7.8165    5.5874 H   0  0  0  0  0  0  0  0  0  0  0  0
  1 54  1  0  0  0  0
  2  4  1  0  0  0  0
  2 10  1  0  0  0  0
  2  3  1  6  0  0  0
  2  1  1  0  0  0  0
  4  7  1  0  0  0  0
  4  6  1  0  0  0  0
  4  5  1  6  0  0  0
  6 55  1  0  0  0  0
  7  9  1  0  0  0  0
  7 22  1  0  0  0  0
  7  8  1  1  0  0  0
  9 10  1  0  0  0  0
 10 12  1  0  0  0  0
 10 11  1  1  0  0  0
 12 13  1  0  0  0  0
 12 17  1  0  0  0  0
 13 14  2  0  0  0  0
 13 56  1  0  0  0  0
 14 15  1  0  0  0  0
 14 57  1  0  0  0  0
 15 16  1  0  0  0  0
 15 58  1  0  0  0  0
 15 59  1  0  0  0  0
 16 17  2  0  0  0  0
 17 60  1  0  0  0  0
 18 20  1  0  0  0  0
 18 21  1  0  0  0  0
 18 19  1  6  0  0  0
 18 16  1  0  0  0  0
 20 61  1  0  0  0  0
 21 62  1  0  0  0  0
 21 63  1  0  0  0  0
 21 64  1  0  0  0  0
 22 23  1  0  0  0  0
 22 65  1  0  0  0  0
 22 66  1  0  0  0  0
 24 23  1  6  0  0  0
 24 25  2  0  0  0  0
 24 26  1  0  0  0  0
 24 53  1  0  0  0  0
 27 26  1  6  0  0  0
 27 28  2  0  0  0  0
 27 29  1  0  0  0  0
 27 52  1  0  0  0  0
 29 30  1  0  0  0  0
 30 31  1  0  0  0  0
 30 67  1  0  0  0  0
 30 68  1  0  0  0  0
 31 32  1  1  0  0  0
 31 33  1  0  0  0  0
 31 38  1  0  0  0  0
 33 34  1  0  0  0  0
 34 36  1  0  0  0  0
 34 42  1  0  0  0  0
 34 35  1  6  0  0  0
 36 37  1  6  0  0  0
 36 38  1  0  0  0  0
 36 41  1  0  0  0  0
 38 39  1  1  0  0  0
 38 40  1  0  0  0  0
 40 69  1  0  0  0  0
 41 70  1  0  0  0  0
 42 43  1  0  0  0  0
 42 46  1  0  0  0  0
 43 44  2  0  0  0  0
 43 71  1  0  0  0  0
 44 45  1  0  0  0  0
 45 46  2  0  0  0  0
 45 50  1  0  0  0  0
 46 47  1  0  0  0  0
 47 48  2  0  0  0  0
 48 49  1  0  0  0  0
 48 72  1  0  0  0  0
 49 50  2  0  0  0  0
 50 51  1  0  0  0  0
 51 73  1  0  0  0  0
 51 74  1  0  0  0  0
 52 75  1  0  0  0  0
 53 76  1  0  0  0  0
M  END
$$$$
