API
 OpenBabel04121316073D

 27 26  0  0  1  0  0  0  0  0999 V2000
    3.8199   -3.4661   -1.6771 N   0  0  0  0  0  0  0  0  0  0  0  0
    4.9461   -4.3994   -1.4430 C   0  0  2  0  0  0  0  0  0  0  0  0
    5.2179   -4.8624   -2.3980 H   0  0  0  0  0  0  0  0  0  0  0  0
    4.5621   -5.5362   -0.4657 C   0  0  0  0  0  0  0  0  0  0  0  0
    5.1941   -5.8508    0.5366 O   0  0  0  0  0  0  0  0  0  0  0  0
    3.4414   -6.2064   -0.8142 O   0  0  0  0  0  0  0  0  0  0  0  0
    6.1676   -3.6217   -0.9197 C   0  0  0  0  0  0  0  0  0  0  0  0
    5.8692   -2.9317    0.4075 C   0  0  0  0  0  0  0  0  0  0  0  0
    7.0565   -2.1816    0.9772 C   0  0  0  0  0  0  0  0  0  0  0  0
    6.5988   -1.5499    2.2967 C   0  0  2  0  0  0  0  0  0  0  0  0
    5.5035   -1.4800    2.3511 H   0  0  0  0  0  0  0  0  0  0  0  0
    7.1253   -0.1232    2.4482 C   0  0  0  0  0  0  0  0  0  0  0  0
    7.8140    0.2524    3.3878 O   0  0  0  0  0  0  0  0  0  0  0  0
    6.7181    0.7229    1.4711 O   0  0  0  0  0  0  0  0  0  0  0  0
    7.0189   -2.4094    3.4203 N   0  0  0  0  0  0  0  0  0  0  0  0
    3.5427   -3.0332   -0.7947 H   0  0  0  0  0  0  0  0  0  0  0  0
    2.9889   -3.9273   -2.0292 H   0  0  0  0  0  0  0  0  0  0  0  0
    3.0836   -5.9461   -1.6799 H   0  0  0  0  0  0  0  0  0  0  0  0
    6.4816   -2.8698   -1.6563 H   0  0  0  0  0  0  0  0  0  0  0  0
    7.0148   -4.3083   -0.7949 H   0  0  0  0  0  0  0  0  0  0  0  0
    5.5367   -3.6529    1.1593 H   0  0  0  0  0  0  0  0  0  0  0  0
    5.0503   -2.2164    0.2779 H   0  0  0  0  0  0  0  0  0  0  0  0
    7.4013   -1.4355    0.2534 H   0  0  0  0  0  0  0  0  0  0  0  0
    7.8984   -2.8706    1.1274 H   0  0  0  0  0  0  0  0  0  0  0  0
    6.1574    0.3232    0.7782 H   0  0  0  0  0  0  0  0  0  0  0  0
    6.7315   -1.9603    4.2921 H   0  0  0  0  0  0  0  0  0  0  0  0
    8.0406   -2.3964    3.4640 H   0  0  0  0  0  0  0  0  0  0  0  0
  1 16  1  0  0  0  0
  1 17  1  0  0  0  0
  2  4  1  0  0  0  0
  2  7  1  0  0  0  0
  2  3  1  6  0  0  0
  2  1  1  0  0  0  0
  4  5  2  0  0  0  0
  4  6  1  0  0  0  0
  6 18  1  0  0  0  0
  7  8  1  0  0  0  0
  7 19  1  0  0  0  0
  7 20  1  0  0  0  0
  8  9  1  0  0  0  0
  8 21  1  0  0  0  0
  8 22  1  0  0  0  0
  9 23  1  0  0  0  0
  9 24  1  0  0  0  0
 10 12  1  0  0  0  0
 10 15  1  0  0  0  0
 10 11  1  6  0  0  0
 10  9  1  0  0  0  0
 12 13  2  0  0  0  0
 12 14  1  0  0  0  0
 14 25  1  0  0  0  0
 15 26  1  0  0  0  0
 15 27  1  0  0  0  0
M  END
$$$$
