APV
 OpenBabel04121316073D

 43 44  0  0  1  0  0  0  0  0999 V2000
    1.4754   -2.5884    0.7416 O   0  0  0  0  0  0  0  0  0  0  0  0
    2.7290   -2.2338    1.3254 C   0  0  0  0  0  0  0  0  0  0  0  0
    2.9430   -0.7322    1.5443 C   0  0  1  0  0  0  0  0  0  0  0  0
    2.4483   -0.1643    0.7368 H   0  0  0  0  0  0  0  0  0  0  0  0
    2.3791   -0.1559    3.2345 S   0  0  0  0  0  0  0  0  0  0  0  0
    3.2968    1.4294    3.0737 C   0  0  1  0  0  0  0  0  0  0  0  0
    3.6570    1.7793    4.0456 H   0  0  0  0  0  0  0  0  0  0  0  0
    4.4083    1.0827    2.1429 N   0  0  0  0  0  0  0  0  0  0  0  0
    4.4146   -0.3077    1.6550 C   0  0  1  0  0  0  0  0  0  0  0  0
    4.9011   -0.3377    0.6726 H   0  0  0  0  0  0  0  0  0  0  0  0
    5.1546   -1.2295    2.6602 C   0  0  0  0  0  0  0  0  0  0  0  0
    4.9222   -1.3226    3.8573 O   0  0  0  0  0  0  0  0  0  0  0  0
    6.1067   -2.0057    2.1020 O   0  0  0  0  0  0  0  0  0  0  0  0
    4.1372    2.1065    1.2770 C   0  0  0  0  0  0  0  0  0  0  0  0
    4.6331    2.3691    0.2043 O   0  0  0  0  0  0  0  0  0  0  0  0
    2.9502    2.6290    2.1255 C   0  0  1  0  0  0  0  0  0  0  0  0
    3.2209    3.5946    2.5810 H   0  0  0  0  0  0  0  0  0  0  0  0
    1.6503    2.8600    1.3870 N   0  0  0  0  0  0  0  0  0  0  0  0
    0.6206    1.9913    1.3567 C   0  0  0  0  0  0  0  0  0  0  0  0
    0.6712    0.8872    1.8733 O   0  0  0  0  0  0  0  0  0  0  0  0
   -0.6705    2.3048    0.6988 C   0  0  0  0  0  0  0  0  0  0  0  0
   -1.5113    1.0383    0.9647 C   0  0  0  0  0  0  0  0  0  0  0  0
   -2.9003    1.1010    0.4247 C   0  0  0  0  0  0  0  0  0  0  0  0
   -3.6709   -0.1950    0.6985 C   0  0  1  0  0  0  0  0  0  0  0  0
   -3.1684   -1.0688    0.2666 H   0  0  0  0  0  0  0  0  0  0  0  0
   -3.9244   -0.4763    2.2087 C   0  0  0  0  0  0  0  0  0  0  0  0
   -5.0196   -0.3669    2.7483 O   0  0  0  0  0  0  0  0  0  0  0  0
   -2.8447   -0.8583    2.9310 O   0  0  0  0  0  0  0  0  0  0  0  0
   -4.9697   -0.0359    0.0071 N   0  0  0  0  0  0  0  0  0  0  0  0
    1.4482   -3.5666    0.7596 H   0  0  0  0  0  0  0  0  0  0  0  0
    3.4848   -2.6076    0.6301 H   0  0  0  0  0  0  0  0  0  0  0  0
    2.7979   -2.7654    2.2738 H   0  0  0  0  0  0  0  0  0  0  0  0
    6.3324   -1.7908    1.1814 H   0  0  0  0  0  0  0  0  0  0  0  0
    1.5094    3.7526    0.9254 H   0  0  0  0  0  0  0  0  0  0  0  0
   -0.5174    2.4686   -0.3671 H   0  0  0  0  0  0  0  0  0  0  0  0
   -1.1224    3.1641    1.1971 H   0  0  0  0  0  0  0  0  0  0  0  0
   -1.5675    0.9255    2.0555 H   0  0  0  0  0  0  0  0  0  0  0  0
   -1.0137    0.1334    0.5708 H   0  0  0  0  0  0  0  0  0  0  0  0
   -2.8195    1.2785   -0.6541 H   0  0  0  0  0  0  0  0  0  0  0  0
   -3.3997    1.9603    0.8818 H   0  0  0  0  0  0  0  0  0  0  0  0
   -1.9853   -0.9391    2.4720 H   0  0  0  0  0  0  0  0  0  0  0  0
   -4.8293    0.2523   -0.9580 H   0  0  0  0  0  0  0  0  0  0  0  0
   -5.4741    0.7252    0.4712 H   0  0  0  0  0  0  0  0  0  0  0  0
  1  2  1  0  0  0  0
  1 30  1  0  0  0  0
  2 31  1  0  0  0  0
  2 32  1  0  0  0  0
  3  5  1  0  0  0  0
  3  9  1  0  0  0  0
  3  4  1  6  0  0  0
  3  2  1  0  0  0  0
  5  6  1  0  0  0  0
  6  7  1  1  0  0  0
  6  8  1  0  0  0  0
  6 16  1  0  0  0  0
  8  9  1  0  0  0  0
  8 14  1  0  0  0  0
  9 11  1  0  0  0  0
  9 10  1  6  0  0  0
 11 12  2  0  0  0  0
 11 13  1  0  0  0  0
 13 33  1  0  0  0  0
 14 15  2  0  0  0  0
 14 16  1  0  0  0  0
 16 18  1  0  0  0  0
 16 17  1  1  0  0  0
 18 19  1  0  0  0  0
 18 34  1  0  0  0  0
 19 20  2  0  0  0  0
 19 21  1  0  0  0  0
 21 22  1  0  0  0  0
 21 35  1  0  0  0  0
 21 36  1  0  0  0  0
 22 23  1  0  0  0  0
 22 37  1  0  0  0  0
 22 38  1  0  0  0  0
 23 24  1  0  0  0  0
 23 39  1  0  0  0  0
 23 40  1  0  0  0  0
 24 25  1  6  0  0  0
 24 26  1  0  0  0  0
 24 29  1  0  0  0  0
 26 27  2  0  0  0  0
 26 28  1  0  0  0  0
 28 41  1  0  0  0  0
 29 42  1  0  0  0  0
 29 43  1  0  0  0  0
M  END
$$$$
