APZ
 OpenBabel04121316073D

 20 21  0  0  0  0  0  0  0  0999 V2000
    0.9972   -0.0156   -0.1732 N   0  0  0  0  0  0  0  0  0  0  0  0
    2.3648    0.0230    0.1045 C   0  0  0  0  0  0  0  0  0  0  0  0
    3.0771    1.2198   -0.0033 C   0  0  0  0  0  0  0  0  0  0  0  0
    4.4413    1.2586    0.2821 C   0  0  0  0  0  0  0  0  0  0  0  0
    5.1510    0.0611    0.3682 C   0  0  0  0  0  0  0  0  0  0  0  0
    4.4703   -1.1514    0.3212 C   0  0  0  0  0  0  0  0  0  0  0  0
    3.0735   -1.1675    0.2646 C   0  0  0  0  0  0  0  0  0  0  0  0
    5.2145   -2.4199    0.2671 C   0  0  0  0  0  0  0  0  0  0  0  0
    4.6358   -3.5021    0.1962 O   0  0  0  0  0  0  0  0  0  0  0  0
    6.5829   -2.3326    0.2683 N   0  0  0  0  0  0  0  0  0  0  0  0
    7.1106   -3.1980    0.2106 H   0  0  0  0  0  0  0  0  0  0  0  0
    7.2613   -1.1251    0.3483 N   0  0  0  0  0  0  0  0  0  0  0  0
    8.2761   -1.1224    0.3250 H   0  0  0  0  0  0  0  0  0  0  0  0
    6.6219    0.0866    0.4051 C   0  0  0  0  0  0  0  0  0  0  0  0
    7.2436    1.1462    0.4543 O   0  0  0  0  0  0  0  0  0  0  0  0
    0.5070    0.8599   -0.0187 H   0  0  0  0  0  0  0  0  0  0  0  0
    0.5140   -0.8109    0.2366 H   0  0  0  0  0  0  0  0  0  0  0  0
    2.5783    2.1358   -0.3097 H   0  0  0  0  0  0  0  0  0  0  0  0
    4.9514    2.2139    0.3843 H   0  0  0  0  0  0  0  0  0  0  0  0
    2.5455   -2.1176    0.3029 H   0  0  0  0  0  0  0  0  0  0  0  0
  1  2  1  0  0  0  0
  1 16  1  0  0  0  0
  1 17  1  0  0  0  0
  2  3  2  0  0  0  0
  2  7  1  0  0  0  0
  3  4  1  0  0  0  0
  3 18  1  0  0  0  0
  4  5  2  0  0  0  0
  4 19  1  0  0  0  0
  5  6  1  0  0  0  0
  5 14  1  0  0  0  0
  6  7  2  0  0  0  0
  6  8  1  0  0  0  0
  7 20  1  0  0  0  0
  8  9  2  0  0  0  0
  8 10  1  0  0  0  0
 10 11  1  0  0  0  0
 10 12  1  0  0  0  0
 12 13  1  0  0  0  0
 12 14  1  0  0  0  0
 14 15  2  0  0  0  0
M  END
$$$$
