AQ4
 OpenBabel04121316073D

 52 54  0  0  0  0  0  0  0  0999 V2000
    0.9202    0.0455   -0.0660 C   0  0  0  0  0  0  0  0  0  0  0  0
    2.3405    0.0501   -0.0658 O   0  0  0  0  0  0  0  0  0  0  0  0
    2.8320    0.8117    1.0322 C   0  0  0  0  0  0  0  0  0  0  0  0
    4.3496    0.8095    1.0191 C   0  0  0  0  0  0  0  0  0  0  0  0
    4.7712    1.5940    2.1303 O   0  0  0  0  0  0  0  0  0  0  0  0
    6.1269    1.6444    2.2703 C   0  0  0  0  0  0  0  0  0  0  0  0
    6.6680    2.9110    2.2720 C   0  0  0  0  0  0  0  0  0  0  0  0
    7.9832    3.0961    2.7224 C   0  0  0  0  0  0  0  0  0  0  0  0
    8.5342    4.3352    2.9767 C   0  0  0  0  0  0  0  0  0  0  0  0
    9.7797    4.4156    3.4679 N   0  0  0  0  0  0  0  0  0  0  0  0
   10.5006    3.3250    3.6714 C   0  0  0  0  0  0  0  0  0  0  0  0
   10.0738    2.0963    3.4351 N   0  0  0  0  0  0  0  0  0  0  0  0
    8.8173    1.9988    2.9880 C   0  0  0  0  0  0  0  0  0  0  0  0
    8.2952    0.7382    2.8143 C   0  0  0  0  0  0  0  0  0  0  0  0
    6.9346    0.5476    2.5586 C   0  0  0  0  0  0  0  0  0  0  0  0
    6.3093   -0.6598    2.6186 O   0  0  0  0  0  0  0  0  0  0  0  0
    7.1286   -1.7812    2.9022 C   0  0  0  0  0  0  0  0  0  0  0  0
    6.2317   -2.9983    2.9004 C   0  0  0  0  0  0  0  0  0  0  0  0
    7.0172   -4.1531    3.1687 O   0  0  0  0  0  0  0  0  0  0  0  0
    6.1990   -5.3122    3.1706 C   0  0  0  0  0  0  0  0  0  0  0  0
    7.7857    5.5216    2.8454 N   0  0  0  0  0  0  0  0  0  0  0  0
    8.2566    6.8389    2.9537 C   0  0  0  0  0  0  0  0  0  0  0  0
    7.3791    7.9177    2.8507 C   0  0  0  0  0  0  0  0  0  0  0  0
    7.8602    9.2222    3.0067 C   0  0  0  0  0  0  0  0  0  0  0  0
    9.2314    9.4640    3.1113 C   0  0  0  0  0  0  0  0  0  0  0  0
   10.1043    8.4025    3.2194 C   0  0  0  0  0  0  0  0  0  0  0  0
    9.5938    7.1229    3.2431 C   0  0  0  0  0  0  0  0  0  0  0  0
   11.5145    8.5734    3.2797 C   0  0  0  0  0  0  0  0  0  0  0  0
   12.7161    8.6831    3.2847 C   0  0  0  0  0  0  0  0  0  0  0  0
    0.5748   -0.5433   -0.9182 H   0  0  0  0  0  0  0  0  0  0  0  0
    0.5416    1.0675   -0.1631 H   0  0  0  0  0  0  0  0  0  0  0  0
    0.5442   -0.4087    0.8559 H   0  0  0  0  0  0  0  0  0  0  0  0
    2.4715    0.3839    1.9766 H   0  0  0  0  0  0  0  0  0  0  0  0
    2.4634    1.8428    0.9720 H   0  0  0  0  0  0  0  0  0  0  0  0
    4.7244    1.2437    0.0849 H   0  0  0  0  0  0  0  0  0  0  0  0
    4.6930   -0.2265    1.0727 H   0  0  0  0  0  0  0  0  0  0  0  0
    6.0343    3.7359    1.9714 H   0  0  0  0  0  0  0  0  0  0  0  0
   11.4987    3.4832    4.0635 H   0  0  0  0  0  0  0  0  0  0  0  0
    8.9761   -0.0951    2.9494 H   0  0  0  0  0  0  0  0  0  0  0  0
    7.6062   -1.6771    3.8843 H   0  0  0  0  0  0  0  0  0  0  0  0
    7.9000   -1.8973    2.1314 H   0  0  0  0  0  0  0  0  0  0  0  0
    5.7390   -3.0908    1.9247 H   0  0  0  0  0  0  0  0  0  0  0  0
    5.4497   -2.8829    3.6609 H   0  0  0  0  0  0  0  0  0  0  0  0
    6.8285   -6.1791    3.3793 H   0  0  0  0  0  0  0  0  0  0  0  0
    5.7280   -5.4398    2.1915 H   0  0  0  0  0  0  0  0  0  0  0  0
    5.4347   -5.2296    3.9491 H   0  0  0  0  0  0  0  0  0  0  0  0
    6.8851    5.4421    2.3986 H   0  0  0  0  0  0  0  0  0  0  0  0
    6.3199    7.7597    2.6624 H   0  0  0  0  0  0  0  0  0  0  0  0
    7.1695   10.0575    3.0377 H   0  0  0  0  0  0  0  0  0  0  0  0
    9.6249   10.4722    3.1220 H   0  0  0  0  0  0  0  0  0  0  0  0
   10.3159    6.3575    3.4730 H   0  0  0  0  0  0  0  0  0  0  0  0
   13.7691    8.7952    3.2783 H   0  0  0  0  0  0  0  0  0  0  0  0
  1  2  1  0  0  0  0
  1 30  1  0  0  0  0
  1 31  1  0  0  0  0
  1 32  1  0  0  0  0
  2  3  1  0  0  0  0
  3  4  1  0  0  0  0
  3 33  1  0  0  0  0
  3 34  1  0  0  0  0
  4  5  1  0  0  0  0
  4 35  1  0  0  0  0
  4 36  1  0  0  0  0
  5  6  1  0  0  0  0
  6  7  2  0  0  0  0
  6 15  1  0  0  0  0
  7  8  1  0  0  0  0
  7 37  1  0  0  0  0
  8  9  2  0  0  0  0
  8 13  1  0  0  0  0
  9 10  1  0  0  0  0
  9 21  1  0  0  0  0
 10 11  2  0  0  0  0
 11 12  1  0  0  0  0
 11 38  1  0  0  0  0
 12 13  2  0  0  0  0
 13 14  1  0  0  0  0
 14 15  2  0  0  0  0
 14 39  1  0  0  0  0
 15 16  1  0  0  0  0
 16 17  1  0  0  0  0
 17 18  1  0  0  0  0
 17 40  1  0  0  0  0
 17 41  1  0  0  0  0
 18 19  1  0  0  0  0
 18 42  1  0  0  0  0
 18 43  1  0  0  0  0
 19 20  1  0  0  0  0
 20 44  1  0  0  0  0
 20 45  1  0  0  0  0
 20 46  1  0  0  0  0
 21 22  1  0  0  0  0
 21 47  1  0  0  0  0
 22 23  2  0  0  0  0
 22 27  1  0  0  0  0
 23 24  1  0  0  0  0
 23 48  1  0  0  0  0
 24 25  2  0  0  0  0
 24 49  1  0  0  0  0
 25 26  1  0  0  0  0
 25 50  1  0  0  0  0
 26 27  2  0  0  0  0
 26 28  1  0  0  0  0
 27 51  1  0  0  0  0
 28 29  3  0  0  0  0
 29 52  1  0  0  0  0
M  END
$$$$
