AQZ
 OpenBabel04121316073D

 80 85  0  0  0  0  0  0  0  0999 V2000
    1.0954    0.0421    0.0774 C   0  0  0  0  0  0  0  0  0  0  0  0
    2.5186    0.0498   -0.0491 O   0  0  0  0  0  0  0  0  0  0  0  0
    3.0970    0.2121    1.1819 C   0  0  0  0  0  0  0  0  0  0  0  0
    3.3749    1.5100    1.6139 C   0  0  0  0  0  0  0  0  0  0  0  0
    3.8543    1.7399    2.8867 C   0  0  0  0  0  0  0  0  0  0  0  0
    3.9204    3.0011    3.3172 N   0  0  0  0  0  0  0  0  0  0  0  0
    4.3579    3.1559    4.5597 C   0  0  0  0  0  0  0  0  0  0  0  0
    4.7641    2.1655    5.3468 N   0  0  0  0  0  0  0  0  0  0  0  0
    4.6680    0.8929    4.9534 C   0  0  0  0  0  0  0  0  0  0  0  0
    4.2111    0.6280    3.6728 C   0  0  0  0  0  0  0  0  0  0  0  0
    4.0847   -0.6702    3.1648 C   0  0  0  0  0  0  0  0  0  0  0  0
    3.4534   -0.8932    1.9542 C   0  0  0  0  0  0  0  0  0  0  0  0
    3.1481   -2.1394    1.4879 O   0  0  0  0  0  0  0  0  0  0  0  0
    3.4719   -3.2312    2.3607 C   0  0  0  0  0  0  0  0  0  0  0  0
    2.9953   -4.5107    1.6927 C   0  0  0  0  0  0  0  0  0  0  0  0
    3.3092   -5.6942    2.5036 N   0  0  0  0  0  0  0  0  0  0  0  0
    2.1411   -6.1661    3.2551 C   0  0  0  0  0  0  0  0  0  0  0  0
    2.4899   -7.6064    3.5740 C   0  0  0  0  0  0  0  0  0  0  0  0
    3.2392   -8.0792    2.3415 C   0  0  0  0  0  0  0  0  0  0  0  0
    3.7483   -6.8150    1.6652 C   0  0  0  0  0  0  0  0  0  0  0  0
    4.9014   -0.1466    5.8969 N   0  0  0  0  0  0  0  0  0  0  0  0
    5.3616   -0.0164    7.2241 C   0  0  0  0  0  0  0  0  0  0  0  0
    5.2760    1.2143    7.8600 C   0  0  0  0  0  0  0  0  0  0  0  0
    5.9344    1.5451    9.0261 C   0  0  0  0  0  0  0  0  0  0  0  0
    6.4550    0.5022    9.7702 C   0  0  0  0  0  0  0  0  0  0  0  0
    6.3598   -0.8108    9.2754 C   0  0  0  0  0  0  0  0  0  0  0  0
    5.8972   -1.0691    7.9665 C   0  0  0  0  0  0  0  0  0  0  0  0
    6.0143   -2.4455    7.3822 C   0  0  0  0  0  0  0  0  0  0  0  0
    6.0511    2.8988    9.4235 N   0  0  0  0  0  0  0  0  0  0  0  0
    5.5987    3.9742    8.6680 C   0  0  0  0  0  0  0  0  0  0  0  0
    5.0429    3.9534    7.5654 O   0  0  0  0  0  0  0  0  0  0  0  0
    5.7619    5.3314    9.1835 C   0  0  0  0  0  0  0  0  0  0  0  0
    4.8197    6.2709    8.7936 C   0  0  0  0  0  0  0  0  0  0  0  0
    5.0282    7.5603    9.1991 C   0  0  0  0  0  0  0  0  0  0  0  0
    6.1520    7.9689    9.8397 N   0  0  0  0  0  0  0  0  0  0  0  0
    7.1016    7.0603   10.1702 C   0  0  0  0  0  0  0  0  0  0  0  0
    6.8704    5.7122    9.9213 C   0  0  0  0  0  0  0  0  0  0  0  0
    8.2817    7.4831   10.7436 N   0  0  0  0  0  0  0  0  0  0  0  0
    9.4343    6.6100   10.9925 C   0  0  0  0  0  0  0  0  0  0  0  0
   10.6483    7.0925   10.1946 C   0  0  0  0  0  0  0  0  0  0  0  0
   10.9728    8.4482   10.5233 O   0  0  0  0  0  0  0  0  0  0  0  0
    9.8663    9.3124   10.2018 C   0  0  0  0  0  0  0  0  0  0  0  0
    8.5771    8.9116   10.9521 C   0  0  0  0  0  0  0  0  0  0  0  0
    0.6800   -0.1248   -0.9202 H   0  0  0  0  0  0  0  0  0  0  0  0
    0.7222    1.0064    0.4416 H   0  0  0  0  0  0  0  0  0  0  0  0
    0.7474   -0.7681    0.7286 H   0  0  0  0  0  0  0  0  0  0  0  0
    3.1793    2.3565    0.9627 H   0  0  0  0  0  0  0  0  0  0  0  0
    4.3741    4.1499    4.9938 H   0  0  0  0  0  0  0  0  0  0  0  0
    4.4689   -1.5016    3.7369 H   0  0  0  0  0  0  0  0  0  0  0  0
    2.9766   -3.1129    3.3344 H   0  0  0  0  0  0  0  0  0  0  0  0
    4.5610   -3.2817    2.4939 H   0  0  0  0  0  0  0  0  0  0  0  0
    3.4861   -4.5546    0.7123 H   0  0  0  0  0  0  0  0  0  0  0  0
    1.9231   -4.4295    1.4737 H   0  0  0  0  0  0  0  0  0  0  0  0
    1.2285   -6.1430    2.6471 H   0  0  0  0  0  0  0  0  0  0  0  0
    1.9709   -5.5794    4.1638 H   0  0  0  0  0  0  0  0  0  0  0  0
    1.5984   -8.2126    3.7633 H   0  0  0  0  0  0  0  0  0  0  0  0
    3.1372   -7.6658    4.4565 H   0  0  0  0  0  0  0  0  0  0  0  0
    2.5563   -8.6048    1.6643 H   0  0  0  0  0  0  0  0  0  0  0  0
    4.0504   -8.7649    2.6039 H   0  0  0  0  0  0  0  0  0  0  0  0
    3.3424   -6.7633    0.6480 H   0  0  0  0  0  0  0  0  0  0  0  0
    4.8416   -6.8195    1.5903 H   0  0  0  0  0  0  0  0  0  0  0  0
    5.0403   -1.0626    5.5099 H   0  0  0  0  0  0  0  0  0  0  0  0
    4.6494    1.9554    7.4052 H   0  0  0  0  0  0  0  0  0  0  0  0
    6.9153    0.6803   10.7354 H   0  0  0  0  0  0  0  0  0  0  0  0
    6.6731   -1.6349    9.9117 H   0  0  0  0  0  0  0  0  0  0  0  0
    6.4200   -3.1575    8.1059 H   0  0  0  0  0  0  0  0  0  0  0  0
    6.6917   -2.4222    6.5206 H   0  0  0  0  0  0  0  0  0  0  0  0
    5.0340   -2.8090    7.0583 H   0  0  0  0  0  0  0  0  0  0  0  0
    6.5269    3.0700   10.2974 H   0  0  0  0  0  0  0  0  0  0  0  0
    3.9565    5.9899    8.1961 H   0  0  0  0  0  0  0  0  0  0  0  0
    4.2725    8.3163    9.0099 H   0  0  0  0  0  0  0  0  0  0  0  0
    7.5584    4.9494   10.2412 H   0  0  0  0  0  0  0  0  0  0  0  0
    9.2797    5.5614   10.7404 H   0  0  0  0  0  0  0  0  0  0  0  0
    9.6507    6.6482   12.0653 H   0  0  0  0  0  0  0  0  0  0  0  0
   10.4716    7.0119    9.1148 H   0  0  0  0  0  0  0  0  0  0  0  0
   11.5115    6.4662   10.4406 H   0  0  0  0  0  0  0  0  0  0  0  0
    9.7162    9.3006    9.1161 H   0  0  0  0  0  0  0  0  0  0  0  0
   10.1645   10.3269   10.4864 H   0  0  0  0  0  0  0  0  0  0  0  0
    7.7638    9.5867   10.6673 H   0  0  0  0  0  0  0  0  0  0  0  0
    8.7516    9.0495   12.0264 H   0  0  0  0  0  0  0  0  0  0  0  0
  1  2  1  0  0  0  0
  1 44  1  0  0  0  0
  1 45  1  0  0  0  0
  1 46  1  0  0  0  0
  2  3  1  0  0  0  0
  3  4  2  0  0  0  0
  3 12  1  0  0  0  0
  4  5  1  0  0  0  0
  4 47  1  0  0  0  0
  5  6  2  0  0  0  0
  5 10  1  0  0  0  0
  6  7  1  0  0  0  0
  7  8  2  0  0  0  0
  7 48  1  0  0  0  0
  8  9  1  0  0  0  0
  9 10  2  0  0  0  0
  9 21  1  0  0  0  0
 10 11  1  0  0  0  0
 11 12  2  0  0  0  0
 11 49  1  0  0  0  0
 12 13  1  0  0  0  0
 13 14  1  0  0  0  0
 14 15  1  0  0  0  0
 14 50  1  0  0  0  0
 14 51  1  0  0  0  0
 15 16  1  0  0  0  0
 15 52  1  0  0  0  0
 15 53  1  0  0  0  0
 16 17  1  0  0  0  0
 16 20  1  0  0  0  0
 17 18  1  0  0  0  0
 17 54  1  0  0  0  0
 17 55  1  0  0  0  0
 18 19  1  0  0  0  0
 18 56  1  0  0  0  0
 18 57  1  0  0  0  0
 19 20  1  0  0  0  0
 19 58  1  0  0  0  0
 19 59  1  0  0  0  0
 20 60  1  0  0  0  0
 20 61  1  0  0  0  0
 21 22  1  0  0  0  0
 21 62  1  0  0  0  0
 22 23  2  0  0  0  0
 22 27  1  0  0  0  0
 23 24  1  0  0  0  0
 23 63  1  0  0  0  0
 24 25  2  0  0  0  0
 24 29  1  0  0  0  0
 25 26  1  0  0  0  0
 25 64  1  0  0  0  0
 26 27  2  0  0  0  0
 26 65  1  0  0  0  0
 27 28  1  0  0  0  0
 28 66  1  0  0  0  0
 28 67  1  0  0  0  0
 28 68  1  0  0  0  0
 29 30  1  0  0  0  0
 29 69  1  0  0  0  0
 30 31  2  0  0  0  0
 30 32  1  0  0  0  0
 32 33  2  0  0  0  0
 32 37  1  0  0  0  0
 33 34  1  0  0  0  0
 33 70  1  0  0  0  0
 34 35  2  0  0  0  0
 34 71  1  0  0  0  0
 35 36  1  0  0  0  0
 36 37  2  0  0  0  0
 36 38  1  0  0  0  0
 37 72  1  0  0  0  0
 38 39  1  0  0  0  0
 38 43  1  0  0  0  0
 39 40  1  0  0  0  0
 39 73  1  0  0  0  0
 39 74  1  0  0  0  0
 40 41  1  0  0  0  0
 40 75  1  0  0  0  0
 40 76  1  0  0  0  0
 41 42  1  0  0  0  0
 42 43  1  0  0  0  0
 42 77  1  0  0  0  0
 42 78  1  0  0  0  0
 43 79  1  0  0  0  0
 43 80  1  0  0  0  0
M  END
$$$$
