ARE
 OpenBabel04121316073D

108112  0  0  1  0  0  0  0  0999 V2000
    9.4381    0.6614   -4.6119 O   0  0  0  0  0  0  0  0  0  0  0  0
    9.9951    0.2206   -3.3913 C   0  0  0  0  0  0  0  0  0  0  0  0
   10.5409   -1.1930   -3.5761 C   0  0  1  0  0  0  0  0  0  0  0  0
   11.5360   -0.9458   -3.3115 H   0  0  0  0  0  0  0  0  0  0  0  0
   10.2715   -2.0643   -2.5264 O   0  0  0  0  0  0  0  0  0  0  0  0
    8.9737   -2.5753   -2.4788 C   0  0  2  0  0  0  0  0  0  0  0  0
    8.2651   -1.7574   -2.3065 H   0  0  0  0  0  0  0  0  0  0  0  0
    9.0291   -3.4652   -1.3786 O   0  0  0  0  0  0  0  0  0  0  0  0
    9.3155   -2.7143   -0.1882 C   0  0  2  0  0  0  0  0  0  0  0  0
    9.7839   -1.7381   -0.3808 H   0  0  0  0  0  0  0  0  0  0  0  0
   10.3427   -3.5193    0.5440 C   0  0  0  0  0  0  0  0  0  0  0  0
   10.0677   -4.0451    1.7006 C   0  0  0  0  0  0  0  0  0  0  0  0
    8.7305   -4.0221    2.3483 C   0  0  1  0  0  0  0  0  0  0  0  0
    8.9017   -3.6301    3.3474 H   0  0  0  0  0  0  0  0  0  0  0  0
    7.6277   -3.1433    1.7431 C   0  0  1  0  0  0  0  0  0  0  0  0
    7.3607   -2.4174    2.5149 H   0  0  0  0  0  0  0  0  0  0  0  0
    7.9388   -2.4456    0.4359 C   0  0  1  0  0  0  0  0  0  0  0  0
    7.1729   -2.7252   -0.3014 H   0  0  0  0  0  0  0  0  0  0  0  0
    7.7500   -1.0295    0.6181 O   0  0  0  0  0  0  0  0  0  0  0  0
    6.3988   -3.8889    1.5306 O   0  0  0  0  0  0  0  0  0  0  0  0
    8.1968   -5.3725    2.3719 N   0  0  0  0  0  0  0  0  0  0  0  0
    9.1119   -6.2966    3.0173 C   0  0  2  0  0  0  0  0  0  0  0  0
   10.1708   -6.0871    2.8810 H   0  0  0  0  0  0  0  0  0  0  0  0
    8.9671   -7.6575    2.3984 C   0  0  1  0  0  0  0  0  0  0  0  0
    7.9256   -7.9075    2.6018 H   0  0  0  0  0  0  0  0  0  0  0  0
    9.2484   -7.7158    0.8823 C   0  0  0  0  0  0  0  0  0  0  0  0
    9.8900   -8.5261    3.0668 O   0  0  0  0  0  0  0  0  0  0  0  0
    9.5544   -8.7119    4.4403 C   0  0  1  0  0  0  0  0  0  0  0  0
   10.2414   -9.4469    4.8686 H   0  0  0  0  0  0  0  0  0  0  0  0
    9.7830   -7.3645    5.1585 C   0  0  1  0  0  0  0  0  0  0  0  0
   10.8225   -7.0451    4.9982 H   0  0  0  0  0  0  0  0  0  0  0  0
    8.8662   -6.3132    4.5352 C   0  0  1  0  0  0  0  0  0  0  0  0
    7.8137   -6.5281    4.7562 H   0  0  0  0  0  0  0  0  0  0  0  0
    9.1558   -5.0235    5.1043 O   0  0  0  0  0  0  0  0  0  0  0  0
    9.5753   -7.4118    6.5670 O   0  0  0  0  0  0  0  0  0  0  0  0
    8.2111   -9.1661    4.6147 O   0  0  0  0  0  0  0  0  0  0  0  0
    7.8657  -10.4457    4.0580 C   0  0  2  0  0  0  0  0  0  0  0  0
    6.7707  -10.4813    4.1264 H   0  0  0  0  0  0  0  0  0  0  0  0
    8.4136  -11.6447    4.8528 C   0  0  1  0  0  0  0  0  0  0  0  0
    9.5066  -11.5833    4.9225 H   0  0  0  0  0  0  0  0  0  0  0  0
    7.8692  -11.6781    6.2923 C   0  0  0  0  0  0  0  0  0  0  0  0
    8.2690  -10.5652    7.0781 O   0  0  0  0  0  0  0  0  0  0  0  0
    8.0449  -12.8873    4.2175 O   0  0  0  0  0  0  0  0  0  0  0  0
    8.5224  -13.0024    2.8804 C   0  0  1  0  0  0  0  0  0  0  0  0
    8.2313  -13.9725    2.4695 H   0  0  0  0  0  0  0  0  0  0  0  0
    7.9173  -11.9348    1.9796 C   0  0  1  0  0  0  0  0  0  0  0  0
    6.8278  -12.0226    1.9010 H   0  0  0  0  0  0  0  0  0  0  0  0
    8.2127  -10.5873    2.5633 C   0  0  1  0  0  0  0  0  0  0  0  0
    9.2840  -10.4241    2.4030 H   0  0  0  0  0  0  0  0  0  0  0  0
    7.4417   -9.6992    1.7382 O   0  0  0  0  0  0  0  0  0  0  0  0
    8.4677  -11.9375    0.6513 O   0  0  0  0  0  0  0  0  0  0  0  0
    9.9373  -12.9274    2.8924 O   0  0  0  0  0  0  0  0  0  0  0  0
   11.7184   -3.8109    0.0093 C   0  0  0  0  0  0  0  0  0  0  0  0
   11.9338   -3.2018   -1.2150 O   0  0  0  0  0  0  0  0  0  0  0  0
    8.6395   -3.3808   -3.7313 C   0  0  1  0  0  0  0  0  0  0  0  0
    7.5764   -3.6314   -3.6935 H   0  0  0  0  0  0  0  0  0  0  0  0
    8.9647   -2.5391   -4.9615 C   0  0  2  0  0  0  0  0  0  0  0  0
    8.8347   -3.1409   -5.8644 H   0  0  0  0  0  0  0  0  0  0  0  0
   10.4223   -1.9944   -4.9172 C   0  0  2  0  0  0  0  0  0  0  0  0
   10.5253   -1.3869   -5.8170 H   0  0  0  0  0  0  0  0  0  0  0  0
   11.3771   -3.0899   -5.0360 O   0  0  0  0  0  0  0  0  0  0  0  0
   12.8169   -2.9144   -5.1044 C   0  0  1  0  0  0  0  0  0  0  0  0
   13.2055   -3.8625   -4.7004 H   0  0  0  0  0  0  0  0  0  0  0  0
   13.3603   -2.8308   -6.4266 O   0  0  0  0  0  0  0  0  0  0  0  0
   13.1044   -1.5949   -7.0881 C   0  0  2  0  0  0  0  0  0  0  0  0
   12.0371   -1.5954   -7.3309 H   0  0  0  0  0  0  0  0  0  0  0  0
   13.8775   -1.5484   -8.4026 C   0  0  0  0  0  0  0  0  0  0  0  0
   13.4975   -0.4318   -9.1980 O   0  0  0  0  0  0  0  0  0  0  0  0
   13.4828   -0.3242   -6.2895 C   0  0  2  0  0  0  0  0  0  0  0  0
   14.5619   -0.1690   -6.2184 H   0  0  0  0  0  0  0  0  0  0  0  0
   12.9639   -0.4366   -4.8882 C   0  0  1  0  0  0  0  0  0  0  0  0
   11.9088   -0.3443   -5.0801 H   0  0  0  0  0  0  0  0  0  0  0  0
   13.4193   -1.7824   -4.2639 C   0  0  1  0  0  0  0  0  0  0  0  0
   14.5075   -1.7826   -4.2919 H   0  0  0  0  0  0  0  0  0  0  0  0
   13.1609   -2.0059   -2.8942 O   0  0  0  0  0  0  0  0  0  0  0  0
   13.2104    0.7292   -4.1104 O   0  0  0  0  0  0  0  0  0  0  0  0
   12.8804    0.8566   -6.8524 O   0  0  0  0  0  0  0  0  0  0  0  0
    7.9928   -1.4820   -5.0325 O   0  0  0  0  0  0  0  0  0  0  0  0
    9.3658   -4.6148   -3.7558 O   0  0  0  0  0  0  0  0  0  0  0  0
    8.9957    1.5110   -4.4415 H   0  0  0  0  0  0  0  0  0  0  0  0
    9.2739    0.2733   -2.5753 H   0  0  0  0  0  0  0  0  0  0  0  0
   10.8117    0.9091   -3.1227 H   0  0  0  0  0  0  0  0  0  0  0  0
   10.8924   -4.5793    2.1788 H   0  0  0  0  0  0  0  0  0  0  0  0
    6.9121   -0.9402    1.1111 H   0  0  0  0  0  0  0  0  0  0  0  0
    6.4590   -4.6378    2.1623 H   0  0  0  0  0  0  0  0  0  0  0  0
    7.9914   -5.6452    1.4074 H   0  0  0  0  0  0  0  0  0  0  0  0
    8.5471   -7.1150    0.2935 H   0  0  0  0  0  0  0  0  0  0  0  0
    9.1738   -8.7346    0.4867 H   0  0  0  0  0  0  0  0  0  0  0  0
   10.2669   -7.3905    0.6579 H   0  0  0  0  0  0  0  0  0  0  0  0
   10.0657   -4.7926    4.8574 H   0  0  0  0  0  0  0  0  0  0  0  0
   10.1523   -8.0941    6.9374 H   0  0  0  0  0  0  0  0  0  0  0  0
    8.2092  -12.5862    6.8015 H   0  0  0  0  0  0  0  0  0  0  0  0
    6.7745  -11.7171    6.2844 H   0  0  0  0  0  0  0  0  0  0  0  0
    9.2354  -10.5013    7.0478 H   0  0  0  0  0  0  0  0  0  0  0  0
    6.6066   -9.4866    2.1777 H   0  0  0  0  0  0  0  0  0  0  0  0
    8.1690  -12.7290    0.1872 H   0  0  0  0  0  0  0  0  0  0  0  0
   10.2334  -13.7449    3.3214 H   0  0  0  0  0  0  0  0  0  0  0  0
   11.8451   -4.8830   -0.1732 H   0  0  0  0  0  0  0  0  0  0  0  0
   12.4897   -3.4732    0.7089 H   0  0  0  0  0  0  0  0  0  0  0  0
   11.1042   -3.3357   -1.7134 H   0  0  0  0  0  0  0  0  0  0  0  0
   13.7166   -2.4577   -8.9832 H   0  0  0  0  0  0  0  0  0  0  0  0
   14.9507   -1.4734   -8.1927 H   0  0  0  0  0  0  0  0  0  0  0  0
   12.5282   -0.3682   -9.1966 H   0  0  0  0  0  0  0  0  0  0  0  0
   12.3775   -2.5948   -2.7876 H   0  0  0  0  0  0  0  0  0  0  0  0
   12.7306    1.4447   -4.5782 H   0  0  0  0  0  0  0  0  0  0  0  0
   11.9683    0.6485   -7.1217 H   0  0  0  0  0  0  0  0  0  0  0  0
    8.2996   -0.7172   -4.5097 H   0  0  0  0  0  0  0  0  0  0  0  0
    9.2863   -4.9868   -2.8568 H   0  0  0  0  0  0  0  0  0  0  0  0
  1  2  1  0  0  0  0
  1 80  1  0  0  0  0
  2  3  1  0  0  0  0
  2 81  1  0  0  0  0
  2 82  1  0  0  0  0
  3  4  1  1  0  0  0
  3  5  1  0  0  0  0
  3 59  1  0  0  0  0
  5  6  1  0  0  0  0
  6  7  1  1  0  0  0
  6  8  1  0  0  0  0
  6 55  1  0  0  0  0
  9 11  1  0  0  0  0
  9 17  1  0  0  0  0
  9 10  1  6  0  0  0
  9  8  1  0  0  0  0
 11 12  2  0  0  0  0
 11 53  1  0  0  0  0
 12 13  1  0  0  0  0
 12 83  1  0  0  0  0
 13 14  1  1  0  0  0
 13 15  1  0  0  0  0
 13 21  1  0  0  0  0
 15 16  1  1  0  0  0
 15 17  1  0  0  0  0
 15 20  1  0  0  0  0
 17 18  1  6  0  0  0
 17 19  1  0  0  0  0
 19 84  1  0  0  0  0
 20 85  1  0  0  0  0
 21 86  1  0  0  0  0
 22 24  1  0  0  0  0
 22 32  1  0  0  0  0
 22 23  1  6  0  0  0
 22 21  1  0  0  0  0
 24 25  1  1  0  0  0
 24 26  1  0  0  0  0
 24 27  1  0  0  0  0
 26 87  1  0  0  0  0
 26 88  1  0  0  0  0
 26 89  1  0  0  0  0
 27 28  1  0  0  0  0
 28 29  1  1  0  0  0
 28 30  1  0  0  0  0
 28 36  1  0  0  0  0
 30 31  1  6  0  0  0
 30 32  1  0  0  0  0
 30 35  1  0  0  0  0
 32 34  1  0  0  0  0
 32 33  1  1  0  0  0
 34 90  1  0  0  0  0
 35 91  1  0  0  0  0
 37 39  1  0  0  0  0
 37 48  1  0  0  0  0
 37 38  1  1  0  0  0
 37 36  1  0  0  0  0
 39 40  1  1  0  0  0
 39 41  1  0  0  0  0
 39 43  1  0  0  0  0
 41 42  1  0  0  0  0
 41 92  1  0  0  0  0
 41 93  1  0  0  0  0
 42 94  1  0  0  0  0
 43 44  1  0  0  0  0
 44 45  1  6  0  0  0
 44 46  1  0  0  0  0
 44 52  1  0  0  0  0
 46 47  1  6  0  0  0
 46 48  1  0  0  0  0
 46 51  1  0  0  0  0
 48 50  1  0  0  0  0
 48 49  1  6  0  0  0
 50 95  1  0  0  0  0
 51 96  1  0  0  0  0
 52 97  1  0  0  0  0
 53 54  1  0  0  0  0
 53 98  1  0  0  0  0
 53 99  1  0  0  0  0
 54100  1  0  0  0  0
 55 56  1  1  0  0  0
 55 57  1  0  0  0  0
 55 79  1  0  0  0  0
 57 59  1  0  0  0  0
 57 78  1  0  0  0  0
 57 58  1  6  0  0  0
 59 60  1  6  0  0  0
 59 61  1  0  0  0  0
 61 62  1  0  0  0  0
 62 63  1  1  0  0  0
 62 64  1  0  0  0  0
 62 73  1  0  0  0  0
 64 65  1  0  0  0  0
 65 66  1  6  0  0  0
 65 67  1  0  0  0  0
 65 69  1  0  0  0  0
 67 68  1  0  0  0  0
 67101  1  0  0  0  0
 67102  1  0  0  0  0
 68103  1  0  0  0  0
 69 71  1  0  0  0  0
 69 77  1  0  0  0  0
 69 70  1  1  0  0  0
 71 72  1  6  0  0  0
 71 73  1  0  0  0  0
 71 76  1  0  0  0  0
 73 75  1  0  0  0  0
 73 74  1  6  0  0  0
 75104  1  0  0  0  0
 76105  1  0  0  0  0
 77106  1  0  0  0  0
 78107  1  0  0  0  0
 79108  1  0  0  0  0
M  END
$$$$
