ARF
 OpenBabel04121316073D

  6  5  0  0  0  0  0  0  0  0999 V2000
    1.0030    0.0288   -0.0833 N   0  0  0  0  0  0  0  0  0  0  0  0
    2.3604    0.0784   -0.1133 C   0  0  0  0  0  0  0  0  0  0  0  0
    2.9850    0.9762   -0.6560 O   0  0  0  0  0  0  0  0  0  0  0  0
    0.4933   -0.7172    0.3676 H   0  0  0  0  0  0  0  0  0  0  0  0
    0.4900    0.7750   -0.5343 H   0  0  0  0  0  0  0  0  0  0  0  0
    2.8362   -0.7722    0.4008 H   0  0  0  0  0  0  0  0  0  0  0  0
  1  2  1  0  0  0  0
  1  4  1  0  0  0  0
  1  5  1  0  0  0  0
  2  3  2  0  0  0  0
  2  6  1  0  0  0  0
M  END
$$$$
