ARI
 OpenBabel04121316073D

 26 26  0  0  1  0  0  0  0  0999 V2000
    7.3347    0.1997    0.6479 C   0  0  0  0  0  0  0  0  0  0  0  0
    6.6328   -1.0180    1.2162 C   0  0  0  0  0  0  0  0  0  0  0  0
    7.2744   -2.0198    1.5783 O   0  0  0  0  0  0  0  0  0  0  0  0
    5.2919   -0.9672    1.4331 O   0  0  0  0  0  0  0  0  0  0  0  0
    4.6235    0.2808    1.2265 C   0  0  2  0  0  0  0  0  0  0  0  0
    3.5391    0.1227    1.3860 H   0  0  0  0  0  0  0  0  0  0  0  0
    4.6904    0.5931   -0.2914 C   0  0  0  0  0  0  0  0  0  0  0  0
    4.5007    2.0636   -0.5616 C   0  0  0  0  0  0  0  0  0  0  0  0
    5.0623    3.0145    0.5118 C   0  0  1  0  0  0  0  0  0  0  0  0
    4.6365    3.9966    0.3033 H   0  0  0  0  0  0  0  0  0  0  0  0
    4.6476    2.6770    1.8383 O   0  0  0  0  0  0  0  0  0  0  0  0
    5.0632    1.3932    2.3170 C   0  0  2  0  0  0  0  0  0  0  0  0
    4.4553    1.1589    3.2057 H   0  0  0  0  0  0  0  0  0  0  0  0
    6.5211    1.4981    2.9692 C   0  0  0  0  0  0  0  0  0  0  0  0
    6.4670    3.1932    0.4270 O   0  0  0  0  0  0  0  0  0  0  0  0
    8.2814    0.3740    1.1489 H   0  0  0  0  0  0  0  0  0  0  0  0
    6.7242    1.0286    0.9082 H   0  0  0  0  0  0  0  0  0  0  0  0
    7.4060    0.4240   -0.4140 H   0  0  0  0  0  0  0  0  0  0  0  0
    3.9892   -0.0376   -0.8632 H   0  0  0  0  0  0  0  0  0  0  0  0
    5.5930    0.2464   -0.7953 H   0  0  0  0  0  0  0  0  0  0  0  0
    3.4196    2.2049   -0.6175 H   0  0  0  0  0  0  0  0  0  0  0  0
    4.9358    2.2955   -1.5420 H   0  0  0  0  0  0  0  0  0  0  0  0
    6.5765    2.1499    3.8468 H   0  0  0  0  0  0  0  0  0  0  0  0
    7.2652    2.0016    2.3345 H   0  0  0  0  0  0  0  0  0  0  0  0
    6.9336    0.5219    3.2596 H   0  0  0  0  0  0  0  0  0  0  0  0
    6.7432    3.1499   -0.5016 H   0  0  0  0  0  0  0  0  0  0  0  0
  1  2  1  0  0  0  0
  1 16  1  0  0  0  0
  1 17  1  0  0  0  0
  1 18  1  0  0  0  0
  2  3  2  0  0  0  0
  2  4  1  0  0  0  0
  5  7  1  0  0  0  0
  5 12  1  0  0  0  0
  5  6  1  1  0  0  0
  5  4  1  0  0  0  0
  7  8  1  0  0  0  0
  7 19  1  0  0  0  0
  7 20  1  0  0  0  0
  8  9  1  0  0  0  0
  8 21  1  0  0  0  0
  8 22  1  0  0  0  0
  9 10  1  6  0  0  0
  9 11  1  0  0  0  0
  9 15  1  0  0  0  0
 11 12  1  0  0  0  0
 12 13  1  1  0  0  0
 12 14  1  0  0  0  0
 14 23  1  0  0  0  0
 14 24  1  0  0  0  0
 14 25  1  0  0  0  0
 15 26  1  0  0  0  0
M  END
$$$$
