ARV
 OpenBabel04121316073D

 34 33  0  0  1  0  0  0  0  0999 V2000
    1.1184    0.0119   -0.0928 N   0  0  0  0  0  0  0  0  0  0  0  0
    2.4657   -0.0036   -0.0765 C   0  0  0  0  0  0  0  0  0  0  0  0
    3.0798   -0.3462    1.0878 N   0  3  0  0  0  0  0  0  0  0  0  0
    2.5040   -0.5769    1.8828 H   0  0  0  0  0  0  0  0  0  0  0  0
    4.5198   -0.3830    1.2340 C   0  0  0  0  0  0  0  0  0  0  0  0
    5.0179   -0.7800    2.5552 C   0  0  0  0  0  0  0  0  0  0  0  0
    6.3497   -0.8290    2.7175 C   0  0  0  0  0  0  0  0  0  0  0  0
    3.1135    0.3219   -1.2300 N   0  0  0  0  0  0  0  0  0  0  0  0
    4.5653    0.3369   -1.3652 C   0  0  0  0  0  0  0  0  0  0  0  0
    5.0653    0.7739   -2.6923 C   0  0  0  0  0  0  0  0  0  0  0  0
    6.5967    0.8012   -2.6770 C   0  0  0  0  0  0  0  0  0  0  0  0
    7.1388    1.2245   -4.0392 C   0  0  1  0  0  0  0  0  0  0  0  0
    6.7704    0.5482   -4.8172 H   0  0  0  0  0  0  0  0  0  0  0  0
    6.7289    2.6794   -4.3952 C   0  0  0  0  0  0  0  0  0  0  0  0
    7.5119    3.6258   -4.4413 O   0  0  0  0  0  0  0  0  0  0  0  0
    5.4089    2.8835   -4.6142 O   0  0  0  0  0  0  0  0  0  0  0  0
    8.6054    1.1184   -4.0076 N   0  0  0  0  0  0  0  0  0  0  0  0
    0.5806   -0.2290    0.7304 H   0  0  0  0  0  0  0  0  0  0  0  0
    0.5880    0.2608   -0.9187 H   0  0  0  0  0  0  0  0  0  0  0  0
    4.8970    0.6297    1.0841 H   0  0  0  0  0  0  0  0  0  0  0  0
    4.9037   -1.1443    0.5543 H   0  0  0  0  0  0  0  0  0  0  0  0
    4.3389   -1.0222    3.3581 H   0  0  0  0  0  0  0  0  0  0  0  0
    7.0363   -0.5830    1.9033 H   0  0  0  0  0  0  0  0  0  0  0  0
    6.7961   -1.1127    3.6608 H   0  0  0  0  0  0  0  0  0  0  0  0
    2.5462    0.5860   -2.0264 H   0  0  0  0  0  0  0  0  0  0  0  0
    4.9499   -0.6713   -1.2261 H   0  0  0  0  0  0  0  0  0  0  0  0
    4.9584    1.0921   -0.6842 H   0  0  0  0  0  0  0  0  0  0  0  0
    4.6537    1.7742   -2.8058 H   0  0  0  0  0  0  0  0  0  0  0  0
    4.6885    0.1146   -3.4784 H   0  0  0  0  0  0  0  0  0  0  0  0
    6.9781   -0.1971   -2.4066 H   0  0  0  0  0  0  0  0  0  0  0  0
    6.9555    1.4786   -1.8872 H   0  0  0  0  0  0  0  0  0  0  0  0
    4.8455    2.0931   -4.6681 H   0  0  0  0  0  0  0  0  0  0  0  0
    8.9342    0.2099   -3.6928 H   0  0  0  0  0  0  0  0  0  0  0  0
    8.9871    1.8244   -3.3719 H   0  0  0  0  0  0  0  0  0  0  0  0
  1  2  1  0  0  0  0
  1 18  1  0  0  0  0
  1 19  1  0  0  0  0
  2  3  2  0  0  0  0
  2  8  1  0  0  0  0
  3  4  1  0  0  0  0
  3  5  1  0  0  0  0
  5  6  1  0  0  0  0
  5 20  1  0  0  0  0
  5 21  1  0  0  0  0
  6  7  2  0  0  0  0
  6 22  1  0  0  0  0
  7 23  1  0  0  0  0
  7 24  1  0  0  0  0
  8  9  1  0  0  0  0
  8 25  1  0  0  0  0
  9 10  1  0  0  0  0
  9 26  1  0  0  0  0
  9 27  1  0  0  0  0
 10 11  1  0  0  0  0
 10 28  1  0  0  0  0
 10 29  1  0  0  0  0
 11 12  1  0  0  0  0
 11 30  1  0  0  0  0
 11 31  1  0  0  0  0
 12 13  1  6  0  0  0
 12 14  1  0  0  0  0
 12 17  1  0  0  0  0
 14 15  2  0  0  0  0
 14 16  1  0  0  0  0
 16 32  1  0  0  0  0
 17 33  1  0  0  0  0
 17 34  1  0  0  0  0
M  CHG  1   3   1
M  END
$$$$
