AS6
 OpenBabel04121316073D

 69 72  0  0  0  0  0  0  0  0999 V2000
    0.9885    0.1592   -0.1115 O   0  0  0  0  0  0  0  0  0  0  0  0
    2.4048    0.1478   -0.0687 C   0  0  0  0  0  0  0  0  0  0  0  0
    2.8334   -0.8609    0.9479 C   0  0  0  0  0  0  0  0  0  0  0  0
    3.8639   -0.5794    1.8199 C   0  0  0  0  0  0  0  0  0  0  0  0
    4.2603   -1.5555    2.6816 C   0  0  0  0  0  0  0  0  0  0  0  0
    3.8249   -2.8565    2.4855 C   0  0  0  0  0  0  0  0  0  0  0  0
    2.7937   -3.2436    1.6421 C   0  0  0  0  0  0  0  0  0  0  0  0
    2.2150   -2.1258    1.0061 C   0  0  0  0  0  0  0  0  0  0  0  0
    2.4129   -4.6301    1.3856 N   0  0  0  0  0  0  0  0  0  0  0  0
    2.7934   -5.9162    1.9910 C   0  0  0  0  0  0  0  0  0  0  0  0
    3.2664   -6.1147    3.2665 C   0  0  0  0  0  0  0  0  0  0  0  0
    3.1930   -7.3015    3.9502 C   0  0  0  0  0  0  0  0  0  0  0  0
    3.0392   -8.4403    3.3130 N   0  0  0  0  0  0  0  0  0  0  0  0
    2.8534   -8.2895    2.0027 C   0  0  0  0  0  0  0  0  0  0  0  0
    2.6713   -7.0896    1.3819 N   0  0  0  0  0  0  0  0  0  0  0  0
    2.8730   -9.4498    1.2400 N   0  0  0  0  0  0  0  0  0  0  0  0
    2.5147   -9.6059   -0.1009 C   0  0  0  0  0  0  0  0  0  0  0  0
    2.2635  -10.8562   -0.6189 C   0  0  0  0  0  0  0  0  0  0  0  0
    1.8290  -10.9732   -1.9416 C   0  0  0  0  0  0  0  0  0  0  0  0
    1.5244   -9.8709   -2.7178 C   0  0  0  0  0  0  0  0  0  0  0  0
    1.7680   -8.6221   -2.2455 C   0  0  0  0  0  0  0  0  0  0  0  0
    2.3860   -8.5262   -0.9981 C   0  0  0  0  0  0  0  0  0  0  0  0
    1.3209   -7.3661   -3.4040 S   0  0  0  0  0  0  0  0  0  0  0  0
    2.2689   -7.4556   -4.5186 O   0  0  0  0  0  0  0  0  0  0  0  0
   -0.1030   -7.4057   -3.5959 O   0  0  0  0  0  0  0  0  0  0  0  0
    1.6356   -5.8433   -2.7383 C   0  0  0  0  0  0  0  0  0  0  0  0
    1.6902  -12.1740   -2.5489 N   0  0  0  0  0  0  0  0  0  0  0  0
    2.7932  -12.7627   -3.2782 C   0  0  0  0  0  0  0  0  0  0  0  0
    3.0916  -14.1155   -2.6351 C   0  0  0  0  0  0  0  0  0  0  0  0
    1.9054  -14.9349   -2.5522 O   0  0  0  0  0  0  0  0  0  0  0  0
    0.8769  -14.2876   -1.7719 C   0  0  0  0  0  0  0  0  0  0  0  0
    0.4822  -12.9381   -2.3655 C   0  0  0  0  0  0  0  0  0  0  0  0
    1.3481   -4.6382    0.2985 C   0  0  0  0  0  0  0  0  0  0  0  0
    1.9304   -3.9367   -1.0074 C   0  0  0  0  0  0  0  0  0  0  0  0
    0.7226   -6.0233    0.0944 C   0  0  0  0  0  0  0  0  0  0  0  0
    4.5411   -3.8072    3.3017 C   0  0  0  0  0  0  0  0  0  0  0  0
    0.7306    0.8487   -0.7403 H   0  0  0  0  0  0  0  0  0  0  0  0
    2.7671    1.1394    0.2144 H   0  0  0  0  0  0  0  0  0  0  0  0
    2.8026   -0.1102   -1.0596 H   0  0  0  0  0  0  0  0  0  0  0  0
    4.3454    0.3845    1.8740 H   0  0  0  0  0  0  0  0  0  0  0  0
    4.9587   -1.3703    3.4879 H   0  0  0  0  0  0  0  0  0  0  0  0
    1.3037   -2.1884    0.4112 H   0  0  0  0  0  0  0  0  0  0  0  0
    4.2456   -5.7722    3.5735 H   0  0  0  0  0  0  0  0  0  0  0  0
    3.4817   -7.2917    4.9965 H   0  0  0  0  0  0  0  0  0  0  0  0
    3.0261  -10.2542    1.8327 H   0  0  0  0  0  0  0  0  0  0  0  0
    2.4508  -11.7452   -0.0240 H   0  0  0  0  0  0  0  0  0  0  0  0
    1.1668   -9.9926   -3.7358 H   0  0  0  0  0  0  0  0  0  0  0  0
    2.8758   -7.6123   -0.7067 H   0  0  0  0  0  0  0  0  0  0  0  0
    2.5607   -5.9605   -2.1791 H   0  0  0  0  0  0  0  0  0  0  0  0
    0.7407   -5.6179   -2.1684 H   0  0  0  0  0  0  0  0  0  0  0  0
    1.7222   -5.0479   -3.4750 H   0  0  0  0  0  0  0  0  0  0  0  0
    3.6902  -12.1273   -3.2768 H   0  0  0  0  0  0  0  0  0  0  0  0
    2.4775  -12.8877   -4.3191 H   0  0  0  0  0  0  0  0  0  0  0  0
    3.4980  -13.9787   -1.6252 H   0  0  0  0  0  0  0  0  0  0  0  0
    3.8345  -14.6459   -3.2352 H   0  0  0  0  0  0  0  0  0  0  0  0
    1.2392  -14.1668   -0.7433 H   0  0  0  0  0  0  0  0  0  0  0  0
    0.0006  -14.9387   -1.7520 H   0  0  0  0  0  0  0  0  0  0  0  0
   -0.2399  -12.4199   -1.7203 H   0  0  0  0  0  0  0  0  0  0  0  0
    0.0212  -13.0605   -3.3501 H   0  0  0  0  0  0  0  0  0  0  0  0
    0.4751   -4.0587    0.6195 H   0  0  0  0  0  0  0  0  0  0  0  0
    2.8673   -4.4006   -1.3244 H   0  0  0  0  0  0  0  0  0  0  0  0
    2.3011   -2.9119   -1.0210 H   0  0  0  0  0  0  0  0  0  0  0  0
    1.1392   -3.8090   -1.7518 H   0  0  0  0  0  0  0  0  0  0  0  0
    1.5167   -6.5399   -0.3839 H   0  0  0  0  0  0  0  0  0  0  0  0
   -0.1260   -6.1833   -0.5737 H   0  0  0  0  0  0  0  0  0  0  0  0
    0.4567   -6.5501    1.0159 H   0  0  0  0  0  0  0  0  0  0  0  0
    5.3178   -3.5051    3.9886 H   0  0  0  0  0  0  0  0  0  0  0  0
    5.0036   -4.4812    2.5627 H   0  0  0  0  0  0  0  0  0  0  0  0
    3.7134   -4.1047    3.9555 H   0  0  0  0  0  0  0  0  0  0  0  0
  1  2  1  0  0  0  0
  1 37  1  0  0  0  0
  2  3  1  0  0  0  0
  2 38  1  0  0  0  0
  2 39  1  0  0  0  0
  3  4  2  0  0  0  0
  3  8  1  0  0  0  0
  4  5  1  0  0  0  0
  4 40  1  0  0  0  0
  5  6  2  0  0  0  0
  5 41  1  0  0  0  0
  6  7  1  0  0  0  0
  6 36  1  0  0  0  0
  7  8  2  0  0  0  0
  7  9  1  0  0  0  0
  8 42  1  0  0  0  0
  9 10  1  0  0  0  0
  9 33  1  0  0  0  0
 10 11  2  0  0  0  0
 10 15  1  0  0  0  0
 11 12  1  0  0  0  0
 11 43  1  0  0  0  0
 12 13  2  0  0  0  0
 12 44  1  0  0  0  0
 13 14  1  0  0  0  0
 14 15  2  0  0  0  0
 14 16  1  0  0  0  0
 16 17  1  0  0  0  0
 16 45  1  0  0  0  0
 17 18  2  0  0  0  0
 17 22  1  0  0  0  0
 18 19  1  0  0  0  0
 18 46  1  0  0  0  0
 19 20  2  0  0  0  0
 19 27  1  0  0  0  0
 20 21  1  0  0  0  0
 20 47  1  0  0  0  0
 21 22  2  0  0  0  0
 21 23  1  0  0  0  0
 22 48  1  0  0  0  0
 23 24  2  0  0  0  0
 23 25  2  0  0  0  0
 23 26  1  0  0  0  0
 26 49  1  0  0  0  0
 26 50  1  0  0  0  0
 26 51  1  0  0  0  0
 27 28  1  0  0  0  0
 27 32  1  0  0  0  0
 28 29  1  0  0  0  0
 28 52  1  0  0  0  0
 28 53  1  0  0  0  0
 29 30  1  0  0  0  0
 29 54  1  0  0  0  0
 29 55  1  0  0  0  0
 30 31  1  0  0  0  0
 31 32  1  0  0  0  0
 31 56  1  0  0  0  0
 31 57  1  0  0  0  0
 32 58  1  0  0  0  0
 32 59  1  0  0  0  0
 33 34  1  0  0  0  0
 33 35  1  0  0  0  0
 33 60  1  0  0  0  0
 34 61  1  0  0  0  0
 34 62  1  0  0  0  0
 34 63  1  0  0  0  0
 35 64  1  0  0  0  0
 35 65  1  0  0  0  0
 35 66  1  0  0  0  0
 36 67  1  0  0  0  0
 36 68  1  0  0  0  0
 36 69  1  0  0  0  0
M  END
$$$$
