ASA
 OpenBabel04121316073D

 15 14  0  0  1  0  0  0  0  0999 V2000
    2.6940    2.2655   -1.8971 O   0  0  0  0  0  0  0  0  0  0  0  0
    2.6470    2.4230   -0.6804 C   0  0  0  0  0  0  0  0  0  0  0  0
    3.0006    1.3470    0.3557 C   0  0  2  0  0  0  0  0  0  0  0  0
    2.4611    0.4336    0.0770 H   0  0  0  0  0  0  0  0  0  0  0  0
    2.5857    1.7959    1.7641 C   0  0  0  0  0  0  0  0  0  0  0  0
    1.0937    2.0291    1.8135 C   0  0  0  0  0  0  0  0  0  0  0  0
    0.3426    1.8769    0.8610 O   0  0  0  0  0  0  0  0  0  0  0  0
    0.6433    2.4679    3.0050 O   0  0  0  0  0  0  0  0  0  0  0  0
    4.4483    1.0785    0.2935 N   0  0  0  0  0  0  0  0  0  0  0  0
    2.3917    3.4147   -0.2664 H   0  0  0  0  0  0  0  0  0  0  0  0
    3.0987    2.7278    2.0317 H   0  0  0  0  0  0  0  0  0  0  0  0
    2.8444    1.0236    2.4982 H   0  0  0  0  0  0  0  0  0  0  0  0
    1.3092    2.5641    3.7104 H   0  0  0  0  0  0  0  0  0  0  0  0
    4.7155    0.3500    0.9513 H   0  0  0  0  0  0  0  0  0  0  0  0
    4.9942    1.9105    0.5050 H   0  0  0  0  0  0  0  0  0  0  0  0
  1  2  2  0  0  0  0
  2 10  1  0  0  0  0
  3  5  1  0  0  0  0
  3  9  1  0  0  0  0
  3  4  1  6  0  0  0
  3  2  1  0  0  0  0
  5  6  1  0  0  0  0
  5 11  1  0  0  0  0
  5 12  1  0  0  0  0
  6  7  2  0  0  0  0
  6  8  1  0  0  0  0
  8 13  1  0  0  0  0
  9 14  1  0  0  0  0
  9 15  1  0  0  0  0
M  END
$$$$
