ASG
 OpenBabel04121316083D

 34 34  0  0  1  0  0  0  0  0999 V2000
    1.1046    0.1451    0.0454 O   0  0  0  0  0  0  0  0  0  0  0  0
    2.5151    0.1840   -0.1361 C   0  0  0  0  0  0  0  0  0  0  0  0
    3.0099   -0.9936   -1.0080 C   0  0  1  0  0  0  0  0  0  0  0  0
    3.4450   -0.5321   -1.9051 H   0  0  0  0  0  0  0  0  0  0  0  0
    4.1095   -1.6701   -0.3543 O   0  0  0  0  0  0  0  0  0  0  0  0
    3.7286   -2.5236    0.7380 C   0  0  1  0  0  0  0  0  0  0  0  0
    4.6470   -3.0106    1.0834 H   0  0  0  0  0  0  0  0  0  0  0  0
    3.2626   -1.7687    1.8423 O   0  0  0  0  0  0  0  0  0  0  0  0
    2.7273   -3.6144    0.2902 C   0  0  1  0  0  0  0  0  0  0  0  0
    2.4020   -4.1773    1.1742 H   0  0  0  0  0  0  0  0  0  0  0  0
    1.4936   -2.9353   -0.3395 C   0  0  2  0  0  0  0  0  0  0  0  0
    0.7823   -3.6635   -0.7292 H   0  0  0  0  0  0  0  0  0  0  0  0
    1.9731   -2.0334   -1.4992 C   0  0  1  0  0  0  0  0  0  0  0  0
    2.5306   -2.6778   -2.1940 H   0  0  0  0  0  0  0  0  0  0  0  0
    0.8815   -1.4805   -2.2361 O   0  0  0  0  0  0  0  0  0  0  0  0
    0.3595   -2.3506   -3.5178 S   0  0  0  0  0  0  0  0  0  0  0  0
    1.3409   -2.1776   -4.5733 O   0  0  0  0  0  0  0  0  0  0  0  0
   -0.0448   -3.6558   -3.0748 O   0  0  0  0  0  0  0  0  0  0  0  0
   -0.9571   -1.5558   -3.9937 O   0  0  0  0  0  0  0  0  0  0  0  0
    0.7911   -2.2632    0.7178 O   0  0  0  0  0  0  0  0  0  0  0  0
    3.3599   -4.5537   -0.6336 N   0  0  0  0  0  0  0  0  0  0  0  0
    2.6546   -5.6244   -1.1204 C   0  0  0  0  0  0  0  0  0  0  0  0
    1.5075   -5.8840   -0.7776 O   0  0  0  0  0  0  0  0  0  0  0  0
    3.3808   -6.4563   -2.1269 C   0  0  0  0  0  0  0  0  0  0  0  0
    0.8618    0.8475    0.6763 H   0  0  0  0  0  0  0  0  0  0  0  0
    2.9826    0.1972    0.8501 H   0  0  0  0  0  0  0  0  0  0  0  0
    2.7922    1.1426   -0.5836 H   0  0  0  0  0  0  0  0  0  0  0  0
    2.3035   -1.6438    1.7029 H   0  0  0  0  0  0  0  0  0  0  0  0
   -0.6962   -0.6978   -4.3764 H   0  0  0  0  0  0  0  0  0  0  0  0
    0.6820   -1.3213    0.4714 H   0  0  0  0  0  0  0  0  0  0  0  0
    4.3087   -4.3721   -0.9445 H   0  0  0  0  0  0  0  0  0  0  0  0
    4.4033   -6.1071   -2.2874 H   0  0  0  0  0  0  0  0  0  0  0  0
    2.8362   -6.4131   -3.0739 H   0  0  0  0  0  0  0  0  0  0  0  0
    3.4049   -7.4815   -1.7522 H   0  0  0  0  0  0  0  0  0  0  0  0
  1  2  1  0  0  0  0
  1 25  1  0  0  0  0
  2  3  1  0  0  0  0
  2 26  1  0  0  0  0
  2 27  1  0  0  0  0
  3  4  1  6  0  0  0
  3  5  1  0  0  0  0
  3 13  1  0  0  0  0
  5  6  1  0  0  0  0
  6  9  1  0  0  0  0
  6  8  1  0  0  0  0
  6  7  1  1  0  0  0
  8 28  1  0  0  0  0
  9 10  1  1  0  0  0
  9 11  1  0  0  0  0
  9 21  1  0  0  0  0
 11 13  1  0  0  0  0
 11 20  1  0  0  0  0
 11 12  1  6  0  0  0
 13 15  1  0  0  0  0
 13 14  1  6  0  0  0
 15 16  1  0  0  0  0
 16 17  2  0  0  0  0
 16 18  2  0  0  0  0
 16 19  1  0  0  0  0
 19 29  1  0  0  0  0
 20 30  1  0  0  0  0
 21 22  1  0  0  0  0
 21 31  1  0  0  0  0
 22 23  2  0  0  0  0
 22 24  1  0  0  0  0
 24 32  1  0  0  0  0
 24 33  1  0  0  0  0
 24 34  1  0  0  0  0
M  END
$$$$
