AT1
 OpenBabel04121316083D

 40 40  0  0  1  0  0  0  0  0999 V2000
    2.7270    3.0160   -1.8972 O   0  0  0  0  0  0  0  0  0  0  0  0
    2.7635    1.6739   -1.8156 C   0  0  0  0  0  0  0  0  0  0  0  0
    2.5717    0.9396   -2.7858 O   0  0  0  0  0  0  0  0  0  0  0  0
    3.2098    1.1962   -0.4398 C   0  0  2  0  0  0  0  0  0  0  0  0
    2.9030    0.1820   -0.3439 H   0  0  0  0  0  0  0  0  0  0  0  0
    2.6413    2.0157    0.7063 C   0  0  0  0  0  0  0  0  0  0  0  0
    1.1933    2.3552    0.6313 C   0  0  0  0  0  0  0  0  0  0  0  0
    0.0502    1.4985    0.5954 C   0  0  0  0  0  0  0  0  0  0  0  0
   -1.0789    2.2078    0.5124 N   0  0  0  0  0  0  0  0  0  0  0  0
   -0.7019    3.5445    0.5193 O   0  0  0  0  0  0  0  0  0  0  0  0
    0.6603    3.6463    0.5979 C   0  0  0  0  0  0  0  0  0  0  0  0
    1.2510    5.0618    0.6301 C   0  0  0  0  0  0  0  0  0  0  0  0
    0.9066    5.8471   -0.6446 C   0  0  0  0  0  0  0  0  0  0  0  0
    0.7809    5.8346    1.8708 C   0  0  0  0  0  0  0  0  0  0  0  0
    2.7846    5.0490    0.7199 C   0  0  0  0  0  0  0  0  0  0  0  0
   -0.1316    0.1413    0.6451 O   0  0  0  0  0  0  0  0  0  0  0  0
    1.0635   -0.6698    0.6030 C   0  0  0  0  0  0  0  0  0  0  0  0
    0.7289   -2.4689    0.5904 P   0  0  0  0  0  0  0  0  0  0  0  0
    0.8128   -2.4969    2.1151 O   0  0  0  0  0  0  0  0  0  0  0  0
   -0.8162   -2.2344    0.0989 O   0  0  0  0  0  0  0  0  0  0  0  0
    0.4126   -4.1697    0.5786 O   0  0  0  0  0  0  0  0  0  0  0  0
    4.6706    1.0318   -0.3512 N   0  0  0  0  0  0  0  0  0  0  0  0
    3.4063    3.3140   -2.5309 H   0  0  0  0  0  0  0  0  0  0  0  0
    3.2658    2.8892    0.6741 H   0  0  0  0  0  0  0  0  0  0  0  0
    2.8555    1.6083    1.6994 H   0  0  0  0  0  0  0  0  0  0  0  0
   -0.1641    6.0517   -0.7296 H   0  0  0  0  0  0  0  0  0  0  0  0
    1.2197    5.3034   -1.5432 H   0  0  0  0  0  0  0  0  0  0  0  0
    1.4323    6.8116   -0.6536 H   0  0  0  0  0  0  0  0  0  0  0  0
   -0.2929    6.0370    1.8516 H   0  0  0  0  0  0  0  0  0  0  0  0
    1.3012    6.7998    1.9390 H   0  0  0  0  0  0  0  0  0  0  0  0
    1.0100    5.2793    2.7881 H   0  0  0  0  0  0  0  0  0  0  0  0
    3.2138    4.6053   -0.1830 H   0  0  0  0  0  0  0  0  0  0  0  0
    3.1052    4.5102    1.6201 H   0  0  0  0  0  0  0  0  0  0  0  0
    3.2380    6.0391    0.7903 H   0  0  0  0  0  0  0  0  0  0  0  0
    1.7554   -0.3969    1.4008 H   0  0  0  0  0  0  0  0  0  0  0  0
    1.4038   -0.6157   -0.4255 H   0  0  0  0  0  0  0  0  0  0  0  0
   -1.1458   -1.3132    0.1784 H   0  0  0  0  0  0  0  0  0  0  0  0
    1.0984   -4.6210    1.1029 H   0  0  0  0  0  0  0  0  0  0  0  0
    4.8900    0.6788    0.5821 H   0  0  0  0  0  0  0  0  0  0  0  0
    5.1430    1.9249   -0.4473 H   0  0  0  0  0  0  0  0  0  0  0  0
  1  2  1  0  0  0  0
  1 23  1  0  0  0  0
  2  3  2  0  0  0  0
  4  6  1  0  0  0  0
  4 22  1  0  0  0  0
  4  5  1  1  0  0  0
  4  2  1  0  0  0  0
  6  7  1  0  0  0  0
  6 24  1  0  0  0  0
  6 25  1  0  0  0  0
  7  8  1  0  0  0  0
  7 11  2  0  0  0  0
  8  9  2  0  0  0  0
  8 16  1  0  0  0  0
  9 10  1  0  0  0  0
 10 11  1  0  0  0  0
 11 12  1  0  0  0  0
 12 13  1  0  0  0  0
 12 14  1  0  0  0  0
 12 15  1  0  0  0  0
 13 26  1  0  0  0  0
 13 27  1  0  0  0  0
 13 28  1  0  0  0  0
 14 29  1  0  0  0  0
 14 30  1  0  0  0  0
 14 31  1  0  0  0  0
 15 32  1  0  0  0  0
 15 33  1  0  0  0  0
 15 34  1  0  0  0  0
 16 17  1  0  0  0  0
 17 18  1  0  0  0  0
 17 35  1  0  0  0  0
 17 36  1  0  0  0  0
 18 19  2  0  0  0  0
 18 20  1  0  0  0  0
 18 21  1  0  0  0  0
 20 37  1  0  0  0  0
 21 38  1  0  0  0  0
 22 39  1  0  0  0  0
 22 40  1  0  0  0  0
M  END
$$$$
