ATG
 OpenBabel04121316083D

 47 49  0  0  1  0  0  0  0  0999 V2000
    0.6689   -1.6371    9.0240 O   0  0  0  0  0  0  0  0  0  0  0  0
    1.8925   -0.9199    8.9029 C   0  0  2  0  0  0  0  0  0  0  0  0
    1.9243   -0.1941    9.7231 H   0  0  0  0  0  0  0  0  0  0  0  0
    1.9515   -0.2473    7.5536 C   0  0  1  0  0  0  0  0  0  0  0  0
    0.9557    0.0227    7.2060 H   0  0  0  0  0  0  0  0  0  0  0  0
    2.8976    0.9337    7.6014 C   0  0  0  0  0  0  0  0  0  0  0  0
    2.3529    2.0606    8.3434 O   0  0  0  0  0  0  0  0  0  0  0  0
    3.4208    3.4217    8.3432 P   0  0  1  0  0  0  0  0  0  0  0  0
    4.6796    2.5975    8.0844 O   0  0  0  0  0  0  0  0  0  0  0  0
    2.7070    3.9816    6.8702 O   0  0  0  0  0  0  0  0  0  0  0  0
    1.4622    2.8850    6.3794 P   0  0  1  0  0  0  0  0  0  0  0  0
    0.4445    3.3800    7.4198 O   0  0  0  0  0  0  0  0  0  0  0  0
    1.4048    3.6986    4.9705 O   0  0  0  0  0  0  0  0  0  0  0  0
    1.5762    5.3128    4.7118 P   0  0  2  0  0  0  0  0  0  0  0  0
    2.3444    5.1962    3.3772 O   0  0  0  0  0  0  0  0  0  0  0  0
    3.2832    6.3366    5.5880 S   0  0  0  0  0  0  0  0  0  0  0  0
    0.7156    5.4434    6.2068 O   0  0  0  0  0  0  0  0  0  0  0  0
    0.2174    1.7885    5.8885 O   0  0  0  0  0  0  0  0  0  0  0  0
    4.4888    4.7828    8.3431 O   0  0  0  0  0  0  0  0  0  0  0  0
    2.4935   -1.2247    6.6514 O   0  0  0  0  0  0  0  0  0  0  0  0
    3.4883   -1.9855    7.3651 C   0  0  2  0  0  0  0  0  0  0  0  0
    3.4136   -3.0305    7.0470 H   0  0  0  0  0  0  0  0  0  0  0  0
    3.1390   -1.8087    8.8696 C   0  0  2  0  0  0  0  0  0  0  0  0
    3.9194   -1.2786    9.4211 H   0  0  0  0  0  0  0  0  0  0  0  0
    2.9177   -3.0488    9.5287 O   0  0  0  0  0  0  0  0  0  0  0  0
    4.8275   -1.5406    6.9661 N   0  0  0  0  0  0  0  0  0  0  0  0
    5.9021   -1.3602    7.8030 C   0  0  0  0  0  0  0  0  0  0  0  0
    6.9780   -0.9487    7.1626 N   0  0  0  0  0  0  0  0  0  0  0  0
    6.5972   -0.8830    5.8478 C   0  0  0  0  0  0  0  0  0  0  0  0
    5.2625   -1.2560    5.6890 C   0  0  0  0  0  0  0  0  0  0  0  0
    4.5900   -1.3158    4.5351 N   0  0  0  0  0  0  0  0  0  0  0  0
    5.3702   -0.9517    3.4893 C   0  0  0  0  0  0  0  0  0  0  0  0
    6.6706   -0.5756    3.5018 N   0  0  0  0  0  0  0  0  0  0  0  0
    7.3094   -0.5397    4.6873 C   0  0  0  0  0  0  0  0  0  0  0  0
    8.6466   -0.1980    4.7228 N   0  0  0  0  0  0  0  0  0  0  0  0
    0.6824   -2.3636    8.3777 H   0  0  0  0  0  0  0  0  0  0  0  0
    3.1471    1.2281    6.5703 H   0  0  0  0  0  0  0  0  0  0  0  0
    3.8432    0.6292    8.0451 H   0  0  0  0  0  0  0  0  0  0  0  0
    2.9515    7.5757    5.2214 H   0  0  0  0  0  0  0  0  0  0  0  0
    0.6445    6.3698    6.4967 H   0  0  0  0  0  0  0  0  0  0  0  0
   -0.3870    1.7548    6.6583 H   0  0  0  0  0  0  0  0  0  0  0  0
    5.3360    4.4729    8.7162 H   0  0  0  0  0  0  0  0  0  0  0  0
    3.7462   -3.5576    9.5200 H   0  0  0  0  0  0  0  0  0  0  0  0
    5.8771   -1.5201    8.8677 H   0  0  0  0  0  0  0  0  0  0  0  0
    4.8984   -0.9666    2.5125 H   0  0  0  0  0  0  0  0  0  0  0  0
    9.0799    0.1205    3.8710 H   0  0  0  0  0  0  0  0  0  0  0  0
    9.0854   -0.0830    5.6240 H   0  0  0  0  0  0  0  0  0  0  0  0
  1 36  1  0  0  0  0
  2  4  1  0  0  0  0
  2 23  1  0  0  0  0
  2  3  1  1  0  0  0
  2  1  1  0  0  0  0
  4  5  1  6  0  0  0
  4  6  1  0  0  0  0
  4 20  1  0  0  0  0
  6  7  1  0  0  0  0
  6 37  1  0  0  0  0
  6 38  1  0  0  0  0
  8  7  1  1  0  0  0
  8  9  2  0  0  0  0
  8 10  1  0  0  0  0
  8 19  1  0  0  0  0
 11 10  1  1  0  0  0
 11 12  2  0  0  0  0
 11 13  1  0  0  0  0
 11 18  1  0  0  0  0
 14 16  1  1  0  0  0
 14 17  1  0  0  0  0
 14 15  2  0  0  0  0
 14 13  1  0  0  0  0
 16 39  1  0  0  0  0
 17 40  1  0  0  0  0
 18 41  1  0  0  0  0
 19 42  1  0  0  0  0
 20 21  1  0  0  0  0
 21 23  1  0  0  0  0
 21 26  1  0  0  0  0
 21 22  1  6  0  0  0
 23 24  1  1  0  0  0
 23 25  1  0  0  0  0
 25 43  1  0  0  0  0
 26 27  1  0  0  0  0
 26 30  1  0  0  0  0
 27 28  2  0  0  0  0
 27 44  1  0  0  0  0
 28 29  1  0  0  0  0
 29 30  2  0  0  0  0
 29 34  1  0  0  0  0
 30 31  1  0  0  0  0
 31 32  2  0  0  0  0
 32 33  1  0  0  0  0
 32 45  1  0  0  0  0
 33 34  2  0  0  0  0
 34 35  1  0  0  0  0
 35 46  1  0  0  0  0
 35 47  1  0  0  0  0
M  END
$$$$
