ATM
 OpenBabel04121316083D

 37 38  0  0  1  0  0  0  0  0999 V2000
    1.0637   -0.0961   -0.1203 N   0  5  0  0  0  0  0  0  0  0  0  0
    2.1910   -0.0971    0.0723 N   0  3  0  0  0  0  0  0  0  0  0  0
    3.4155   -0.0559    0.2959 N   0  0  0  0  0  0  0  0  0  0  0  0
    4.1482    0.9321   -0.5083 C   0  0  1  0  0  0  0  0  0  0  0  0
    4.0335    0.6404   -1.5514 H   0  0  0  0  0  0  0  0  0  0  0  0
    3.7022    2.3487   -0.1770 C   0  0  0  0  0  0  0  0  0  0  0  0
    4.9055    3.1918   -0.5596 C   0  0  1  0  0  0  0  0  0  0  0  0
    4.9458    4.0790    0.0882 H   0  0  0  0  0  0  0  0  0  0  0  0
    6.0536    2.3773   -0.2634 O   0  0  0  0  0  0  0  0  0  0  0  0
    5.6435    0.9864   -0.2065 C   0  0  2  0  0  0  0  0  0  0  0  0
    5.8447    0.5943    0.7973 H   0  0  0  0  0  0  0  0  0  0  0  0
    6.4770    0.2228   -1.2334 C   0  0  0  0  0  0  0  0  0  0  0  0
    6.0321   -1.1181   -1.3856 O   0  0  0  0  0  0  0  0  0  0  0  0
    6.9850   -1.9498   -2.5659 P   0  0  0  0  0  0  0  0  0  0  0  0
    7.7795   -2.6484   -1.4708 O   0  0  0  0  0  0  0  0  0  0  0  0
    5.6873   -2.8392   -2.9578 O   0  0  0  0  0  0  0  0  0  0  0  0
    7.9378   -2.7816   -3.7462 O   0  0  0  0  0  0  0  0  0  0  0  0
    4.9769    3.6512   -1.9677 N   0  0  0  0  0  0  0  0  0  0  0  0
    5.6242    4.8532   -2.2538 C   0  0  0  0  0  0  0  0  0  0  0  0
    5.5127    5.4363   -3.4596 C   0  0  0  0  0  0  0  0  0  0  0  0
    5.9502    6.8123   -3.8284 C   0  0  0  0  0  0  0  0  0  0  0  0
    4.8424    4.6774   -4.5402 C   0  0  0  0  0  0  0  0  0  0  0  0
    4.5349    5.1775   -5.6144 O   0  0  0  0  0  0  0  0  0  0  0  0
    4.5837    3.3817   -4.2537 N   0  0  0  0  0  0  0  0  0  0  0  0
    4.0318    2.8967   -4.9447 H   0  0  0  0  0  0  0  0  0  0  0  0
    4.3060    2.9894   -2.9889 C   0  0  0  0  0  0  0  0  0  0  0  0
    3.4574    2.1132   -2.8724 O   0  0  0  0  0  0  0  0  0  0  0  0
    3.5294    2.4221    0.9052 H   0  0  0  0  0  0  0  0  0  0  0  0
    2.7732    2.6692   -0.6577 H   0  0  0  0  0  0  0  0  0  0  0  0
    7.5335    0.2340   -0.9417 H   0  0  0  0  0  0  0  0  0  0  0  0
    6.4192    0.7219   -2.2097 H   0  0  0  0  0  0  0  0  0  0  0  0
    4.9674   -2.6609   -2.3264 H   0  0  0  0  0  0  0  0  0  0  0  0
    8.8494   -2.8022   -3.4005 H   0  0  0  0  0  0  0  0  0  0  0  0
    6.1463    5.3473   -1.4364 H   0  0  0  0  0  0  0  0  0  0  0  0
    6.4431    7.3243   -2.9990 H   0  0  0  0  0  0  0  0  0  0  0  0
    5.0765    7.4107   -4.1172 H   0  0  0  0  0  0  0  0  0  0  0  0
    6.6362    6.7808   -4.6803 H   0  0  0  0  0  0  0  0  0  0  0  0
  1  2  2  0  0  0  0
  2  3  2  0  0  0  0
  3  4  1  0  0  0  0
  4  5  1  6  0  0  0
  4  6  1  0  0  0  0
  4 10  1  0  0  0  0
  6  7  1  0  0  0  0
  6 28  1  0  0  0  0
  6 29  1  0  0  0  0
  7  8  1  1  0  0  0
  7  9  1  0  0  0  0
  7 18  1  0  0  0  0
  9 10  1  0  0  0  0
 10 11  1  1  0  0  0
 10 12  1  0  0  0  0
 12 13  1  0  0  0  0
 12 30  1  0  0  0  0
 12 31  1  0  0  0  0
 13 14  1  0  0  0  0
 14 15  2  0  0  0  0
 14 16  1  0  0  0  0
 14 17  1  0  0  0  0
 16 32  1  0  0  0  0
 17 33  1  0  0  0  0
 18 19  1  0  0  0  0
 18 26  1  0  0  0  0
 19 20  2  0  0  0  0
 19 34  1  0  0  0  0
 20 21  1  0  0  0  0
 20 22  1  0  0  0  0
 21 35  1  0  0  0  0
 21 36  1  0  0  0  0
 21 37  1  0  0  0  0
 22 23  2  0  0  0  0
 22 24  1  0  0  0  0
 24 25  1  0  0  0  0
 24 26  1  0  0  0  0
 26 27  2  0  0  0  0
M  CHG  2   1  -1   2   1
M  END
$$$$
