ATR
 OpenBabel04121316083D

 47 49  0  0  1  0  0  0  0  0999 V2000
    4.0987    4.6452    6.0702 O   0  0  0  0  0  0  0  0  0  0  0  0
    2.7614    4.1055    5.9787 C   0  0  2  0  0  0  0  0  0  0  0  0
    2.8513    3.1123    5.5282 H   0  0  0  0  0  0  0  0  0  0  0  0
    1.8731    4.9684    5.1130 C   0  0  1  0  0  0  0  0  0  0  0  0
    2.4481    5.4271    4.3019 H   0  0  0  0  0  0  0  0  0  0  0  0
    0.6542    4.2085    4.5647 C   0  0  0  0  0  0  0  0  0  0  0  0
    0.8646    3.3061    3.5394 O   0  0  0  0  0  0  0  0  0  0  0  0
   -0.1431    2.0786    3.0946 P   0  0  2  0  0  0  0  0  0  0  0  0
    0.7179    1.8842    1.8274 O   0  0  0  0  0  0  0  0  0  0  0  0
   -1.4083    2.7589    2.1305 O   0  0  0  0  0  0  0  0  0  0  0  0
   -0.9206    2.7803    0.4708 P   0  0  0  0  0  0  0  0  0  0  0  0
    0.3007    3.6676    0.6264 O   0  0  0  0  0  0  0  0  0  0  0  0
   -1.2328    1.2019    0.3942 O   0  0  0  0  0  0  0  0  0  0  0  0
   -0.4330    2.8018   -1.1889 O   0  0  0  0  0  0  0  0  0  0  0  0
   -1.1076    2.2963    4.5141 O   0  0  0  0  0  0  0  0  0  0  0  0
    1.4148    6.0043    6.0317 O   0  0  0  0  0  0  0  0  0  0  0  0
    1.2737    5.4417    7.3742 C   0  0  2  0  0  0  0  0  0  0  0  0
    1.6602    6.1712    8.0929 H   0  0  0  0  0  0  0  0  0  0  0  0
    2.0895    4.1431    7.3776 C   0  0  2  0  0  0  0  0  0  0  0  0
    1.3869    3.3106    7.5190 H   0  0  0  0  0  0  0  0  0  0  0  0
    3.0905    4.0673    8.4333 O   0  0  0  0  0  0  0  0  0  0  0  0
    3.9707    2.5787    8.3879 P   0  0  0  0  0  0  0  0  0  0  0  0
    3.1532    1.9226    7.2890 O   0  0  0  0  0  0  0  0  0  0  0  0
    5.2855    3.4004    7.9415 O   0  0  0  0  0  0  0  0  0  0  0  0
    4.8508    1.0900    8.3425 O   0  0  0  0  0  0  0  0  0  0  0  0
   -0.1544    5.2510    7.6735 N   0  0  0  0  0  0  0  0  0  0  0  0
   -1.1779    5.0947    6.7709 C   0  0  0  0  0  0  0  0  0  0  0  0
   -2.3232    4.7865    7.2930 N   0  0  0  0  0  0  0  0  0  0  0  0
   -2.1065    4.9576    8.6288 C   0  0  0  0  0  0  0  0  0  0  0  0
   -0.7758    5.2400    8.9015 C   0  0  0  0  0  0  0  0  0  0  0  0
   -0.2599    5.4805   10.1245 N   0  0  0  0  0  0  0  0  0  0  0  0
   -1.2432    5.4510   11.0616 C   0  0  0  0  0  0  0  0  0  0  0  0
   -2.5677    5.1948   10.9203 N   0  0  0  0  0  0  0  0  0  0  0  0
   -3.0213    4.9251    9.6803 C   0  0  0  0  0  0  0  0  0  0  0  0
   -4.3534    4.6437    9.4592 N   0  0  0  0  0  0  0  0  0  0  0  0
    4.0169    5.6012    6.2458 H   0  0  0  0  0  0  0  0  0  0  0  0
   -0.0461    4.9354    4.1572 H   0  0  0  0  0  0  0  0  0  0  0  0
    0.2549    3.6495    5.4045 H   0  0  0  0  0  0  0  0  0  0  0  0
   -2.2132    1.1317    0.3950 H   0  0  0  0  0  0  0  0  0  0  0  0
    0.3766    3.3554   -1.1254 H   0  0  0  0  0  0  0  0  0  0  0  0
   -1.8863    1.7100    4.4860 H   0  0  0  0  0  0  0  0  0  0  0  0
    5.1060    3.9356    7.1406 H   0  0  0  0  0  0  0  0  0  0  0  0
    4.1859    0.3813    8.2780 H   0  0  0  0  0  0  0  0  0  0  0  0
   -1.0702    5.2180    5.7085 H   0  0  0  0  0  0  0  0  0  0  0  0
   -0.9306    5.6669   12.0815 H   0  0  0  0  0  0  0  0  0  0  0  0
   -5.0105    4.7449   10.2110 H   0  0  0  0  0  0  0  0  0  0  0  0
   -4.6537    4.5495    8.4944 H   0  0  0  0  0  0  0  0  0  0  0  0
  1 36  1  0  0  0  0
  2  4  1  0  0  0  0
  2 19  1  0  0  0  0
  2  3  1  6  0  0  0
  2  1  1  0  0  0  0
  4  5  1  6  0  0  0
  4  6  1  0  0  0  0
  4 16  1  0  0  0  0
  6  7  1  0  0  0  0
  6 37  1  0  0  0  0
  6 38  1  0  0  0  0
  8 10  1  6  0  0  0
  8 15  1  0  0  0  0
  8  9  2  0  0  0  0
  8  7  1  0  0  0  0
 10 11  1  0  0  0  0
 11 12  2  0  0  0  0
 11 13  1  0  0  0  0
 11 14  1  0  0  0  0
 13 39  1  0  0  0  0
 14 40  1  0  0  0  0
 15 41  1  0  0  0  0
 16 17  1  0  0  0  0
 17 19  1  0  0  0  0
 17 26  1  0  0  0  0
 17 18  1  1  0  0  0
 19 20  1  1  0  0  0
 19 21  1  0  0  0  0
 21 22  1  0  0  0  0
 22 23  2  0  0  0  0
 22 24  1  0  0  0  0
 22 25  1  0  0  0  0
 24 42  1  0  0  0  0
 25 43  1  0  0  0  0
 26 27  1  0  0  0  0
 26 30  1  0  0  0  0
 27 28  2  0  0  0  0
 27 44  1  0  0  0  0
 28 29  1  0  0  0  0
 29 30  2  0  0  0  0
 29 34  1  0  0  0  0
 30 31  1  0  0  0  0
 31 32  2  0  0  0  0
 32 33  1  0  0  0  0
 32 45  1  0  0  0  0
 33 34  2  0  0  0  0
 34 35  1  0  0  0  0
 35 46  1  0  0  0  0
 35 47  1  0  0  0  0
M  END
$$$$
