AV2
 OpenBabel04121316083D

 44 47  0  0  1  0  0  0  0  0999 V2000
    1.0137    0.0198   -0.0971 N   0  0  0  0  0  0  0  0  0  0  0  0
    2.4102    0.0198   -0.0971 C   0  0  0  0  0  0  0  0  0  0  0  0
    3.0919    1.1859   -0.0961 N   0  0  0  0  0  0  0  0  0  0  0  0
    4.4507    1.2157   -0.1030 C   0  0  0  0  0  0  0  0  0  0  0  0
    5.1856    0.0812   -0.0991 N   0  0  0  0  0  0  0  0  0  0  0  0
    4.5448   -1.1593   -0.0992 C   0  0  0  0  0  0  0  0  0  0  0  0
    3.1222   -1.1979   -0.0981 C   0  0  0  0  0  0  0  0  0  0  0  0
    2.7840   -2.4865   -0.0986 N   0  0  0  0  0  0  0  0  0  0  0  0
    3.8907   -3.2150   -0.0992 C   0  0  0  0  0  0  0  0  0  0  0  0
    4.9546   -2.4380   -0.1008 N   0  0  0  0  0  0  0  0  0  0  0  0
    6.3185   -2.8824   -0.1037 C   0  0  2  0  0  0  0  0  0  0  0  0
    6.4204   -3.8389    0.3649 H   0  0  0  0  0  0  0  0  0  0  0  0
    7.0758   -1.7149    0.5576 O   0  0  0  0  0  0  0  0  0  0  0  0
    7.5597   -0.7771   -0.5913 C   0  0  1  0  0  0  0  0  0  0  0  0
    8.6259   -0.6884   -0.5744 H   0  0  0  0  0  0  0  0  0  0  0  0
    7.0993   -1.4378   -1.9025 C   0  0  2  0  0  0  0  0  0  0  0  0
    6.2717   -0.9012   -2.3173 H   0  0  0  0  0  0  0  0  0  0  0  0
    6.8577   -2.9391   -1.5477 C   0  0  1  0  0  0  0  0  0  0  0  0
    6.1988   -3.4918   -2.1843 H   0  0  0  0  0  0  0  0  0  0  0  0
    8.1807   -3.4975   -1.5578 O   0  0  0  0  0  0  0  0  0  0  0  0
    8.8886   -2.9265   -2.5704 V   0  0  2  0  0  0  0  0  0  0  0  0
   10.7779   -2.7743   -2.0601 O   0  0  0  0  0  0  0  0  0  0  0  0
    8.3181   -1.5497   -2.8500 O   0  0  0  0  0  0  0  0  0  0  0  0
    8.7323   -4.1669   -4.3685 O   0  0  0  0  0  0  0  0  0  0  0  0
    6.9878    0.6235   -0.4438 C   0  0  0  0  0  0  0  0  0  0  0  0
    6.5529    0.8220    0.8933 O   0  0  0  0  0  0  0  0  0  0  0  0
    5.9191    2.4229    1.0618 P   0  0  1  0  0  0  0  0  0  0  0  0
    5.2053    2.2838   -0.3005 O   0  0  0  0  0  0  0  0  0  0  0  0
    5.1090    1.9492    2.5152 O   0  0  0  0  0  0  0  0  0  0  0  0
    5.4365    0.2819    2.8407 P   0  0  0  0  0  0  0  0  0  0  0  0
    3.9248   -0.0272    2.7785 O   0  0  0  0  0  0  0  0  0  0  0  0
    6.3979    0.1905    1.4053 O   0  0  0  0  0  0  0  0  0  0  0  0
    5.7640   -1.3853    3.1662 O   0  0  0  0  0  0  0  0  0  0  0  0
    5.2853    4.0238    1.2304 O   0  0  0  0  0  0  0  0  0  0  0  0
    0.5214    0.8724   -0.0963 H   0  0  0  0  0  0  0  0  0  0  0  0
    0.5214   -0.8328   -0.0978 H   0  0  0  0  0  0  0  0  0  0  0  0
    4.9336    2.1277   -0.1116 H   0  0  0  0  0  0  0  0  0  0  0  0
    3.9158   -4.2467   -0.0986 H   0  0  0  0  0  0  0  0  0  0  0  0
    9.0978   -5.0469   -4.1870 H   0  0  0  0  0  0  0  0  0  0  0  0
    7.7423    1.3433   -0.6835 H   0  0  0  0  0  0  0  0  0  0  0  0
    6.1575    0.7401   -1.1086 H   0  0  0  0  0  0  0  0  0  0  0  0
    6.4044    1.0548    0.9650 H   0  0  0  0  0  0  0  0  0  0  0  0
    5.3170   -1.6486    3.9858 H   0  0  0  0  0  0  0  0  0  0  0  0
    5.5951    4.5734    0.4936 H   0  0  0  0  0  0  0  0  0  0  0  0
  1  2  1  0  0  0  0
  1 35  1  0  0  0  0
  1 36  1  0  0  0  0
  2  3  2  0  0  0  0
  2  7  1  0  0  0  0
  3  4  1  0  0  0  0
  4  5  2  0  0  0  0
  4 37  1  0  0  0  0
  5  6  1  0  0  0  0
  6  7  2  0  0  0  0
  6 10  1  0  0  0  0
  7  8  1  0  0  0  0
  8  9  2  0  0  0  0
  9 10  1  0  0  0  0
  9 38  1  0  0  0  0
 10 11  1  0  0  0  0
 11 12  1  1  0  0  0
 11 13  1  0  0  0  0
 11 18  1  0  0  0  0
 13 14  1  0  0  0  0
 14 16  1  0  0  0  0
 14 25  1  0  0  0  0
 14 15  1  1  0  0  0
 16 17  1  6  0  0  0
 16 18  1  0  0  0  0
 16 23  1  0  0  0  0
 18 19  1  6  0  0  0
 18 20  1  0  0  0  0
 20 21  1  0  0  0  0
 21 22  2  1  0  0  0
 21 23  1  0  0  0  0
 21 24  1  0  0  0  0
 24 39  1  0  0  0  0
 25 26  1  0  0  0  0
 25 40  1  0  0  0  0
 25 41  1  0  0  0  0
 27 26  1  6  0  0  0
 27 28  2  0  0  0  0
 27 29  1  0  0  0  0
 27 34  1  0  0  0  0
 29 30  1  0  0  0  0
 30 31  2  0  0  0  0
 30 32  1  0  0  0  0
 30 33  1  0  0  0  0
 32 42  1  0  0  0  0
 33 43  1  0  0  0  0
 34 44  1  0  0  0  0
M  END
$$$$
