AVD
 OpenBabel04121316083D

 46 49  0  0  0  0  0  0  0  0999 V2000
    0.8231    0.0066   -0.1830 F   0  0  0  0  0  0  0  0  0  0  0  0
    2.1520    0.0161   -0.0470 C   0  0  0  0  0  0  0  0  0  0  0  0
    2.8459    1.2164   -0.0571 C   0  0  0  0  0  0  0  0  0  0  0  0
    4.2294    1.1967    0.0287 C   0  0  0  0  0  0  0  0  0  0  0  0
    4.9162    2.3391   -0.1299 F   0  0  0  0  0  0  0  0  0  0  0  0
    4.9281    0.0198    0.2895 C   0  0  0  0  0  0  0  0  0  0  0  0
    4.1286   -1.1177    0.5835 C   0  0  0  0  0  0  0  0  0  0  0  0
    2.7952   -1.1712    0.2048 C   0  0  0  0  0  0  0  0  0  0  0  0
    4.5702   -2.4591    1.6016 Cl  0  0  0  0  0  0  0  0  0  0  0  0
    6.3307    0.0595    0.0607 N   0  0  0  0  0  0  0  0  0  0  0  0
    7.2050   -1.0098   -0.1735 C   0  0  0  0  0  0  0  0  0  0  0  0
    8.5258   -0.9272    0.2400 C   0  0  0  0  0  0  0  0  0  0  0  0
    9.2023   -2.0975    0.6048 C   0  0  0  0  0  0  0  0  0  0  0  0
   10.6111   -2.0013    1.0017 C   0  0  0  0  0  0  0  0  0  0  0  0
   11.1220   -0.8931    1.0518 O   0  0  0  0  0  0  0  0  0  0  0  0
   11.3388   -3.2651    1.2901 C   0  0  0  0  0  0  0  0  0  0  0  0
   10.6499   -4.4028    1.0799 C   0  0  0  0  0  0  0  0  0  0  0  0
    9.2985   -4.5611    0.7123 N   0  0  0  0  0  0  0  0  0  0  0  0
    8.5509   -3.3358    0.6145 C   0  0  0  0  0  0  0  0  0  0  0  0
    7.2028   -3.3271    0.2920 C   0  0  0  0  0  0  0  0  0  0  0  0
    6.7031   -2.2625   -0.4356 C   0  0  0  0  0  0  0  0  0  0  0  0
    5.4865   -2.4765   -1.6645 Cl  0  0  0  0  0  0  0  0  0  0  0  0
    8.7897   -5.8778    0.3334 C   0  0  0  0  0  0  0  0  0  0  0  0
    9.3653   -7.0417    0.9013 C   0  0  0  0  0  0  0  0  0  0  0  0
    8.9614   -8.3310    0.5331 C   0  0  0  0  0  0  0  0  0  0  0  0
    7.8172   -8.5069   -0.2205 C   0  0  0  0  0  0  0  0  0  0  0  0
    7.1428   -7.3967   -0.6779 C   0  0  0  0  0  0  0  0  0  0  0  0
    7.7253   -6.1229   -0.5768 C   0  0  0  0  0  0  0  0  0  0  0  0
    7.1556   -5.2301   -1.6233 C   0  0  0  0  0  0  0  0  0  0  0  0
    5.9990   -5.3678   -2.0144 O   0  0  0  0  0  0  0  0  0  0  0  0
    7.9997   -4.3336   -2.1663 O   0  0  0  0  0  0  0  0  0  0  0  0
   12.7517   -3.1873    1.7554 C   0  0  0  0  0  0  0  0  0  0  0  0
   13.3391   -2.1433    1.9424 O   0  0  0  0  0  0  0  0  0  0  0  0
   13.3741   -4.3611    2.0079 O   0  0  0  0  0  0  0  0  0  0  0  0
    2.3218    2.1536   -0.1653 H   0  0  0  0  0  0  0  0  0  0  0  0
    2.2564   -2.1144    0.1886 H   0  0  0  0  0  0  0  0  0  0  0  0
    6.7375    0.9881   -0.0187 H   0  0  0  0  0  0  0  0  0  0  0  0
    9.0262    0.0361    0.2882 H   0  0  0  0  0  0  0  0  0  0  0  0
   11.1599   -5.3478    1.1725 H   0  0  0  0  0  0  0  0  0  0  0  0
    6.5686   -4.1969    0.4175 H   0  0  0  0  0  0  0  0  0  0  0  0
   10.1495   -6.9940    1.6508 H   0  0  0  0  0  0  0  0  0  0  0  0
    9.5186   -9.2006    0.8693 H   0  0  0  0  0  0  0  0  0  0  0  0
    7.4541   -9.4945   -0.4844 H   0  0  0  0  0  0  0  0  0  0  0  0
    6.1962   -7.5259   -1.2041 H   0  0  0  0  0  0  0  0  0  0  0  0
    8.6899   -4.0076   -1.5625 H   0  0  0  0  0  0  0  0  0  0  0  0
   12.9137   -5.2004    1.8792 H   0  0  0  0  0  0  0  0  0  0  0  0
  1  2  1  0  0  0  0
  2  3  2  0  0  0  0
  2  8  1  0  0  0  0
  3  4  1  0  0  0  0
  3 35  1  0  0  0  0
  4  5  1  0  0  0  0
  4  6  2  0  0  0  0
  6  7  1  0  0  0  0
  6 10  1  0  0  0  0
  7  8  2  0  0  0  0
  7  9  1  0  0  0  0
  8 36  1  0  0  0  0
 10 11  1  0  0  0  0
 10 37  1  0  0  0  0
 11 12  2  0  0  0  0
 11 21  1  0  0  0  0
 12 13  1  0  0  0  0
 12 38  1  0  0  0  0
 13 14  1  0  0  0  0
 13 19  2  0  0  0  0
 14 15  2  0  0  0  0
 14 16  1  0  0  0  0
 16 17  2  0  0  0  0
 16 32  1  0  0  0  0
 17 18  1  0  0  0  0
 17 39  1  0  0  0  0
 18 19  1  0  0  0  0
 18 23  1  0  0  0  0
 19 20  1  0  0  0  0
 20 21  2  0  0  0  0
 20 40  1  0  0  0  0
 21 22  1  0  0  0  0
 23 24  2  0  0  0  0
 23 28  1  0  0  0  0
 24 25  1  0  0  0  0
 24 41  1  0  0  0  0
 25 26  2  0  0  0  0
 25 42  1  0  0  0  0
 26 27  1  0  0  0  0
 26 43  1  0  0  0  0
 27 28  2  0  0  0  0
 27 44  1  0  0  0  0
 28 29  1  0  0  0  0
 29 30  2  0  0  0  0
 29 31  1  0  0  0  0
 31 45  1  0  0  0  0
 32 33  2  0  0  0  0
 32 34  1  0  0  0  0
 34 46  1  0  0  0  0
M  END
$$$$
