AVF
 OpenBabel04121316083D

 48 50  0  0  0  0  0  0  0  0999 V2000
    0.9376    0.0249    0.2041 O   0  0  0  0  0  0  0  0  0  0  0  0
    2.1599   -0.0478    0.0807 C   0  0  0  0  0  0  0  0  0  0  0  0
    2.8162   -0.6511   -0.9504 N   0  0  0  0  0  0  0  0  0  0  0  0
    2.1758   -1.1338   -2.0937 C   0  0  0  0  0  0  0  0  0  0  0  0
    2.2300   -2.5129   -2.3075 C   0  0  0  0  0  0  0  0  0  0  0  0
    1.7966   -3.0240   -3.5176 C   0  0  0  0  0  0  0  0  0  0  0  0
    1.9421   -4.3310   -3.7729 F   0  0  0  0  0  0  0  0  0  0  0  0
    1.2285   -2.1947   -4.4740 C   0  0  0  0  0  0  0  0  0  0  0  0
    1.0780   -0.8289   -4.2089 C   0  0  0  0  0  0  0  0  0  0  0  0
    1.6112   -0.2559   -3.0444 C   0  0  0  0  0  0  0  0  0  0  0  0
    1.7707    1.1195   -3.0098 N   0  0  0  0  0  0  0  0  0  0  0  0
    3.1289    1.6345   -3.1207 C   0  0  0  0  0  0  0  0  0  0  0  0
    3.0900    2.7612   -4.1567 C   0  0  0  0  0  0  0  0  0  0  0  0
    2.0803    3.8490   -3.7445 C   0  0  0  0  0  0  0  0  0  0  0  0
    0.6891    3.2065   -3.5692 C   0  0  0  0  0  0  0  0  0  0  0  0
    0.7352    2.0416   -2.5644 C   0  0  0  0  0  0  0  0  0  0  0  0
    2.5662    4.5504   -2.4773 C   0  0  0  0  0  0  0  0  0  0  0  0
    3.6056    4.2901   -1.8880 O   0  0  0  0  0  0  0  0  0  0  0  0
    1.7609    5.5422   -2.0439 O   0  0  0  0  0  0  0  0  0  0  0  0
    2.9622    0.4500    1.0815 N   0  0  0  0  0  0  0  0  0  0  0  0
    4.3433    0.4331    1.1095 C   0  0  0  0  0  0  0  0  0  0  0  0
    5.0601    0.0213    0.2105 O   0  0  0  0  0  0  0  0  0  0  0  0
    4.9682    0.9910    2.3208 C   0  0  0  0  0  0  0  0  0  0  0  0
    4.8050    2.3543    2.5967 C   0  0  0  0  0  0  0  0  0  0  0  0
    5.5857    2.9316    3.5927 C   0  0  0  0  0  0  0  0  0  0  0  0
    5.5405    4.2574    3.7756 F   0  0  0  0  0  0  0  0  0  0  0  0
    6.4238    2.1481    4.3798 C   0  0  0  0  0  0  0  0  0  0  0  0
    6.5001    0.7745    4.1824 C   0  0  0  0  0  0  0  0  0  0  0  0
    5.8227    0.2015    3.1058 C   0  0  0  0  0  0  0  0  0  0  0  0
    6.0854   -1.4764    2.7957 Cl  0  0  0  0  0  0  0  0  0  0  0  0
    7.1791    2.7141    5.3301 F   0  0  0  0  0  0  0  0  0  0  0  0
    3.8355   -0.6566   -0.9414 H   0  0  0  0  0  0  0  0  0  0  0  0
    2.6024   -3.1846   -1.5415 H   0  0  0  0  0  0  0  0  0  0  0  0
    0.9283   -2.6107   -5.4297 H   0  0  0  0  0  0  0  0  0  0  0  0
    0.6183   -0.1905   -4.9580 H   0  0  0  0  0  0  0  0  0  0  0  0
    3.8412    0.8720   -3.4560 H   0  0  0  0  0  0  0  0  0  0  0  0
    3.4770    1.9755   -2.1410 H   0  0  0  0  0  0  0  0  0  0  0  0
    2.7813    2.3388   -5.1242 H   0  0  0  0  0  0  0  0  0  0  0  0
    4.0897    3.1844   -4.2948 H   0  0  0  0  0  0  0  0  0  0  0  0
    2.0453    4.6023   -4.5423 H   0  0  0  0  0  0  0  0  0  0  0  0
    0.3565    2.8171   -4.5427 H   0  0  0  0  0  0  0  0  0  0  0  0
   -0.0540    3.9507   -3.2635 H   0  0  0  0  0  0  0  0  0  0  0  0
   -0.2504    1.5688   -2.4942 H   0  0  0  0  0  0  0  0  0  0  0  0
    0.9789    2.4379   -1.5702 H   0  0  0  0  0  0  0  0  0  0  0  0
    0.9948    5.7361   -2.6125 H   0  0  0  0  0  0  0  0  0  0  0  0
    2.4321    0.8039    1.8618 H   0  0  0  0  0  0  0  0  0  0  0  0
    4.1359    2.9827    2.0152 H   0  0  0  0  0  0  0  0  0  0  0  0
    7.1080    0.1717    4.8500 H   0  0  0  0  0  0  0  0  0  0  0  0
  1  2  2  0  0  0  0
  2  3  1  0  0  0  0
  2 20  1  0  0  0  0
  3  4  1  0  0  0  0
  3 32  1  0  0  0  0
  4  5  2  0  0  0  0
  4 10  1  0  0  0  0
  5  6  1  0  0  0  0
  5 33  1  0  0  0  0
  6  7  1  0  0  0  0
  6  8  2  0  0  0  0
  8  9  1  0  0  0  0
  8 34  1  0  0  0  0
  9 10  2  0  0  0  0
  9 35  1  0  0  0  0
 10 11  1  0  0  0  0
 11 12  1  0  0  0  0
 11 16  1  0  0  0  0
 12 13  1  0  0  0  0
 12 36  1  0  0  0  0
 12 37  1  0  0  0  0
 13 14  1  0  0  0  0
 13 38  1  0  0  0  0
 13 39  1  0  0  0  0
 14 15  1  0  0  0  0
 14 17  1  0  0  0  0
 14 40  1  0  0  0  0
 15 16  1  0  0  0  0
 15 41  1  0  0  0  0
 15 42  1  0  0  0  0
 16 43  1  0  0  0  0
 16 44  1  0  0  0  0
 17 18  2  0  0  0  0
 17 19  1  0  0  0  0
 19 45  1  0  0  0  0
 20 21  1  0  0  0  0
 20 46  1  0  0  0  0
 21 22  2  0  0  0  0
 21 23  1  0  0  0  0
 23 24  2  0  0  0  0
 23 29  1  0  0  0  0
 24 25  1  0  0  0  0
 24 47  1  0  0  0  0
 25 26  1  0  0  0  0
 25 27  2  0  0  0  0
 27 28  1  0  0  0  0
 27 31  1  0  0  0  0
 28 29  2  0  0  0  0
 28 48  1  0  0  0  0
 29 30  1  0  0  0  0
M  END
$$$$
