AVU
 OpenBabel04121316083D

 57 60  0  0  1  0  0  0  0  0999 V2000
    2.8865    0.1896   -1.2742 O   0  0  0  0  0  0  0  0  0  0  0  0
    2.4603   -0.0215    0.0695 C   0  0  2  0  0  0  0  0  0  0  0  0
    1.3670   -0.0354    0.0494 H   0  0  0  0  0  0  0  0  0  0  0  0
    3.0185    1.0723    0.9663 C   0  0  1  0  0  0  0  0  0  0  0  0
    3.1529    2.0087    0.4130 H   0  0  0  0  0  0  0  0  0  0  0  0
    2.1656    1.3227    2.2028 C   0  0  0  0  0  0  0  0  0  0  0  0
    0.8688    1.7805    1.8423 O   0  0  0  0  0  0  0  0  0  0  0  0
   -0.0957    1.9982    3.2619 P   0  0  1  0  0  0  0  0  0  0  0  0
    0.5427    3.3590    3.5328 O   0  0  0  0  0  0  0  0  0  0  0  0
   -1.4938    2.2470    2.2738 O   0  0  0  0  0  0  0  0  0  0  0  0
   -1.0505    2.1246    0.6060 P   0  0  1  0  0  0  0  0  0  0  0  0
   -1.5555    0.6798    0.5472 O   0  0  0  0  0  0  0  0  0  0  0  0
   -2.2902    3.1797    0.2132 O   0  0  0  0  0  0  0  0  0  0  0  0
   -2.9964    3.7915    1.3096 C   0  0  0  0  0  0  0  0  0  0  0  0
   -4.0214    4.8556    0.9549 C   0  0  1  0  0  0  0  0  0  0  0  0
   -4.3683    4.7222   -0.0733 H   0  0  0  0  0  0  0  0  0  0  0  0
   -5.1445    4.6829    1.8530 O   0  0  0  0  0  0  0  0  0  0  0  0
   -5.8110    5.9434    1.9234 C   0  0  0  0  0  0  0  0  0  0  0  0
   -4.7445    7.0051    1.7824 C   0  0  2  0  0  0  0  0  0  0  0  0
   -5.0852    7.8534    1.1845 H   0  0  0  0  0  0  0  0  0  0  0  0
   -3.5310    6.2851    1.2139 C   0  0  2  0  0  0  0  0  0  0  0  0
   -2.7067    6.3266    1.9372 H   0  0  0  0  0  0  0  0  0  0  0  0
   -3.0757    6.8959    0.0087 O   0  0  0  0  0  0  0  0  0  0  0  0
   -4.4247    7.4945    3.0159 F   0  0  0  0  0  0  0  0  0  0  0  0
   -0.6071    2.0021   -1.0617 O   0  0  0  0  0  0  0  0  0  0  0  0
   -1.0603    2.2160    4.6814 O   0  0  0  0  0  0  0  0  0  0  0  0
    4.3061    0.5904    1.3809 O   0  0  0  0  0  0  0  0  0  0  0  0
    4.2355   -0.8435    1.5326 C   0  0  2  0  0  0  0  0  0  0  0  0
    5.1726   -1.2781    1.1672 H   0  0  0  0  0  0  0  0  0  0  0  0
    3.0195   -1.3013    0.6933 C   0  0  2  0  0  0  0  0  0  0  0  0
    2.2194   -1.7296    1.3015 H   0  0  0  0  0  0  0  0  0  0  0  0
    3.3720   -2.2732   -0.2859 O   0  0  0  0  0  0  0  0  0  0  0  0
    4.1689   -1.1766    2.9565 N   0  0  0  0  0  0  0  0  0  0  0  0
    3.3703   -2.1323    3.5354 C   0  0  0  0  0  0  0  0  0  0  0  0
    3.4910   -2.1597    4.8462 N   0  0  0  0  0  0  0  0  0  0  0  0
    4.4621   -1.2331    5.1281 C   0  0  0  0  0  0  0  0  0  0  0  0
    4.9098   -0.6065    3.9676 C   0  0  0  0  0  0  0  0  0  0  0  0
    5.8448    0.3453    3.8904 N   0  0  0  0  0  0  0  0  0  0  0  0
    6.3373    0.6546    5.1114 C   0  0  0  0  0  0  0  0  0  0  0  0
    5.9962    0.1267    6.3099 N   0  0  0  0  0  0  0  0  0  0  0  0
    5.0460   -0.8285    6.3382 C   0  0  0  0  0  0  0  0  0  0  0  0
    4.6640   -1.3627    7.5514 N   0  0  0  0  0  0  0  0  0  0  0  0
    3.8429    0.0122   -1.3237 H   0  0  0  0  0  0  0  0  0  0  0  0
    2.6622    2.0573    2.8465 H   0  0  0  0  0  0  0  0  0  0  0  0
    2.0413    0.4144    2.7986 H   0  0  0  0  0  0  0  0  0  0  0  0
   -2.2671    4.2415    1.9972 H   0  0  0  0  0  0  0  0  0  0  0  0
   -3.5272    2.9870    1.8353 H   0  0  0  0  0  0  0  0  0  0  0  0
   -6.3673    6.0126    2.8622 H   0  0  0  0  0  0  0  0  0  0  0  0
   -6.5120    5.9813    1.0841 H   0  0  0  0  0  0  0  0  0  0  0  0
   -2.8096    7.8069    0.2249 H   0  0  0  0  0  0  0  0  0  0  0  0
   -0.0981    1.1827   -1.1929 H   0  0  0  0  0  0  0  0  0  0  0  0
   -0.5120    2.6911    5.3357 H   0  0  0  0  0  0  0  0  0  0  0  0
    3.6588   -3.0887    0.1624 H   0  0  0  0  0  0  0  0  0  0  0  0
    2.7021   -2.7813    2.9907 H   0  0  0  0  0  0  0  0  0  0  0  0
    7.0996    1.4262    5.1381 H   0  0  0  0  0  0  0  0  0  0  0  0
    5.1808   -1.0960    8.3742 H   0  0  0  0  0  0  0  0  0  0  0  0
    4.0145   -2.1351    7.5561 H   0  0  0  0  0  0  0  0  0  0  0  0
  1 43  1  0  0  0  0
  2  4  1  0  0  0  0
  2 30  1  0  0  0  0
  2  3  1  1  0  0  0
  2  1  1  0  0  0  0
  4  5  1  6  0  0  0
  4  6  1  0  0  0  0
  4 27  1  0  0  0  0
  6  7  1  0  0  0  0
  6 44  1  0  0  0  0
  6 45  1  0  0  0  0
  8  7  1  6  0  0  0
  8  9  2  0  0  0  0
  8 10  1  0  0  0  0
  8 26  1  0  0  0  0
 11 10  1  1  0  0  0
 11 12  2  0  0  0  0
 11 13  1  0  0  0  0
 11 25  1  0  0  0  0
 13 14  1  0  0  0  0
 14 15  1  0  0  0  0
 14 46  1  0  0  0  0
 14 47  1  0  0  0  0
 15 16  1  6  0  0  0
 15 17  1  0  0  0  0
 15 21  1  0  0  0  0
 17 18  1  0  0  0  0
 18 19  1  0  0  0  0
 18 48  1  0  0  0  0
 18 49  1  0  0  0  0
 19 21  1  0  0  0  0
 19 24  1  0  0  0  0
 19 20  1  6  0  0  0
 21 22  1  1  0  0  0
 21 23  1  0  0  0  0
 23 50  1  0  0  0  0
 25 51  1  0  0  0  0
 26 52  1  0  0  0  0
 27 28  1  0  0  0  0
 28 30  1  0  0  0  0
 28 33  1  0  0  0  0
 28 29  1  6  0  0  0
 30 31  1  1  0  0  0
 30 32  1  0  0  0  0
 32 53  1  0  0  0  0
 33 34  1  0  0  0  0
 33 37  1  0  0  0  0
 34 35  2  0  0  0  0
 34 54  1  0  0  0  0
 35 36  1  0  0  0  0
 36 37  2  0  0  0  0
 36 41  1  0  0  0  0
 37 38  1  0  0  0  0
 38 39  2  0  0  0  0
 39 40  1  0  0  0  0
 39 55  1  0  0  0  0
 40 41  2  0  0  0  0
 41 42  1  0  0  0  0
 42 56  1  0  0  0  0
 42 57  1  0  0  0  0
M  END
$$$$
