AX1
 OpenBabel04121316083D

 31 34  0  0  0  0  0  0  0  0999 V2000
    0.9637   -0.3118    0.0788 N   0  0  0  0  0  0  0  0  0  0  0  0
    2.1205   -0.2976    0.0786 C   0  0  0  0  0  0  0  0  0  0  0  0
    3.5510   -0.1844    0.0768 C   0  0  0  0  0  0  0  0  0  0  0  0
    4.3252    0.9826    0.0770 C   0  0  0  0  0  0  0  0  0  0  0  0
    5.6571    0.5339    0.0758 N   0  0  0  0  0  0  0  0  0  0  0  0
    6.4799    1.1217    0.0748 H   0  0  0  0  0  0  0  0  0  0  0  0
    5.7012   -0.8484    0.0758 C   0  0  0  0  0  0  0  0  0  0  0  0
    4.4059   -1.2895    0.0747 C   0  0  0  0  0  0  0  0  0  0  0  0
    4.1437   -2.6959    0.0737 C   0  0  0  0  0  0  0  0  0  0  0  0
    3.0218   -3.1850    0.0740 O   0  0  0  0  0  0  0  0  0  0  0  0
    5.2905   -3.4498    0.0736 N   0  0  0  0  0  0  0  0  0  0  0  0
    5.1365   -4.4432    0.0717 H   0  0  0  0  0  0  0  0  0  0  0  0
    6.5656   -2.9210    0.0777 C   0  0  0  0  0  0  0  0  0  0  0  0
    6.8162   -1.6319    0.0781 N   0  0  0  0  0  0  0  0  0  0  0  0
    7.5586   -3.8437    0.0814 N   0  0  0  0  0  0  0  0  0  0  0  0
    3.8693    2.4039    0.0750 C   0  0  0  0  0  0  0  0  0  0  0  0
    4.7240    3.5190    0.0910 C   0  0  0  0  0  0  0  0  0  0  0  0
    4.2018    4.8473    0.0812 C   0  0  0  0  0  0  0  0  0  0  0  0
    2.8248    5.0448    0.0611 C   0  0  0  0  0  0  0  0  0  0  0  0
    2.0002    3.9667    0.0490 C   0  0  0  0  0  0  0  0  0  0  0  0
    2.4910    2.6849    0.0541 C   0  0  0  0  0  0  0  0  0  0  0  0
    0.6753    4.2636    0.0285 O   0  0  0  0  0  0  0  0  0  0  0  0
    0.7291    5.6949    0.0471 C   0  0  0  0  0  0  0  0  0  0  0  0
    2.0978    6.2011    0.0491 O   0  0  0  0  0  0  0  0  0  0  0  0
    7.3975   -4.8410    0.0931 H   0  0  0  0  0  0  0  0  0  0  0  0
    8.5184   -3.5256    0.0933 H   0  0  0  0  0  0  0  0  0  0  0  0
    5.8032    3.3805    0.1112 H   0  0  0  0  0  0  0  0  0  0  0  0
    4.8944    5.6833    0.0892 H   0  0  0  0  0  0  0  0  0  0  0  0
    1.7187    1.9422    0.0390 H   0  0  0  0  0  0  0  0  0  0  0  0
    0.1910    6.0449    0.9390 H   0  0  0  0  0  0  0  0  0  0  0  0
    0.1799    6.0696   -0.8279 H   0  0  0  0  0  0  0  0  0  0  0  0
  1  2  3  0  0  0  0
  2  3  1  0  0  0  0
  3  4  2  0  0  0  0
  3  8  1  0  0  0  0
  4  5  1  0  0  0  0
  4 16  1  0  0  0  0
  5  6  1  0  0  0  0
  5  7  1  0  0  0  0
  7  8  2  0  0  0  0
  7 14  1  0  0  0  0
  8  9  1  0  0  0  0
  9 10  2  0  0  0  0
  9 11  1  0  0  0  0
 11 12  1  0  0  0  0
 11 13  1  0  0  0  0
 13 14  2  0  0  0  0
 13 15  1  0  0  0  0
 15 25  1  0  0  0  0
 15 26  1  0  0  0  0
 16 17  2  0  0  0  0
 16 21  1  0  0  0  0
 17 18  1  0  0  0  0
 17 27  1  0  0  0  0
 18 19  2  0  0  0  0
 18 28  1  0  0  0  0
 19 20  1  0  0  0  0
 19 24  1  0  0  0  0
 20 21  2  0  0  0  0
 20 22  1  0  0  0  0
 21 29  1  0  0  0  0
 22 23  1  0  0  0  0
 23 24  1  0  0  0  0
 23 30  1  0  0  0  0
 23 31  1  0  0  0  0
M  END
$$$$
