AX3
 OpenBabel04121316083D

 22 23  0  0  0  0  0  0  0  0999 V2000
    1.1577   -0.0036   -0.0647 N   0  0  0  0  0  0  0  0  0  0  0  0
    2.5244    0.0061   -0.0658 C   0  0  0  0  0  0  0  0  0  0  0  0
    3.1151    1.1918   -0.0709 N   0  0  0  0  0  0  0  0  0  0  0  0
    4.4396    1.1565   -0.0828 C   0  0  0  0  0  0  0  0  0  0  0  0
    5.1017    2.3807   -0.1696 N   0  0  0  0  0  0  0  0  0  0  0  0
    6.5486    2.4605   -0.1645 C   0  0  0  0  0  0  0  0  0  0  0  0
    7.3430    1.7786   -1.2486 C   0  0  0  0  0  0  0  0  0  0  0  0
    7.2838    3.2748   -1.1911 C   0  0  0  0  0  0  0  0  0  0  0  0
    5.1535    0.0381   -0.0576 N   0  0  0  0  0  0  0  0  0  0  0  0
    4.4671   -1.0869   -0.0579 C   0  0  0  0  0  0  0  0  0  0  0  0
    3.1480   -1.1618   -0.0655 N   0  0  0  0  0  0  0  0  0  0  0  0
    5.1925   -2.2439   -0.0573 N   0  0  0  0  0  0  0  0  0  0  0  0
    0.6795    0.8800   -0.0805 H   0  0  0  0  0  0  0  0  0  0  0  0
    0.6845   -0.8899   -0.0805 H   0  0  0  0  0  0  0  0  0  0  0  0
    4.4837    3.1717   -0.0634 H   0  0  0  0  0  0  0  0  0  0  0  0
    6.9636    2.4448    0.8406 H   0  0  0  0  0  0  0  0  0  0  0  0
    6.7870    1.2718   -2.0306 H   0  0  0  0  0  0  0  0  0  0  0  0
    8.2448    1.2604   -0.9485 H   0  0  0  0  0  0  0  0  0  0  0  0
    6.7019    3.7836   -1.9500 H   0  0  0  0  0  0  0  0  0  0  0  0
    8.1803    3.8004   -0.8868 H   0  0  0  0  0  0  0  0  0  0  0  0
    6.1953   -2.1610   -0.0636 H   0  0  0  0  0  0  0  0  0  0  0  0
    4.7102   -3.1243   -0.0711 H   0  0  0  0  0  0  0  0  0  0  0  0
  1  2  1  0  0  0  0
  1 13  1  0  0  0  0
  1 14  1  0  0  0  0
  2  3  2  0  0  0  0
  2 11  1  0  0  0  0
  3  4  1  0  0  0  0
  4  5  1  0  0  0  0
  4  9  2  0  0  0  0
  5  6  1  0  0  0  0
  5 15  1  0  0  0  0
  6  7  1  0  0  0  0
  6  8  1  0  0  0  0
  6 16  1  0  0  0  0
  7  8  1  0  0  0  0
  7 17  1  0  0  0  0
  7 18  1  0  0  0  0
  8 19  1  0  0  0  0
  8 20  1  0  0  0  0
  9 10  1  0  0  0  0
 10 11  2  0  0  0  0
 10 12  1  0  0  0  0
 12 21  1  0  0  0  0
 12 22  1  0  0  0  0
M  END
$$$$
