AX7
 OpenBabel04121316083D

 17 18  0  0  0  0  0  0  0  0999 V2000
    1.0158    0.0487    0.0406 N   0  0  0  0  0  0  0  0  0  0  0  0
    2.3497   -0.0027    0.0402 C   0  0  0  0  0  0  0  0  0  0  0  0
    3.1050   -1.0710    0.0406 N   0  0  0  0  0  0  0  0  0  0  0  0
    4.3995   -0.6043    0.0403 C   0  0  0  0  0  0  0  0  0  0  0  0
    4.4248    0.7864    0.0399 C   0  0  0  0  0  0  0  0  0  0  0  0
    3.0998    1.1414    0.0393 N   0  0  0  0  0  0  0  0  0  0  0  0
    2.7351    2.0791    0.0391 H   0  0  0  0  0  0  0  0  0  0  0  0
    5.6044    1.5344    0.0403 C   0  0  0  0  0  0  0  0  0  0  0  0
    6.8051    0.8144    0.0422 C   0  0  0  0  0  0  0  0  0  0  0  0
    6.8137   -0.5826    0.0412 C   0  0  0  0  0  0  0  0  0  0  0  0
    5.6140   -1.3078    0.0404 C   0  0  0  0  0  0  0  0  0  0  0  0
    0.4995   -0.8253    0.0410 H   0  0  0  0  0  0  0  0  0  0  0  0
    0.4582    0.8917    0.0399 H   0  0  0  0  0  0  0  0  0  0  0  0
    5.5994    2.6185    0.0396 H   0  0  0  0  0  0  0  0  0  0  0  0
    7.7505    1.3538    0.0446 H   0  0  0  0  0  0  0  0  0  0  0  0
    7.7616   -1.1159    0.0409 H   0  0  0  0  0  0  0  0  0  0  0  0
    5.6160   -2.3920    0.0403 H   0  0  0  0  0  0  0  0  0  0  0  0
  1  2  1  0  0  0  0
  1 12  1  0  0  0  0
  1 13  1  0  0  0  0
  2  3  2  0  0  0  0
  2  6  1  0  0  0  0
  3  4  1  0  0  0  0
  4  5  2  0  0  0  0
  4 11  1  0  0  0  0
  5  6  1  0  0  0  0
  5  8  1  0  0  0  0
  6  7  1  0  0  0  0
  8  9  2  0  0  0  0
  8 14  1  0  0  0  0
  9 10  1  0  0  0  0
  9 15  1  0  0  0  0
 10 11  2  0  0  0  0
 10 16  1  0  0  0  0
 11 17  1  0  0  0  0
M  END
$$$$
