AXB
 OpenBabel04121316083D

 58 63  0  0  0  0  0  0  0  0999 V2000
    1.1354    0.0813    0.0570 O   0  0  0  0  0  0  0  0  0  0  0  0
    2.3437    0.0265    0.0562 C   0  0  0  0  0  0  0  0  0  0  0  0
    3.4091   -1.0030    0.0642 C   0  0  0  0  0  0  0  0  0  0  0  0
    4.4085   -0.0575    0.0840 C   0  0  0  0  0  0  0  0  0  0  0  0
    3.4120    1.0517    0.0531 C   0  0  0  0  0  0  0  0  0  0  0  0
    3.3809    2.2617    0.0583 O   0  0  0  0  0  0  0  0  0  0  0  0
    5.7342   -0.0440    0.1166 N   0  0  0  0  0  0  0  0  0  0  0  0
    6.5356   -1.2676    0.2349 C   0  0  0  0  0  0  0  0  0  0  0  0
    7.2236   -1.5574   -1.0901 C   0  0  0  0  0  0  0  0  0  0  0  0
    7.9341   -0.3372   -1.6002 C   0  0  0  0  0  0  0  0  0  0  0  0
    7.6116    0.9533   -1.1324 C   0  0  0  0  0  0  0  0  0  0  0  0
    6.5606    1.1632   -0.0522 C   0  0  0  0  0  0  0  0  0  0  0  0
    8.3150    2.0544   -1.6431 C   0  0  0  0  0  0  0  0  0  0  0  0
    9.2926    1.8837   -2.6369 C   0  0  0  0  0  0  0  0  0  0  0  0
    9.5618    0.5842   -3.0955 C   0  0  0  0  0  0  0  0  0  0  0  0
    8.8940   -0.5123   -2.5880 C   0  0  0  0  0  0  0  0  0  0  0  0
    9.9986    3.1021   -3.1745 C   0  0  0  0  0  0  0  0  0  0  0  0
   10.9701    2.7835   -4.1881 N   0  0  0  0  0  0  0  0  0  0  0  0
   11.7017    3.7587   -4.7979 C   0  0  0  0  0  0  0  0  0  0  0  0
   11.6055    4.9449   -4.5283 O   0  0  0  0  0  0  0  0  0  0  0  0
   12.6673    3.2699   -5.8809 C   0  0  0  0  0  0  0  0  0  0  0  0
   13.3326    4.1715   -6.5285 N   0  0  0  0  0  0  0  0  0  0  0  0
   14.1525    3.6901   -7.4817 C   0  0  0  0  0  0  0  0  0  0  0  0
   15.0904    4.7454   -8.4148 S   0  0  0  0  0  0  0  0  0  0  0  0
   15.7611    3.4491   -9.2917 C   0  0  0  0  0  0  0  0  0  0  0  0
   15.2580    2.2135   -8.9052 C   0  0  0  0  0  0  0  0  0  0  0  0
   14.3360    2.3709   -7.8293 C   0  0  0  0  0  0  0  0  0  0  0  0
   13.5957    1.3768   -7.0902 C   0  0  0  0  0  0  0  0  0  0  0  0
   13.6603    0.1687   -7.2914 O   0  0  0  0  0  0  0  0  0  0  0  0
   12.7759    1.9023   -6.1216 N   0  0  0  0  0  0  0  0  0  0  0  0
   12.2757    1.1945   -5.6169 H   0  0  0  0  0  0  0  0  0  0  0  0
   15.6778    0.8981   -9.5080 C   0  0  0  0  0  0  0  0  0  0  0  0
   16.3492    1.0899  -10.8562 C   0  0  0  0  0  0  0  0  0  0  0  0
   17.6766    2.2678  -10.6969 S   0  0  0  0  0  0  0  0  0  0  0  0
   18.2996    2.4168  -11.9978 O   0  0  0  0  0  0  0  0  0  0  0  0
   18.4717    1.9130   -9.5353 O   0  0  0  0  0  0  0  0  0  0  0  0
   16.7616    3.7563  -10.3511 C   0  0  0  0  0  0  0  0  0  0  0  0
    3.3094   -2.3107    0.0576 N   0  0  0  0  0  0  0  0  0  0  0  0
    5.9509   -2.1377    0.5393 H   0  0  0  0  0  0  0  0  0  0  0  0
    7.2885   -1.1229    1.0201 H   0  0  0  0  0  0  0  0  0  0  0  0
    6.4972   -1.8725   -1.8486 H   0  0  0  0  0  0  0  0  0  0  0  0
    7.9478   -2.3693   -0.9509 H   0  0  0  0  0  0  0  0  0  0  0  0
    5.9593    2.0433   -0.3026 H   0  0  0  0  0  0  0  0  0  0  0  0
    7.0809    1.3647    0.8928 H   0  0  0  0  0  0  0  0  0  0  0  0
    8.0932    3.0541   -1.2678 H   0  0  0  0  0  0  0  0  0  0  0  0
   10.2908    0.3543   -3.8589 H   0  0  0  0  0  0  0  0  0  0  0  0
    9.1314   -1.5004   -2.9735 H   0  0  0  0  0  0  0  0  0  0  0  0
   10.5242    3.6209   -2.3647 H   0  0  0  0  0  0  0  0  0  0  0  0
    9.2695    3.7921   -3.6157 H   0  0  0  0  0  0  0  0  0  0  0  0
   11.0665    1.8408   -4.4886 H   0  0  0  0  0  0  0  0  0  0  0  0
   14.8093    0.2423   -9.6361 H   0  0  0  0  0  0  0  0  0  0  0  0
   16.3634    0.3949   -8.8141 H   0  0  0  0  0  0  0  0  0  0  0  0
   15.6445    1.4947  -11.5928 H   0  0  0  0  0  0  0  0  0  0  0  0
   16.7691    0.1599  -11.2437 H   0  0  0  0  0  0  0  0  0  0  0  0
   16.2539    4.0582  -11.2727 H   0  0  0  0  0  0  0  0  0  0  0  0
   17.4795    4.5201  -10.0452 H   0  0  0  0  0  0  0  0  0  0  0  0
    2.4227   -2.8117    0.0498 H   0  0  0  0  0  0  0  0  0  0  0  0
    4.1153   -2.9276    0.0465 H   0  0  0  0  0  0  0  0  0  0  0  0
  1  2  2  0  0  0  0
  2  3  1  0  0  0  0
  2  5  1  0  0  0  0
  3  4  2  0  0  0  0
  3 38  1  0  0  0  0
  4  5  1  0  0  0  0
  4  7  1  0  0  0  0
  5  6  2  0  0  0  0
  7  8  1  0  0  0  0
  7 12  1  0  0  0  0
  8  9  1  0  0  0  0
  8 39  1  0  0  0  0
  8 40  1  0  0  0  0
  9 10  1  0  0  0  0
  9 41  1  0  0  0  0
  9 42  1  0  0  0  0
 10 11  2  0  0  0  0
 10 16  1  0  0  0  0
 11 12  1  0  0  0  0
 11 13  1  0  0  0  0
 12 43  1  0  0  0  0
 12 44  1  0  0  0  0
 13 14  2  0  0  0  0
 13 45  1  0  0  0  0
 14 15  1  0  0  0  0
 14 17  1  0  0  0  0
 15 16  2  0  0  0  0
 15 46  1  0  0  0  0
 16 47  1  0  0  0  0
 17 18  1  0  0  0  0
 17 48  1  0  0  0  0
 17 49  1  0  0  0  0
 18 19  1  0  0  0  0
 18 50  1  0  0  0  0
 19 20  2  0  0  0  0
 19 21  1  0  0  0  0
 21 22  2  0  0  0  0
 21 30  1  0  0  0  0
 22 23  1  0  0  0  0
 23 24  1  0  0  0  0
 23 27  2  0  0  0  0
 24 25  1  0  0  0  0
 25 26  2  0  0  0  0
 25 37  1  0  0  0  0
 26 27  1  0  0  0  0
 26 32  1  0  0  0  0
 27 28  1  0  0  0  0
 28 29  2  0  0  0  0
 28 30  1  0  0  0  0
 30 31  1  0  0  0  0
 32 33  1  0  0  0  0
 32 51  1  0  0  0  0
 32 52  1  0  0  0  0
 33 34  1  0  0  0  0
 33 53  1  0  0  0  0
 33 54  1  0  0  0  0
 34 35  2  0  0  0  0
 34 36  2  0  0  0  0
 34 37  1  0  0  0  0
 37 55  1  0  0  0  0
 37 56  1  0  0  0  0
 38 57  1  0  0  0  0
 38 58  1  0  0  0  0
M  END
$$$$
