AXR
 OpenBabel04121316083D

 23 23  0  0  1  0  0  0  0  0999 V2000
    1.0168    0.0904   -0.1955 C   0  0  0  0  0  0  0  0  0  0  0  0
    2.4146    0.1053    0.0392 O   0  0  0  0  0  0  0  0  0  0  0  0
    2.8255    0.7716    1.2327 C   0  0  1  0  0  0  0  0  0  0  0  0
    3.8974    0.5570    1.3291 H   0  0  0  0  0  0  0  0  0  0  0  0
    2.6936    2.2004    1.1301 O   0  0  0  0  0  0  0  0  0  0  0  0
    2.6241    2.7043    2.4768 C   0  0  1  0  0  0  0  0  0  0  0  0
    2.0728    3.6514    2.4506 H   0  0  0  0  0  0  0  0  0  0  0  0
    1.8648    1.6469    3.2762 C   0  0  2  0  0  0  0  0  0  0  0  0
    2.1804    1.5827    4.3202 H   0  0  0  0  0  0  0  0  0  0  0  0
    2.0804    0.3474    2.5115 C   0  0  2  0  0  0  0  0  0  0  0  0
    1.1203   -0.1244    2.3080 H   0  0  0  0  0  0  0  0  0  0  0  0
    2.8251   -0.6023    3.2711 O   0  0  0  0  0  0  0  0  0  0  0  0
    0.4591    1.9532    3.2868 O   0  0  0  0  0  0  0  0  0  0  0  0
    4.0217    2.9527    3.0617 C   0  0  0  0  0  0  0  0  0  0  0  0
    3.9399    3.4311    4.4023 O   0  0  0  0  0  0  0  0  0  0  0  0
    0.8338   -0.3080   -1.1961 H   0  0  0  0  0  0  0  0  0  0  0  0
    0.5906    1.0945   -0.1239 H   0  0  0  0  0  0  0  0  0  0  0  0
    0.5139   -0.5883    0.4983 H   0  0  0  0  0  0  0  0  0  0  0  0
    2.2243   -0.9286    3.9648 H   0  0  0  0  0  0  0  0  0  0  0  0
    0.1800    2.1282    2.3713 H   0  0  0  0  0  0  0  0  0  0  0  0
    4.5713    3.6859    2.4626 H   0  0  0  0  0  0  0  0  0  0  0  0
    4.6196    2.0366    3.0675 H   0  0  0  0  0  0  0  0  0  0  0  0
    3.4296    4.2562    4.4010 H   0  0  0  0  0  0  0  0  0  0  0  0
  1  2  1  0  0  0  0
  1 16  1  0  0  0  0
  1 17  1  0  0  0  0
  1 18  1  0  0  0  0
  2  3  1  0  0  0  0
  3  4  1  1  0  0  0
  3  5  1  0  0  0  0
  3 10  1  0  0  0  0
  5  6  1  0  0  0  0
  6  7  1  1  0  0  0
  6  8  1  0  0  0  0
  6 14  1  0  0  0  0
  8 10  1  0  0  0  0
  8 13  1  0  0  0  0
  8  9  1  1  0  0  0
 10 11  1  6  0  0  0
 10 12  1  0  0  0  0
 12 19  1  0  0  0  0
 13 20  1  0  0  0  0
 14 15  1  0  0  0  0
 14 21  1  0  0  0  0
 14 22  1  0  0  0  0
 15 23  1  0  0  0  0
M  END
$$$$
