AYH
 OpenBabel04121316083D

 83 84  0  0  1  0  0  0  0  0999 V2000
    5.9440   -7.4165    2.2386 C   0  0  0  0  0  0  0  0  0  0  0  0
    6.1603   -5.9340    2.3512 C   0  0  0  0  0  0  0  0  0  0  0  0
    4.7794   -5.2957    2.0705 C   0  0  0  0  0  0  0  0  0  0  0  0
    4.9957   -3.8497    1.6630 C   0  0  0  0  0  0  0  0  0  0  0  0
    3.5103   -2.7777    1.2522 N   0  0  0  0  0  0  0  0  0  0  0  0
    3.1288   -1.2898    1.7358 C   0  0  0  0  0  0  0  0  0  0  0  0
    3.8410   -0.4526    2.3265 O   0  0  0  0  0  0  0  0  0  0  0  0
    1.8381   -0.6292    1.9870 C   0  0  1  0  0  0  0  0  0  0  0  0
    1.3300   -0.7264    1.0429 H   0  0  0  0  0  0  0  0  0  0  0  0
    1.2720   -1.1493    3.3065 C   0  0  0  0  0  0  0  0  0  0  0  0
    1.2417   -2.6590    3.3860 C   0  0  1  0  0  0  0  0  0  0  0  0
    1.0741   -3.0122    2.3555 H   0  0  0  0  0  0  0  0  0  0  0  0
    2.5451   -3.2733    4.0488 C   0  0  2  0  0  0  0  0  0  0  0  0
    2.3372   -4.3684    3.9466 H   0  0  0  0  0  0  0  0  0  0  0  0
    3.1209   -2.8932    5.3498 C   0  0  0  0  0  0  0  0  0  0  0  0
    2.1828   -3.3063    6.3498 C   0  0  0  0  0  0  0  0  0  0  0  0
    2.1709   -4.6485    6.6855 C   0  0  0  0  0  0  0  0  0  0  0  0
    1.0324   -5.0961    7.2843 C   0  0  0  0  0  0  0  0  0  0  0  0
    0.0361   -4.1720    7.6383 C   0  0  0  0  0  0  0  0  0  0  0  0
    0.1441   -2.8026    7.3786 C   0  0  0  0  0  0  0  0  0  0  0  0
    1.2074   -2.3690    6.6577 C   0  0  0  0  0  0  0  0  0  0  0  0
    3.7594   -3.0350    3.3428 N   0  0  0  0  0  0  0  0  0  0  0  0
    4.8288   -1.9116    3.2787 C   0  0  0  0  0  0  0  0  0  0  0  0
    5.0492   -1.2388    4.2620 O   0  0  0  0  0  0  0  0  0  0  0  0
    5.5467   -1.4309    1.5293 C   0  0  2  0  0  0  0  0  0  0  0  0
    5.0994   -1.8309    0.5868 H   0  0  0  0  0  0  0  0  0  0  0  0
    6.9417   -1.8776    1.5667 C   0  0  0  0  0  0  0  0  0  0  0  0
    7.6140   -1.4890    0.3018 C   0  0  0  0  0  0  0  0  0  0  0  0
    7.7114    0.0007    0.2664 C   0  0  0  0  0  0  0  0  0  0  0  0
    6.3658    0.6301   -0.0313 C   0  0  1  0  0  0  0  0  0  0  0  0
    5.9826    0.3341   -1.0273 H   0  0  0  0  0  0  0  0  0  0  0  0
    5.4567    0.0853    1.0124 C   0  0  0  0  0  0  0  0  0  0  0  0
    6.3927    2.1960    0.0839 C   0  0  0  0  0  0  0  0  0  0  0  0
    6.8225    2.6529    1.4448 N   0  0  0  0  0  0  0  0  0  0  0  0
    6.0261    2.6353    2.5686 C   0  0  0  0  0  0  0  0  0  0  0  0
    4.7756    2.4624    2.5479 O   0  0  0  0  0  0  0  0  0  0  0  0
    6.6393    2.8236    3.9035 C   0  0  0  0  0  0  0  0  0  0  0  0
    7.4159    2.6126   -0.9784 C   0  0  0  0  0  0  0  0  0  0  0  0
    5.0487    2.8674   -0.2775 C   0  0  0  0  0  0  0  0  0  0  0  0
    0.0964   -3.1710    4.0601 O   0  0  0  0  0  0  0  0  0  0  0  0
    2.1870    0.9646    2.3583 C   0  0  0  0  0  0  0  0  0  0  0  0
    6.8822   -7.9613    2.3296 H   0  0  0  0  0  0  0  0  0  0  0  0
    5.4979   -7.6233    1.2609 H   0  0  0  0  0  0  0  0  0  0  0  0
    5.2445   -7.7442    3.0136 H   0  0  0  0  0  0  0  0  0  0  0  0
    6.9050   -5.5972    1.6191 H   0  0  0  0  0  0  0  0  0  0  0  0
    6.5771   -5.6745    3.3418 H   0  0  0  0  0  0  0  0  0  0  0  0
    4.1698   -5.4848    2.9689 H   0  0  0  0  0  0  0  0  0  0  0  0
    4.2912   -5.6971    1.1990 H   0  0  0  0  0  0  0  0  0  0  0  0
    5.6731   -3.8478    0.8305 H   0  0  0  0  0  0  0  0  0  0  0  0
    5.5991   -3.5928    2.6114 H   0  0  0  0  0  0  0  0  0  0  0  0
    2.6651   -3.2997    1.0966 H   0  0  0  0  0  0  0  0  0  0  0  0
    0.3023   -0.6779    3.4343 H   0  0  0  0  0  0  0  0  0  0  0  0
    1.8773   -0.7932    4.1552 H   0  0  0  0  0  0  0  0  0  0  0  0
    3.2669   -1.8216    5.3991 H   0  0  0  0  0  0  0  0  0  0  0  0
    4.0989   -3.3921    5.4716 H   0  0  0  0  0  0  0  0  0  0  0  0
    2.9789   -5.3030    6.3571 H   0  0  0  0  0  0  0  0  0  0  0  0
    0.9199   -6.1569    7.4547 H   0  0  0  0  0  0  0  0  0  0  0  0
   -0.8573   -4.5325    8.1209 H   0  0  0  0  0  0  0  0  0  0  0  0
   -0.5974   -2.0766    7.6749 H   0  0  0  0  0  0  0  0  0  0  0  0
    1.2465   -1.3667    6.2287 H   0  0  0  0  0  0  0  0  0  0  0  0
    3.4847   -3.5549    2.5420 H   0  0  0  0  0  0  0  0  0  0  0  0
    7.0921   -2.9434    1.5884 H   0  0  0  0  0  0  0  0  0  0  0  0
    7.2908   -1.4905    2.5148 H   0  0  0  0  0  0  0  0  0  0  0  0
    7.0771   -1.8746   -0.5822 H   0  0  0  0  0  0  0  0  0  0  0  0
    8.5898   -1.9511    0.3686 H   0  0  0  0  0  0  0  0  0  0  0  0
    8.4579    0.2415   -0.4757 H   0  0  0  0  0  0  0  0  0  0  0  0
    8.0314    0.3420    1.2590 H   0  0  0  0  0  0  0  0  0  0  0  0
    4.4700    0.4078    0.6179 H   0  0  0  0  0  0  0  0  0  0  0  0
    5.7046    0.5696    1.9307 H   0  0  0  0  0  0  0  0  0  0  0  0
    7.7843    2.9486    1.5564 H   0  0  0  0  0  0  0  0  0  0  0  0
    7.6353    3.2527    3.8306 H   0  0  0  0  0  0  0  0  0  0  0  0
    6.6601    1.8775    4.4599 H   0  0  0  0  0  0  0  0  0  0  0  0
    5.9731    3.5131    4.4331 H   0  0  0  0  0  0  0  0  0  0  0  0
    8.3975    2.1744   -0.7829 H   0  0  0  0  0  0  0  0  0  0  0  0
    7.5598    3.6895   -1.0036 H   0  0  0  0  0  0  0  0  0  0  0  0
    7.0900    2.2566   -1.9655 H   0  0  0  0  0  0  0  0  0  0  0  0
    4.2437    2.6503    0.4251 H   0  0  0  0  0  0  0  0  0  0  0  0
    4.6813    2.5505   -1.2561 H   0  0  0  0  0  0  0  0  0  0  0  0
    5.1617    3.9578   -0.2687 H   0  0  0  0  0  0  0  0  0  0  0  0
   -0.6064   -2.5044    4.0786 H   0  0  0  0  0  0  0  0  0  0  0  0
    2.8904    1.3926    1.6321 H   0  0  0  0  0  0  0  0  0  0  0  0
    2.7315    1.0650    3.3383 H   0  0  0  0  0  0  0  0  0  0  0  0
    1.3317    1.6185    2.4129 H   0  0  0  0  0  0  0  0  0  0  0  0
  1  2  1  0  0  0  0
  1 42  1  0  0  0  0
  1 43  1  0  0  0  0
  1 44  1  0  0  0  0
  2  3  1  0  0  0  0
  2 45  1  0  0  0  0
  2 46  1  0  0  0  0
  3  4  1  0  0  0  0
  3 47  1  0  0  0  0
  3 48  1  0  0  0  0
  4  5  1  0  0  0  0
  4 49  1  0  0  0  0
  4 50  1  0  0  0  0
  5  6  1  0  0  0  0
  5 51  1  0  0  0  0
  6  7  2  0  0  0  0
  6  8  1  0  0  0  0
  8  9  1  6  0  0  0
  8 10  1  0  0  0  0
  8 41  1  0  0  0  0
 10 11  1  0  0  0  0
 10 52  1  0  0  0  0
 10 53  1  0  0  0  0
 11 12  1  6  0  0  0
 11 40  1  0  0  0  0
 13 15  1  0  0  0  0
 13 22  1  0  0  0  0
 13 14  1  1  0  0  0
 13 11  1  0  0  0  0
 15 16  1  0  0  0  0
 15 54  1  0  0  0  0
 15 55  1  0  0  0  0
 16 17  2  0  0  0  0
 16 21  1  0  0  0  0
 17 18  1  0  0  0  0
 17 56  1  0  0  0  0
 18 19  2  0  0  0  0
 18 57  1  0  0  0  0
 19 20  1  0  0  0  0
 19 58  1  0  0  0  0
 20 21  2  0  0  0  0
 20 59  1  0  0  0  0
 21 60  1  0  0  0  0
 22 23  1  0  0  0  0
 22 61  1  0  0  0  0
 23 24  2  0  0  0  0
 25 27  1  0  0  0  0
 25 32  1  0  0  0  0
 25 26  1  6  0  0  0
 25 23  1  0  0  0  0
 27 28  1  0  0  0  0
 27 62  1  0  0  0  0
 27 63  1  0  0  0  0
 28 29  1  0  0  0  0
 28 64  1  0  0  0  0
 28 65  1  0  0  0  0
 29 30  1  0  0  0  0
 29 66  1  0  0  0  0
 29 67  1  0  0  0  0
 30 31  1  6  0  0  0
 30 32  1  0  0  0  0
 30 33  1  0  0  0  0
 32 68  1  0  0  0  0
 32 69  1  0  0  0  0
 33 34  1  0  0  0  0
 33 38  1  0  0  0  0
 33 39  1  0  0  0  0
 34 35  1  0  0  0  0
 34 70  1  0  0  0  0
 35 36  2  0  0  0  0
 35 37  1  0  0  0  0
 37 71  1  0  0  0  0
 37 72  1  0  0  0  0
 37 73  1  0  0  0  0
 38 74  1  0  0  0  0
 38 75  1  0  0  0  0
 38 76  1  0  0  0  0
 39 77  1  0  0  0  0
 39 78  1  0  0  0  0
 39 79  1  0  0  0  0
 40 80  1  0  0  0  0
 41 81  1  0  0  0  0
 41 82  1  0  0  0  0
 41 83  1  0  0  0  0
M  END
$$$$
