AYI
 OpenBabel04121316083D

 69 70  0  0  1  0  0  0  0  0999 V2000
   -0.4562   -0.8809    4.1429 C   0  0  0  0  0  0  0  0  0  0  0  0
   -0.4013   -0.6616    5.6244 C   0  0  0  0  0  0  0  0  0  0  0  0
   -0.9146   -1.8848    6.4001 C   0  0  1  0  0  0  0  0  0  0  0  0
   -1.9227   -2.1416    6.0635 H   0  0  0  0  0  0  0  0  0  0  0  0
   -0.0695   -3.2160    6.2198 C   0  0  1  0  0  0  0  0  0  0  0  0
    1.0045   -3.1086    6.2850 H   0  0  0  0  0  0  0  0  0  0  0  0
   -0.3960   -4.3248    7.2464 C   0  0  0  0  0  0  0  0  0  0  0  0
   -0.8439   -5.4219    6.8965 O   0  0  0  0  0  0  0  0  0  0  0  0
   -0.1520   -4.1450    8.5785 N   0  0  0  0  0  0  0  0  0  0  0  0
    0.4088   -3.0387    9.3996 C   0  0  2  0  0  0  0  0  0  0  0  0
   -0.2832   -2.2283    9.4289 H   0  0  0  0  0  0  0  0  0  0  0  0
    1.8124   -2.4251    9.0455 C   0  0  0  0  0  0  0  0  0  0  0  0
    2.6277   -2.0670    9.8921 O   0  0  0  0  0  0  0  0  0  0  0  0
    2.0566   -2.0501    7.7569 N   0  0  0  0  0  0  0  0  0  0  0  0
    0.2406   -3.2854   10.8823 C   0  0  0  0  0  0  0  0  0  0  0  0
    1.2431   -4.3034   11.2597 C   0  0  0  0  0  0  0  0  0  0  0  0
    1.9213   -4.9393   10.4629 O   0  0  0  0  0  0  0  0  0  0  0  0
    1.3256   -4.5166   12.5866 N   0  0  0  0  0  0  0  0  0  0  0  0
   -0.1750   -3.7259    4.8467 N   0  0  0  0  0  0  0  0  0  0  0  0
    0.7896   -4.5829    4.3407 C   0  0  0  0  0  0  0  0  0  0  0  0
    1.7421   -4.9750    4.9757 O   0  0  0  0  0  0  0  0  0  0  0  0
    0.6254   -5.0388    2.9368 C   0  0  2  0  0  0  0  0  0  0  0  0
    0.9856   -6.0630    2.8569 H   0  0  0  0  0  0  0  0  0  0  0  0
    0.9858   -4.1715    1.7546 C   0  0  2  0  0  0  0  0  0  0  0  0
    1.1146   -3.0964    1.8888 H   0  0  0  0  0  0  0  0  0  0  0  0
   -0.4551   -4.5760    1.9721 C   0  0  1  0  0  0  0  0  0  0  0  0
   -1.0984   -3.7624    2.2838 H   0  0  0  0  0  0  0  0  0  0  0  0
   -1.2839   -5.5912    1.2652 C   0  0  0  0  0  0  0  0  0  0  0  0
   -1.9147   -6.4062    1.9147 O   0  0  0  0  0  0  0  0  0  0  0  0
   -1.3765   -5.4632   -0.1063 N   0  0  0  0  0  0  0  0  0  0  0  0
   -2.2676   -6.2869   -0.8957 C   0  0  0  0  0  0  0  0  0  0  0  0
    1.9206   -4.7387    0.7217 C   0  0  0  0  0  0  0  0  0  0  0  0
    3.1373   -4.0947    0.4300 C   0  0  0  0  0  0  0  0  0  0  0  0
    3.8626   -4.4205   -0.7110 C   0  0  0  0  0  0  0  0  0  0  0  0
    3.4265   -5.4724   -1.4973 C   0  0  0  0  0  0  0  0  0  0  0  0
    2.3533   -6.2570   -1.1078 C   0  0  0  0  0  0  0  0  0  0  0  0
    1.6143   -5.8846   -0.0120 C   0  0  0  0  0  0  0  0  0  0  0  0
    4.1096   -5.7220   -2.6438 O   0  0  0  0  0  0  0  0  0  0  0  0
    3.6149   -7.0348   -3.5986 P   0  0  0  0  0  0  0  0  0  0  0  0
    4.7091   -6.7419   -4.6198 O   0  0  0  0  0  0  0  0  0  0  0  0
    4.1922   -8.1098   -2.5115 O   0  0  0  0  0  0  0  0  0  0  0  0
    3.1105   -8.3732   -4.5719 O   0  0  0  0  0  0  0  0  0  0  0  0
   -1.1494   -1.3215    7.7912 C   0  0  0  0  0  0  0  0  0  0  0  0
   -0.2663    0.0474    3.6086 H   0  0  0  0  0  0  0  0  0  0  0  0
   -1.4462   -1.2609    3.8738 H   0  0  0  0  0  0  0  0  0  0  0  0
    0.3154   -1.5898    3.8425 H   0  0  0  0  0  0  0  0  0  0  0  0
   -1.0373    0.1989    5.8760 H   0  0  0  0  0  0  0  0  0  0  0  0
    0.6121   -0.3646    5.9207 H   0  0  0  0  0  0  0  0  0  0  0  0
   -0.3340   -5.0159    9.0705 H   0  0  0  0  0  0  0  0  0  0  0  0
    1.3305   -1.6194    7.2179 H   0  0  0  0  0  0  0  0  0  0  0  0
    2.9657   -1.6946    7.5001 H   0  0  0  0  0  0  0  0  0  0  0  0
   -0.7819   -3.6167   11.1192 H   0  0  0  0  0  0  0  0  0  0  0  0
    0.4074   -2.3445   11.4297 H   0  0  0  0  0  0  0  0  0  0  0  0
    0.7765   -4.0070   13.2625 H   0  0  0  0  0  0  0  0  0  0  0  0
    2.0515   -5.1558   12.8695 H   0  0  0  0  0  0  0  0  0  0  0  0
   -0.9021   -3.3737    4.2558 H   0  0  0  0  0  0  0  0  0  0  0  0
   -0.7631   -4.8190   -0.5881 H   0  0  0  0  0  0  0  0  0  0  0  0
   -2.8949   -6.9248   -0.2685 H   0  0  0  0  0  0  0  0  0  0  0  0
   -1.6804   -6.9105   -1.5768 H   0  0  0  0  0  0  0  0  0  0  0  0
   -2.9024   -5.6205   -1.4855 H   0  0  0  0  0  0  0  0  0  0  0  0
    3.5101   -3.3058    1.0803 H   0  0  0  0  0  0  0  0  0  0  0  0
    4.7448   -3.8502   -0.9917 H   0  0  0  0  0  0  0  0  0  0  0  0
    2.0413   -7.1633   -1.6170 H   0  0  0  0  0  0  0  0  0  0  0  0
    0.7685   -6.5149    0.2308 H   0  0  0  0  0  0  0  0  0  0  0  0
    4.5728   -7.6771   -1.7269 H   0  0  0  0  0  0  0  0  0  0  0  0
    2.8576   -8.0274   -5.4456 H   0  0  0  0  0  0  0  0  0  0  0  0
   -1.7888   -0.4434    7.8821 H   0  0  0  0  0  0  0  0  0  0  0  0
   -0.2093   -0.9405    8.2125 H   0  0  0  0  0  0  0  0  0  0  0  0
   -1.6826   -2.0845    8.3618 H   0  0  0  0  0  0  0  0  0  0  0  0
  1  2  1  0  0  0  0
  1 44  1  0  0  0  0
  1 45  1  0  0  0  0
  1 46  1  0  0  0  0
  2  3  1  0  0  0  0
  2 47  1  0  0  0  0
  2 48  1  0  0  0  0
  3  4  1  6  0  0  0
  3  5  1  0  0  0  0
  3 43  1  0  0  0  0
  5  6  1  1  0  0  0
  5  7  1  0  0  0  0
  5 19  1  0  0  0  0
  7  8  2  0  0  0  0
  7  9  1  0  0  0  0
  9 49  1  0  0  0  0
 10 12  1  0  0  0  0
 10 15  1  0  0  0  0
 10 11  1  6  0  0  0
 10  9  1  0  0  0  0
 12 13  2  0  0  0  0
 12 14  1  0  0  0  0
 14 50  1  0  0  0  0
 14 51  1  0  0  0  0
 15 16  1  0  0  0  0
 15 52  1  0  0  0  0
 15 53  1  0  0  0  0
 16 17  2  0  0  0  0
 16 18  1  0  0  0  0
 18 54  1  0  0  0  0
 18 55  1  0  0  0  0
 19 20  1  0  0  0  0
 19 56  1  0  0  0  0
 20 21  2  0  0  0  0
 22 24  1  0  0  0  0
 22 26  1  0  0  0  0
 22 23  1  6  0  0  0
 22 20  1  0  0  0  0
 24 25  1  1  0  0  0
 24 26  1  0  0  0  0
 24 32  1  0  0  0  0
 26 28  1  0  0  0  0
 26 27  1  1  0  0  0
 28 29  2  0  0  0  0
 28 30  1  0  0  0  0
 30 31  1  0  0  0  0
 30 57  1  0  0  0  0
 31 58  1  0  0  0  0
 31 59  1  0  0  0  0
 31 60  1  0  0  0  0
 32 33  2  0  0  0  0
 32 37  1  0  0  0  0
 33 34  1  0  0  0  0
 33 61  1  0  0  0  0
 34 35  2  0  0  0  0
 34 62  1  0  0  0  0
 35 36  1  0  0  0  0
 35 38  1  0  0  0  0
 36 37  2  0  0  0  0
 36 63  1  0  0  0  0
 37 64  1  0  0  0  0
 38 39  1  0  0  0  0
 39 40  2  0  0  0  0
 39 41  1  0  0  0  0
 39 42  1  0  0  0  0
 41 65  1  0  0  0  0
 42 66  1  0  0  0  0
 43 67  1  0  0  0  0
 43 68  1  0  0  0  0
 43 69  1  0  0  0  0
M  END
$$$$
