AZF
 OpenBabel04121316083D

 22 22  0  0  1  0  0  0  0  0999 V2000
    0.8411   -0.2255   -0.0670 O   0  0  0  0  0  0  0  0  0  0  0  0
    2.2285    0.0258   -0.1340 C   0  0  0  0  0  0  0  0  0  0  0  0
    3.1904   -1.1998   -0.1434 C   0  0  1  0  0  0  0  0  0  0  0  0
    3.6560   -1.1809   -1.1392 H   0  0  0  0  0  0  0  0  0  0  0  0
    4.2427   -0.8817    0.8632 N   0  0  0  0  0  0  0  0  0  0  0  0
    3.6784   -0.9828    2.2184 N   0  0  0  0  0  0  0  0  0  0  0  0
    3.4310   -2.4026    2.5097 C   0  0  0  0  0  0  0  0  0  0  0  0
    2.4081   -3.0014    1.5293 C   0  0  2  0  0  0  0  0  0  0  0  0
    2.3891   -4.0857    1.6979 H   0  0  0  0  0  0  0  0  0  0  0  0
    2.8024   -2.6959    0.0710 C   0  0  2  0  0  0  0  0  0  0  0  0
    2.0119   -3.0159   -0.6141 H   0  0  0  0  0  0  0  0  0  0  0  0
    3.9724   -3.4913   -0.2949 O   0  0  0  0  0  0  0  0  0  0  0  0
    1.0905   -2.5192    1.8215 O   0  0  0  0  0  0  0  0  0  0  0  0
    0.4328    0.6661   -0.0113 H   0  0  0  0  0  0  0  0  0  0  0  0
    2.4358    0.6875    0.7177 H   0  0  0  0  0  0  0  0  0  0  0  0
    2.4514    0.6597   -1.0025 H   0  0  0  0  0  0  0  0  0  0  0  0
    4.6095    0.0539    0.6763 H   0  0  0  0  0  0  0  0  0  0  0  0
    2.7849   -0.4931    2.3356 H   0  0  0  0  0  0  0  0  0  0  0  0
    3.0466   -2.4750    3.5332 H   0  0  0  0  0  0  0  0  0  0  0  0
    4.3805   -2.9494    2.4741 H   0  0  0  0  0  0  0  0  0  0  0  0
    3.9280   -4.3556    0.1208 H   0  0  0  0  0  0  0  0  0  0  0  0
    0.9572   -1.6811    1.3425 H   0  0  0  0  0  0  0  0  0  0  0  0
  1  2  1  0  0  0  0
  1 14  1  0  0  0  0
  2  3  1  0  0  0  0
  2 15  1  0  0  0  0
  2 16  1  0  0  0  0
  3  4  1  6  0  0  0
  3  5  1  0  0  0  0
  3 10  1  0  0  0  0
  5  6  1  0  0  0  0
  5 17  1  0  0  0  0
  6  7  1  0  0  0  0
  6 18  1  0  0  0  0
  7  8  1  0  0  0  0
  7 19  1  0  0  0  0
  7 20  1  0  0  0  0
  8 10  1  0  0  0  0
  8 13  1  0  0  0  0
  8  9  1  1  0  0  0
 10 11  1  6  0  0  0
 10 12  1  0  0  0  0
 12 21  1  0  0  0  0
 13 22  1  0  0  0  0
M  END
$$$$
