AZG
 OpenBabel04121316083D

 15 16  0  0  0  0  0  0  0  0999 V2000
    1.2029   -0.0976   -0.0233 N   0  0  0  0  0  0  0  0  0  0  0  0
    2.5714   -0.0937   -0.0312 C   0  0  0  0  0  0  0  0  0  0  0  0
    3.1853   -1.2977   -0.0355 N   0  0  0  0  0  0  0  0  0  0  0  0
    4.5225   -1.3112   -0.0412 C   0  0  0  0  0  0  0  0  0  0  0  0
    5.1534   -2.5188   -0.0467 O   0  0  0  0  0  0  0  0  0  0  0  0
    5.2010   -0.1348   -0.0427 C   0  0  0  0  0  0  0  0  0  0  0  0
    4.5060    1.0475   -0.0385 C   0  0  0  0  0  0  0  0  0  0  0  0
    3.1603    1.1076   -0.0329 N   0  0  0  0  0  0  0  0  0  0  0  0
    5.3962    2.0874   -0.0417 N   0  0  0  0  0  0  0  0  0  0  0  0
    6.6280    1.5741   -0.0478 N   0  0  0  0  0  0  0  0  0  0  0  0
    6.5033    0.2337   -0.0483 N   0  0  0  0  0  0  0  0  0  0  0  0
    7.3315   -0.3497   -0.0529 H   0  0  0  0  0  0  0  0  0  0  0  0
    0.7167   -0.9757   -0.0317 H   0  0  0  0  0  0  0  0  0  0  0  0
    0.7308    0.7912   -0.0319 H   0  0  0  0  0  0  0  0  0  0  0  0
    4.4076   -3.1444   -0.0452 H   0  0  0  0  0  0  0  0  0  0  0  0
  1  2  1  0  0  0  0
  1 13  1  0  0  0  0
  1 14  1  0  0  0  0
  2  3  2  0  0  0  0
  2  8  1  0  0  0  0
  3  4  1  0  0  0  0
  4  5  1  0  0  0  0
  4  6  2  0  0  0  0
  5 15  1  0  0  0  0
  6  7  1  0  0  0  0
  6 11  1  0  0  0  0
  7  8  2  0  0  0  0
  7  9  1  0  0  0  0
  9 10  2  0  0  0  0
 10 11  1  0  0  0  0
 11 12  1  0  0  0  0
M  END
$$$$
