AZL
 OpenBabel04121316083D

 63 64  0  0  1  0  0  0  0  0999 V2000
   14.2273   -0.8662   -4.4393 N   0  0  0  0  0  0  0  0  0  0  0  0
   14.0936    0.5584   -4.2447 C   0  0  0  0  0  0  0  0  0  0  0  0
   12.9702    0.8389   -3.2709 C   0  0  0  0  0  0  0  0  0  0  0  0
   12.9993    2.3467   -3.0811 C   0  0  0  0  0  0  0  0  0  0  0  0
   12.1490    2.8145   -1.9537 C   0  0  0  0  0  0  0  0  0  0  0  0
   12.3971    4.3910   -1.8845 N   0  0  0  0  0  0  0  0  0  0  0  0
   11.6340    5.0267   -0.7143 N   0  0  0  0  0  0  0  0  0  0  0  0
   10.8607    6.4166   -0.3135 C   0  0  0  0  0  0  0  0  0  0  0  0
   11.5154    7.5097   -0.7139 O   0  0  0  0  0  0  0  0  0  0  0  0
    9.1360    6.5376    0.4923 C   0  0  2  0  0  0  0  0  0  0  0  0
    8.2752    5.7894    0.4483 H   0  0  0  0  0  0  0  0  0  0  0  0
    8.0491    7.5431   -0.0387 C   0  0  0  0  0  0  0  0  0  0  0  0
    8.7465    8.6424    0.6443 C   0  0  0  0  0  0  0  0  0  0  0  0
    9.0427    8.0476    2.0885 C   0  0  0  0  0  0  0  0  0  0  0  0
    9.0766    6.6134    1.9449 N   0  0  0  0  0  0  0  0  0  0  0  0
    9.2477    5.6045    2.9288 C   0  0  0  0  0  0  0  0  0  0  0  0
    9.4669    6.0064    4.1066 O   0  0  0  0  0  0  0  0  0  0  0  0
    9.1884    3.8811    2.7391 C   0  0  1  0  0  0  0  0  0  0  0  0
    8.1700    3.6434    2.4039 H   0  0  0  0  0  0  0  0  0  0  0  0
   10.2007    3.1467    1.7383 C   0  0  0  0  0  0  0  0  0  0  0  0
    9.6130    3.1933    0.3469 C   0  0  0  0  0  0  0  0  0  0  0  0
    9.4487    2.6429   -0.8828 C   0  0  0  0  0  0  0  0  0  0  0  0
    9.3135    3.3933   -2.3092 C   0  0  0  0  0  0  0  0  0  0  0  0
    9.2239    4.7253   -2.6022 C   0  0  0  0  0  0  0  0  0  0  0  0
    9.0975    5.2639   -1.4021 C   0  0  0  0  0  0  0  0  0  0  0  0
    9.4093    4.4847   -0.0190 C   0  0  0  0  0  0  0  0  0  0  0  0
    9.3225    3.1858    4.0421 N   0  0  0  0  0  0  0  0  0  0  0  0
    9.2801    1.8100    4.0928 C   0  0  0  0  0  0  0  0  0  0  0  0
    9.0122    1.0926    3.1411 O   0  0  0  0  0  0  0  0  0  0  0  0
    9.6260    1.3268    5.3118 O   0  0  0  0  0  0  0  0  0  0  0  0
    9.6158   -0.1124    5.3277 C   0  0  0  0  0  0  0  0  0  0  0  0
    9.8605   -0.5758    6.7440 C   0  0  0  0  0  0  0  0  0  0  0  0
   14.9730   -1.0309   -5.1112 H   0  0  0  0  0  0  0  0  0  0  0  0
   13.3700   -1.2328   -4.8480 H   0  0  0  0  0  0  0  0  0  0  0  0
   13.8893    1.0638   -5.1969 H   0  0  0  0  0  0  0  0  0  0  0  0
   15.0255    0.9727   -3.8427 H   0  0  0  0  0  0  0  0  0  0  0  0
   13.1317    0.3258   -2.3149 H   0  0  0  0  0  0  0  0  0  0  0  0
   12.0043    0.4833   -3.6641 H   0  0  0  0  0  0  0  0  0  0  0  0
   12.6550    2.8217   -4.0118 H   0  0  0  0  0  0  0  0  0  0  0  0
   13.9977    2.6877   -2.8290 H   0  0  0  0  0  0  0  0  0  0  0  0
   12.2997    2.2586   -1.0147 H   0  0  0  0  0  0  0  0  0  0  0  0
   11.2111    2.3809   -2.3149 H   0  0  0  0  0  0  0  0  0  0  0  0
   11.9481    4.7080   -2.7543 H   0  0  0  0  0  0  0  0  0  0  0  0
   10.9220    4.3517   -0.8797 H   0  0  0  0  0  0  0  0  0  0  0  0
    7.0253    7.3181    0.3299 H   0  0  0  0  0  0  0  0  0  0  0  0
    7.9130    7.5764   -1.1349 H   0  0  0  0  0  0  0  0  0  0  0  0
    8.1882    9.5633    0.5738 H   0  0  0  0  0  0  0  0  0  0  0  0
    9.6781    8.7572    0.0779 H   0  0  0  0  0  0  0  0  0  0  0  0
    8.2781    8.3535    2.7992 H   0  0  0  0  0  0  0  0  0  0  0  0
   10.0619    8.2750    2.3764 H   0  0  0  0  0  0  0  0  0  0  0  0
   10.4419    2.1005    1.9235 H   0  0  0  0  0  0  0  0  0  0  0  0
   11.1903    3.6284    1.9559 H   0  0  0  0  0  0  0  0  0  0  0  0
    9.7260    1.5968   -0.9181 H   0  0  0  0  0  0  0  0  0  0  0  0
    9.7193    2.9285   -3.2022 H   0  0  0  0  0  0  0  0  0  0  0  0
    9.7043    5.3488   -3.3625 H   0  0  0  0  0  0  0  0  0  0  0  0
    9.2874    6.3519   -1.5785 H   0  0  0  0  0  0  0  0  0  0  0  0
   10.0769    4.9682    0.7845 H   0  0  0  0  0  0  0  0  0  0  0  0
    9.6023    3.7070    4.8665 H   0  0  0  0  0  0  0  0  0  0  0  0
   10.4020   -0.5037    4.6677 H   0  0  0  0  0  0  0  0  0  0  0  0
    8.6424   -0.4883    4.9860 H   0  0  0  0  0  0  0  0  0  0  0  0
   10.8268   -0.2077    7.1006 H   0  0  0  0  0  0  0  0  0  0  0  0
    9.8483   -1.6677    6.8055 H   0  0  0  0  0  0  0  0  0  0  0  0
    9.0911   -0.1717    7.4084 H   0  0  0  0  0  0  0  0  0  0  0  0
  1  2  1  0  0  0  0
  1 33  1  0  0  0  0
  1 34  1  0  0  0  0
  2  3  1  0  0  0  0
  2 35  1  0  0  0  0
  2 36  1  0  0  0  0
  3  4  1  0  0  0  0
  3 37  1  0  0  0  0
  3 38  1  0  0  0  0
  4  5  1  0  0  0  0
  4 39  1  0  0  0  0
  4 40  1  0  0  0  0
  5  6  1  0  0  0  0
  5 41  1  0  0  0  0
  5 42  1  0  0  0  0
  6  7  1  0  0  0  0
  6 43  1  0  0  0  0
  7  8  1  0  0  0  0
  7 44  1  0  0  0  0
  8  9  2  0  0  0  0
 10 12  1  0  0  0  0
 10 15  1  0  0  0  0
 10 11  1  6  0  0  0
 10  8  1  0  0  0  0
 12 13  1  0  0  0  0
 12 45  1  0  0  0  0
 12 46  1  0  0  0  0
 13 14  1  0  0  0  0
 13 47  1  0  0  0  0
 13 48  1  0  0  0  0
 14 15  1  0  0  0  0
 14 49  1  0  0  0  0
 14 50  1  0  0  0  0
 15 16  1  0  0  0  0
 16 17  2  0  0  0  0
 16 18  1  0  0  0  0
 18 19  1  6  0  0  0
 18 20  1  0  0  0  0
 18 27  1  0  0  0  0
 20 21  1  0  0  0  0
 20 51  1  0  0  0  0
 20 52  1  0  0  0  0
 21 22  2  0  0  0  0
 21 26  1  0  0  0  0
 22 23  1  0  0  0  0
 22 53  1  0  0  0  0
 23 24  2  0  0  0  0
 23 54  1  0  0  0  0
 24 25  1  0  0  0  0
 24 55  1  0  0  0  0
 25 26  2  0  0  0  0
 25 56  1  0  0  0  0
 26 57  1  0  0  0  0
 27 28  1  0  0  0  0
 27 58  1  0  0  0  0
 28 29  2  0  0  0  0
 28 30  1  0  0  0  0
 30 31  1  0  0  0  0
 31 32  1  0  0  0  0
 31 59  1  0  0  0  0
 31 60  1  0  0  0  0
 32 61  1  0  0  0  0
 32 62  1  0  0  0  0
 32 63  1  0  0  0  0
M  END
$$$$
