AZM
 OpenBabel04121316083D

 19 19  0  0  0  0  0  0  0  0999 V2000
    1.0512    0.0461    0.1177 C   0  0  0  0  0  0  0  0  0  0  0  0
    2.5569    0.2114    0.0807 C   0  0  0  0  0  0  0  0  0  0  0  0
    3.0738    1.1071   -0.5756 O   0  0  0  0  0  0  0  0  0  0  0  0
    3.2323   -0.7633    0.7736 N   0  0  0  0  0  0  0  0  0  0  0  0
    4.6027   -0.8286    0.7666 C   0  0  0  0  0  0  0  0  0  0  0  0
    5.5476    0.0762    0.6489 N   0  0  0  0  0  0  0  0  0  0  0  0
    6.8273   -0.5047    0.6745 N   0  0  0  0  0  0  0  0  0  0  0  0
    6.7416   -1.8177    0.7497 C   0  0  0  0  0  0  0  0  0  0  0  0
    5.1526   -2.4269    0.9078 S   0  0  0  0  0  0  0  0  0  0  0  0
    8.0287   -3.0357    0.7210 S   0  0  0  0  0  0  0  0  0  0  0  0
    8.6885   -2.9273   -0.5627 O   0  0  0  0  0  0  0  0  0  0  0  0
    8.7134   -2.9460    1.9857 O   0  0  0  0  0  0  0  0  0  0  0  0
    7.2554   -4.5567    0.7139 N   0  0  0  0  0  0  0  0  0  0  0  0
    0.5957    0.8760   -0.4320 H   0  0  0  0  0  0  0  0  0  0  0  0
    0.6795    0.0733    1.1456 H   0  0  0  0  0  0  0  0  0  0  0  0
    0.7401   -0.8876   -0.3625 H   0  0  0  0  0  0  0  0  0  0  0  0
    2.7510   -1.6108    1.0362 H   0  0  0  0  0  0  0  0  0  0  0  0
    6.7060   -4.6804   -0.1375 H   0  0  0  0  0  0  0  0  0  0  0  0
    6.7190   -4.6904    1.5723 H   0  0  0  0  0  0  0  0  0  0  0  0
  1  2  1  0  0  0  0
  1 14  1  0  0  0  0
  1 15  1  0  0  0  0
  1 16  1  0  0  0  0
  2  3  2  0  0  0  0
  2  4  1  0  0  0  0
  4  5  1  0  0  0  0
  4 17  1  0  0  0  0
  5  6  2  0  0  0  0
  5  9  1  0  0  0  0
  6  7  1  0  0  0  0
  7  8  2  0  0  0  0
  8  9  1  0  0  0  0
  8 10  1  0  0  0  0
 10 11  2  0  0  0  0
 10 12  2  0  0  0  0
 10 13  1  0  0  0  0
 13 18  1  0  0  0  0
 13 19  1  0  0  0  0
M  END
$$$$
