AZP
 OpenBabel04121316083D

 89 90  0  0  1  0  0  0  0  0999 V2000
    3.6859   -4.9762   -2.6423 C   0  0  0  0  0  0  0  0  0  0  0  0
    3.5238   -3.7448   -3.4839 C   0  0  0  0  0  0  0  0  0  0  0  0
    4.3629   -2.7520   -2.9193 O   0  0  0  0  0  0  0  0  0  0  0  0
    4.2919   -1.6302   -3.6650 C   0  0  0  0  0  0  0  0  0  0  0  0
    3.7765   -1.5676   -4.7795 O   0  0  0  0  0  0  0  0  0  0  0  0
    4.8403   -0.4580   -2.8758 C   0  0  2  0  0  0  0  0  0  0  0  0
    4.5147   -0.4491   -1.8358 H   0  0  0  0  0  0  0  0  0  0  0  0
    4.2220    0.7043   -3.5595 C   0  0  0  0  0  0  0  0  0  0  0  0
    2.7453    0.8509   -3.6419 C   0  0  0  0  0  0  0  0  0  0  0  0
    2.0151    0.0957   -2.9986 O   0  0  0  0  0  0  0  0  0  0  0  0
    2.2514    1.9066   -4.4222 N   0  0  0  0  0  0  0  0  0  0  0  0
    3.0181    2.7654   -5.2949 N   0  0  0  0  0  0  0  0  0  0  0  0
    4.3867    2.9614   -5.2716 C   0  0  0  0  0  0  0  0  0  0  0  0
    5.2355    2.3508   -4.6373 O   0  0  0  0  0  0  0  0  0  0  0  0
    4.9968    4.0852   -6.0398 C   0  0  1  0  0  0  0  0  0  0  0  0
    4.6834    4.0739   -7.0876 H   0  0  0  0  0  0  0  0  0  0  0  0
    4.5075    5.2707   -5.3551 N   0  0  0  0  0  0  0  0  0  0  0  0
    3.2412    5.7455   -5.5271 C   0  0  0  0  0  0  0  0  0  0  0  0
    2.3870    5.1127   -6.1461 O   0  0  0  0  0  0  0  0  0  0  0  0
    2.9850    7.0953   -4.8820 C   0  0  1  0  0  0  0  0  0  0  0  0
    3.2882    7.0664   -3.8272 H   0  0  0  0  0  0  0  0  0  0  0  0
    3.8340    8.0311   -5.6219 N   0  0  0  0  0  0  0  0  0  0  0  0
    5.1330    8.2640   -5.2273 C   0  0  0  0  0  0  0  0  0  0  0  0
    5.6368    7.6908   -4.2974 O   0  0  0  0  0  0  0  0  0  0  0  0
    5.7603    9.1431   -6.0572 O   0  0  0  0  0  0  0  0  0  0  0  0
    7.1918    9.3306   -5.8657 C   0  0  0  0  0  0  0  0  0  0  0  0
    7.6131   10.4105   -6.8196 C   0  0  0  0  0  0  0  0  0  0  0  0
    7.4901   11.6986   -6.3387 C   0  0  0  0  0  0  0  0  0  0  0  0
    7.5850   12.7670   -7.2129 C   0  0  0  0  0  0  0  0  0  0  0  0
    7.9717   12.5737   -8.5395 C   0  0  0  0  0  0  0  0  0  0  0  0
    8.2641   11.3008   -8.9989 C   0  0  0  0  0  0  0  0  0  0  0  0
    8.0041   10.2218   -8.1603 C   0  0  0  0  0  0  0  0  0  0  0  0
    1.4837    7.3617   -4.9808 C   0  0  0  0  0  0  0  0  0  0  0  0
    1.0639    8.7001   -4.3804 C   0  0  0  0  0  0  0  0  0  0  0  0
    1.7533    9.8778   -5.0601 C   0  0  0  0  0  0  0  0  0  0  0  0
   -0.4424    8.8628   -4.5336 C   0  0  0  0  0  0  0  0  0  0  0  0
    6.5484    3.7993   -5.8421 C   0  0  0  0  0  0  0  0  0  0  0  0
    7.4031    4.7322   -6.5814 C   0  0  0  0  0  0  0  0  0  0  0  0
    7.2415    6.0396   -6.2704 C   0  0  0  0  0  0  0  0  0  0  0  0
    7.1753    6.8301   -7.3713 C   0  0  0  0  0  0  0  0  0  0  0  0
    8.1523    6.6461   -8.3073 C   0  0  0  0  0  0  0  0  0  0  0  0
    8.7359    5.4105   -8.4103 C   0  0  0  0  0  0  0  0  0  0  0  0
    8.1933    4.3888   -7.6597 C   0  0  0  0  0  0  0  0  0  0  0  0
    0.7878    1.9940   -4.5345 C   0  0  0  0  0  0  0  0  0  0  0  0
    0.1911    3.1516   -5.3202 C   0  0  0  0  0  0  0  0  0  0  0  0
   -1.3149    3.1152   -5.2964 C   0  0  0  0  0  0  0  0  0  0  0  0
   -1.9838    2.2712   -4.7161 O   0  0  0  0  0  0  0  0  0  0  0  0
   -1.9137    4.1334   -5.9789 N   0  0  0  0  0  0  0  0  0  0  0  0
    6.2680   -0.3481   -2.9123 O   0  0  0  0  0  0  0  0  0  0  0  0
    3.0363   -5.7693   -3.0118 H   0  0  0  0  0  0  0  0  0  0  0  0
    3.4415   -4.7520   -1.5994 H   0  0  0  0  0  0  0  0  0  0  0  0
    4.7282   -5.3085   -2.6677 H   0  0  0  0  0  0  0  0  0  0  0  0
    2.4850   -3.3923   -3.4496 H   0  0  0  0  0  0  0  0  0  0  0  0
    3.8097   -3.9515   -4.5224 H   0  0  0  0  0  0  0  0  0  0  0  0
    4.5508    0.5761   -4.6046 H   0  0  0  0  0  0  0  0  0  0  0  0
    4.5653    1.5808   -2.9967 H   0  0  0  0  0  0  0  0  0  0  0  0
    2.4912    3.5399   -5.7064 H   0  0  0  0  0  0  0  0  0  0  0  0
    5.1420    5.8297   -4.7922 H   0  0  0  0  0  0  0  0  0  0  0  0
    3.4526    8.5672   -6.3872 H   0  0  0  0  0  0  0  0  0  0  0  0
    7.8326    8.4843   -6.0896 H   0  0  0  0  0  0  0  0  0  0  0  0
    7.4133    9.5370   -4.8170 H   0  0  0  0  0  0  0  0  0  0  0  0
    7.2546   11.8410   -5.2891 H   0  0  0  0  0  0  0  0  0  0  0  0
    7.3366   13.7538   -6.8469 H   0  0  0  0  0  0  0  0  0  0  0  0
    8.0351   13.4190   -9.2147 H   0  0  0  0  0  0  0  0  0  0  0  0
    8.6411   11.1417  -10.0081 H   0  0  0  0  0  0  0  0  0  0  0  0
    8.0889    9.2517   -8.6150 H   0  0  0  0  0  0  0  0  0  0  0  0
    0.9472    6.5537   -4.4539 H   0  0  0  0  0  0  0  0  0  0  0  0
    1.1577    7.2939   -6.0277 H   0  0  0  0  0  0  0  0  0  0  0  0
    1.3208    8.7002   -3.3141 H   0  0  0  0  0  0  0  0  0  0  0  0
    1.6190    9.8220   -6.1475 H   0  0  0  0  0  0  0  0  0  0  0  0
    2.8190    9.9027   -4.8291 H   0  0  0  0  0  0  0  0  0  0  0  0
    1.3703   10.8336   -4.7053 H   0  0  0  0  0  0  0  0  0  0  0  0
   -0.7294    8.8288   -5.5909 H   0  0  0  0  0  0  0  0  0  0  0  0
   -0.7565    9.8266   -4.1245 H   0  0  0  0  0  0  0  0  0  0  0  0
   -0.9821    8.0695   -4.0079 H   0  0  0  0  0  0  0  0  0  0  0  0
    6.7924    2.7840   -6.1830 H   0  0  0  0  0  0  0  0  0  0  0  0
    6.8263    3.8638   -4.7745 H   0  0  0  0  0  0  0  0  0  0  0  0
    6.9080    6.2998   -5.2804 H   0  0  0  0  0  0  0  0  0  0  0  0
    6.5204    7.6772   -7.4444 H   0  0  0  0  0  0  0  0  0  0  0  0
    8.4286    7.4360   -8.9796 H   0  0  0  0  0  0  0  0  0  0  0  0
    9.4827    5.2541   -9.1689 H   0  0  0  0  0  0  0  0  0  0  0  0
    8.3618    3.3544   -7.9176 H   0  0  0  0  0  0  0  0  0  0  0  0
    0.4057    2.0314   -3.5047 H   0  0  0  0  0  0  0  0  0  0  0  0
    0.4335    1.0407   -4.9496 H   0  0  0  0  0  0  0  0  0  0  0  0
    0.5146    3.1109   -6.3665 H   0  0  0  0  0  0  0  0  0  0  0  0
    0.5033    4.1004   -4.8737 H   0  0  0  0  0  0  0  0  0  0  0  0
   -1.4052    4.8424   -6.4887 H   0  0  0  0  0  0  0  0  0  0  0  0
   -2.9254    4.1449   -5.9998 H   0  0  0  0  0  0  0  0  0  0  0  0
    6.5139    0.5719   -2.6981 H   0  0  0  0  0  0  0  0  0  0  0  0
  1  2  1  0  0  0  0
  1 50  1  0  0  0  0
  1 51  1  0  0  0  0
  1 52  1  0  0  0  0
  2  3  1  0  0  0  0
  2 53  1  0  0  0  0
  2 54  1  0  0  0  0
  3  4  1  0  0  0  0
  4  5  2  0  0  0  0
  6  8  1  0  0  0  0
  6 49  1  0  0  0  0
  6  7  1  1  0  0  0
  6  4  1  0  0  0  0
  8  9  1  0  0  0  0
  8 55  1  0  0  0  0
  8 56  1  0  0  0  0
  9 10  2  0  0  0  0
  9 11  1  0  0  0  0
 11 12  1  0  0  0  0
 11 44  1  0  0  0  0
 12 13  1  0  0  0  0
 12 57  1  0  0  0  0
 13 14  2  0  0  0  0
 13 15  1  0  0  0  0
 15 16  1  6  0  0  0
 15 17  1  0  0  0  0
 15 37  1  0  0  0  0
 17 18  1  0  0  0  0
 17 58  1  0  0  0  0
 18 19  2  0  0  0  0
 18 20  1  0  0  0  0
 20 21  1  1  0  0  0
 20 22  1  0  0  0  0
 20 33  1  0  0  0  0
 22 23  1  0  0  0  0
 22 59  1  0  0  0  0
 23 24  2  0  0  0  0
 23 25  1  0  0  0  0
 25 26  1  0  0  0  0
 26 27  1  0  0  0  0
 26 60  1  0  0  0  0
 26 61  1  0  0  0  0
 27 28  2  0  0  0  0
 27 32  1  0  0  0  0
 28 29  1  0  0  0  0
 28 62  1  0  0  0  0
 29 30  2  0  0  0  0
 29 63  1  0  0  0  0
 30 31  1  0  0  0  0
 30 64  1  0  0  0  0
 31 32  2  0  0  0  0
 31 65  1  0  0  0  0
 32 66  1  0  0  0  0
 33 34  1  0  0  0  0
 33 67  1  0  0  0  0
 33 68  1  0  0  0  0
 34 35  1  0  0  0  0
 34 36  1  0  0  0  0
 34 69  1  0  0  0  0
 35 70  1  0  0  0  0
 35 71  1  0  0  0  0
 35 72  1  0  0  0  0
 36 73  1  0  0  0  0
 36 74  1  0  0  0  0
 36 75  1  0  0  0  0
 37 38  1  0  0  0  0
 37 76  1  0  0  0  0
 37 77  1  0  0  0  0
 38 39  2  0  0  0  0
 38 43  1  0  0  0  0
 39 40  1  0  0  0  0
 39 78  1  0  0  0  0
 40 41  2  0  0  0  0
 40 79  1  0  0  0  0
 41 42  1  0  0  0  0
 41 80  1  0  0  0  0
 42 43  2  0  0  0  0
 42 81  1  0  0  0  0
 43 82  1  0  0  0  0
 44 45  1  0  0  0  0
 44 83  1  0  0  0  0
 44 84  1  0  0  0  0
 45 46  1  0  0  0  0
 45 85  1  0  0  0  0
 45 86  1  0  0  0  0
 46 47  2  0  0  0  0
 46 48  1  0  0  0  0
 48 87  1  0  0  0  0
 48 88  1  0  0  0  0
 49 89  1  0  0  0  0
M  END
$$$$
