AZY
 OpenBabel04121316083D

 26 26  0  0  1  0  0  0  0  0999 V2000
    1.0713   -0.0045   -0.0971 N   0  5  0  0  0  0  0  0  0  0  0  0
    2.2043   -0.0502   -0.1056 N   0  3  0  0  0  0  0  0  0  0  0  0
    3.4565   -0.0568   -0.1071 N   0  0  0  0  0  0  0  0  0  0  0  0
    4.0680    1.1713   -0.4419 C   0  0  0  0  0  0  0  0  0  0  0  0
    3.4271    2.3931   -0.2644 C   0  0  0  0  0  0  0  0  0  0  0  0
    4.0711    3.6343   -0.4058 C   0  0  0  0  0  0  0  0  0  0  0  0
    5.3829    3.6501   -0.8695 C   0  0  0  0  0  0  0  0  0  0  0  0
    6.0469    2.4418   -1.0948 C   0  0  0  0  0  0  0  0  0  0  0  0
    5.3849    1.2217   -0.8945 C   0  0  0  0  0  0  0  0  0  0  0  0
    6.0103    0.0396   -1.1750 O   0  0  0  0  0  0  0  0  0  0  0  0
    3.3707    4.9206   -0.0372 C   0  0  0  0  0  0  0  0  0  0  0  0
    2.0672    4.7047    0.7521 C   0  0  1  0  0  0  0  0  0  0  0  0
    1.3947    4.0309    0.2087 H   0  0  0  0  0  0  0  0  0  0  0  0
    2.2694    4.1933    2.2289 C   0  0  0  0  0  0  0  0  0  0  0  0
    1.7821    4.7810    3.1904 O   0  0  0  0  0  0  0  0  0  0  0  0
    2.9723    3.0711    2.4870 O   0  0  0  0  0  0  0  0  0  0  0  0
    1.3138    5.9807    0.8050 N   0  0  0  0  0  0  0  0  0  0  0  0
    2.4081    2.3525    0.1060 H   0  0  0  0  0  0  0  0  0  0  0  0
    5.8890    4.5963   -1.0592 H   0  0  0  0  0  0  0  0  0  0  0  0
    7.0850    2.4686   -1.4118 H   0  0  0  0  0  0  0  0  0  0  0  0
    6.8071    0.2194   -1.6961 H   0  0  0  0  0  0  0  0  0  0  0  0
    3.1641    5.4481   -0.9809 H   0  0  0  0  0  0  0  0  0  0  0  0
    4.0423    5.5642    0.5479 H   0  0  0  0  0  0  0  0  0  0  0  0
    3.5680    2.6276    1.8612 H   0  0  0  0  0  0  0  0  0  0  0  0
    1.2186    6.4094   -0.1101 H   0  0  0  0  0  0  0  0  0  0  0  0
    1.8106    6.6256    1.4197 H   0  0  0  0  0  0  0  0  0  0  0  0
  1  2  2  0  0  0  0
  2  3  2  0  0  0  0
  3  4  1  0  0  0  0
  4  5  2  0  0  0  0
  4  9  1  0  0  0  0
  5  6  1  0  0  0  0
  5 18  1  0  0  0  0
  6  7  2  0  0  0  0
  6 11  1  0  0  0  0
  7  8  1  0  0  0  0
  7 19  1  0  0  0  0
  8  9  2  0  0  0  0
  8 20  1  0  0  0  0
  9 10  1  0  0  0  0
 10 21  1  0  0  0  0
 11 12  1  0  0  0  0
 11 22  1  0  0  0  0
 11 23  1  0  0  0  0
 12 13  1  6  0  0  0
 12 14  1  0  0  0  0
 12 17  1  0  0  0  0
 14 15  2  0  0  0  0
 14 16  1  0  0  0  0
 16 24  1  0  0  0  0
 17 25  1  0  0  0  0
 17 26  1  0  0  0  0
M  CHG  2   1  -1   2   1
M  END
$$$$
