B0D
 OpenBabel04121316083D

 23 23  0  0  1  0  0  0  0  0999 V2000
    0.7356    0.2272    2.5442 O   0  0  0  0  0  0  0  0  0  0  0  0
    2.1342    0.5185    2.4658 C   0  0  0  0  0  0  0  0  0  0  0  0
    2.8624   -0.3800    1.4471 C   0  0  2  0  0  0  0  0  0  0  0  0
    2.3888   -0.1033    0.1928 F   0  0  0  0  0  0  0  0  0  0  0  0
    2.5812   -1.7591    1.7050 O   0  0  0  0  0  0  0  0  0  0  0  0
    3.1640   -2.6097    0.7308 C   0  0  2  0  0  0  0  0  0  0  0  0
    2.7296   -2.4197   -0.2576 H   0  0  0  0  0  0  0  0  0  0  0  0
    2.8411   -3.8861    1.0798 F   0  0  0  0  0  0  0  0  0  0  0  0
    4.6933   -2.4951    0.7107 C   0  0  1  0  0  0  0  0  0  0  0  0
    5.0950   -3.1531   -0.0669 H   0  0  0  0  0  0  0  0  0  0  0  0
    5.0748   -1.0363    0.4473 C   0  0  2  0  0  0  0  0  0  0  0  0
    6.1599   -0.9300    0.5538 H   0  0  0  0  0  0  0  0  0  0  0  0
    4.3808   -0.0840    1.4449 C   0  0  2  0  0  0  0  0  0  0  0  0
    4.5398    0.9479    1.1129 H   0  0  0  0  0  0  0  0  0  0  0  0
    4.9217   -0.1748    2.7700 O   0  0  0  0  0  0  0  0  0  0  0  0
    4.7562   -0.6847   -0.9078 O   0  0  0  0  0  0  0  0  0  0  0  0
    5.2747   -2.9205    1.9537 O   0  0  0  0  0  0  0  0  0  0  0  0
    0.3901    0.7171    3.3142 H   0  0  0  0  0  0  0  0  0  0  0  0
    2.5510    0.3888    3.4693 H   0  0  0  0  0  0  0  0  0  0  0  0
    2.2274    1.5683    2.1690 H   0  0  0  0  0  0  0  0  0  0  0  0
    5.8669   -0.3892    2.7133 H   0  0  0  0  0  0  0  0  0  0  0  0
    3.7937   -0.5381   -0.9966 H   0  0  0  0  0  0  0  0  0  0  0  0
    4.7765   -3.7141    2.2353 H   0  0  0  0  0  0  0  0  0  0  0  0
  1  2  1  0  0  0  0
  1 18  1  0  0  0  0
  2 19  1  0  0  0  0
  2 20  1  0  0  0  0
  3  5  1  0  0  0  0
  3 13  1  0  0  0  0
  3  4  1  6  0  0  0
  3  2  1  0  0  0  0
  5  6  1  0  0  0  0
  6  7  1  6  0  0  0
  6  8  1  0  0  0  0
  6  9  1  0  0  0  0
  9 10  1  6  0  0  0
  9 11  1  0  0  0  0
  9 17  1  0  0  0  0
 11 13  1  0  0  0  0
 11 16  1  0  0  0  0
 11 12  1  1  0  0  0
 13 14  1  6  0  0  0
 13 15  1  0  0  0  0
 15 21  1  0  0  0  0
 16 22  1  0  0  0  0
 17 23  1  0  0  0  0
M  END
$$$$
