B16
 OpenBabel04121316083D

 34 34  0  0  1  0  0  0  0  0999 V2000
    2.8291    0.3810    1.4582 O   0  0  0  0  0  0  0  0  0  0  0  0
    2.4428    0.0572    0.1214 C   0  0  2  0  0  0  0  0  0  0  0  0
    1.3452    0.0759    0.0891 H   0  0  0  0  0  0  0  0  0  0  0  0
    2.9450   -1.3180   -0.3232 C   0  0  1  0  0  0  0  0  0  0  0  0
    4.0372   -1.3782   -0.2273 H   0  0  0  0  0  0  0  0  0  0  0  0
    2.3325   -2.3800    0.5659 C   0  0  0  0  0  0  0  0  0  0  0  0
    2.7610   -2.2074    1.9239 O   0  0  0  0  0  0  0  0  0  0  0  0
    2.1318   -3.3997    3.0082 P   0  0  0  0  0  0  0  0  0  0  0  0
    0.6875   -2.9862    2.7423 O   0  0  0  0  0  0  0  0  0  0  0  0
    2.5364   -4.5855    1.9686 O   0  0  0  0  0  0  0  0  0  0  0  0
    1.5026   -4.5919    4.0925 O   0  0  0  0  0  0  0  0  0  0  0  0
    2.5715   -1.6366   -1.6623 O   0  0  0  0  0  0  0  0  0  0  0  0
    2.9149   -0.6596   -2.6298 C   0  0  2  0  0  0  0  0  0  0  0  0
    3.9927   -0.7718   -2.8092 H   0  0  0  0  0  0  0  0  0  0  0  0
    2.6319    0.7974   -2.2433 C   0  0  1  0  0  0  0  0  0  0  0  0
    1.5730    1.0348   -2.3423 H   0  0  0  0  0  0  0  0  0  0  0  0
    3.0055    1.1182   -0.8123 C   0  0  1  0  0  0  0  0  0  0  0  0
    4.0914    1.2015   -0.6946 H   0  0  0  0  0  0  0  0  0  0  0  0
    2.4629    2.4013   -0.4592 O   0  0  0  0  0  0  0  0  0  0  0  0
    3.3300    1.6712   -3.1440 O   0  0  0  0  0  0  0  0  0  0  0  0
    2.3016   -0.9546   -3.8866 O   0  0  0  0  0  0  0  0  0  0  0  0
    0.7440   -0.6715   -4.2860 P   0  0  0  0  0  0  0  0  0  0  0  0
    0.2734   -1.0463   -2.8838 O   0  0  0  0  0  0  0  0  0  0  0  0
    1.5760    0.5914   -4.8889 O   0  0  0  0  0  0  0  0  0  0  0  0
   -0.1843    0.6340   -4.0166 O   0  0  0  0  0  0  0  0  0  0  0  0
    3.7982    0.3364    1.5087 H   0  0  0  0  0  0  0  0  0  0  0  0
    2.6510   -3.3508    0.1708 H   0  0  0  0  0  0  0  0  0  0  0  0
    1.2389   -2.3569    0.4950 H   0  0  0  0  0  0  0  0  0  0  0  0
    3.5006   -4.6336    1.8449 H   0  0  0  0  0  0  0  0  0  0  0  0
    0.6092   -4.2568    4.3112 H   0  0  0  0  0  0  0  0  0  0  0  0
    1.4935    2.3377   -0.5266 H   0  0  0  0  0  0  0  0  0  0  0  0
    2.6895    1.8368   -3.8676 H   0  0  0  0  0  0  0  0  0  0  0  0
    2.4356    0.2668   -5.2330 H   0  0  0  0  0  0  0  0  0  0  0  0
   -0.5025    0.5433   -3.0975 H   0  0  0  0  0  0  0  0  0  0  0  0
  1 26  1  0  0  0  0
  2  4  1  0  0  0  0
  2 17  1  0  0  0  0
  2  3  1  6  0  0  0
  2  1  1  0  0  0  0
  4  5  1  1  0  0  0
  4  6  1  0  0  0  0
  4 12  1  0  0  0  0
  6  7  1  0  0  0  0
  6 27  1  0  0  0  0
  6 28  1  0  0  0  0
  7  8  1  0  0  0  0
  8  9  2  0  0  0  0
  8 10  1  0  0  0  0
  8 11  1  0  0  0  0
 10 29  1  0  0  0  0
 11 30  1  0  0  0  0
 12 13  1  0  0  0  0
 13 15  1  0  0  0  0
 13 21  1  0  0  0  0
 13 14  1  6  0  0  0
 15 16  1  6  0  0  0
 15 17  1  0  0  0  0
 15 20  1  0  0  0  0
 17 19  1  0  0  0  0
 17 18  1  1  0  0  0
 19 31  1  0  0  0  0
 20 32  1  0  0  0  0
 21 22  1  0  0  0  0
 22 23  2  0  0  0  0
 22 24  1  0  0  0  0
 22 25  1  0  0  0  0
 24 33  1  0  0  0  0
 25 34  1  0  0  0  0
M  END
$$$$
