B1Q
 OpenBabel04121316083D

 55 58  0  0  1  0  0  0  0  0999 V2000
    0.9269   -0.0694   -0.1161 F   0  0  0  0  0  0  0  0  0  0  0  0
    2.2863   -0.0387   -0.0916 C   0  0  0  0  0  0  0  0  0  0  0  0
    2.7623   -0.0413    1.3429 C   0  0  1  0  0  0  0  0  0  0  0  0
    3.8572    0.0295    1.3791 H   0  0  0  0  0  0  0  0  0  0  0  0
    2.1541    1.0837    2.1668 C   0  0  0  0  0  0  0  0  0  0  0  0
    2.2134    0.5273    3.5616 C   0  0  0  0  0  0  0  0  0  0  0  0
    2.2609    1.1987    4.5674 O   0  0  0  0  0  0  0  0  0  0  0  0
    2.1300   -0.8610    3.4458 N   0  0  0  0  0  0  0  0  0  0  0  0
    2.3153   -1.2907    2.0802 C   0  0  0  0  0  0  0  0  0  0  0  0
    1.6100   -1.7483    4.5120 C   0  0  1  0  0  0  0  0  0  0  0  0
    0.5753   -1.4205    4.6859 H   0  0  0  0  0  0  0  0  0  0  0  0
    1.5562   -3.2432    4.1046 C   0  0  0  0  0  0  0  0  0  0  0  0
    2.7711   -4.0240    4.2791 N   0  0  3  0  0  0  0  0  0  0  0  0
    2.5841   -5.4610    4.1129 C   0  0  0  0  0  0  0  0  0  0  0  0
    2.3707   -6.2141    5.4219 C   0  0  0  0  0  0  0  0  0  0  0  0
    3.3469   -5.7887    6.4798 C   0  0  0  0  0  0  0  0  0  0  0  0
    4.0056   -4.5566    6.4172 C   0  0  0  0  0  0  0  0  0  0  0  0
    3.8231   -3.6253    5.2229 C   0  0  2  0  0  0  0  0  0  0  0  0
    4.7504   -3.7531    4.6464 H   0  0  0  0  0  0  0  0  0  0  0  0
    3.7923   -2.1403    5.6409 C   0  0  0  0  0  0  0  0  0  0  0  0
    2.3902   -1.5756    5.8297 C   0  0  2  0  0  0  0  0  0  0  0  0
    2.5013   -0.5157    6.0668 H   0  0  0  0  0  0  0  0  0  0  0  0
    1.7083   -2.1612    6.9969 N   0  0  0  0  0  0  0  0  0  0  0  0
    4.9140   -4.2373    7.4462 C   0  0  0  0  0  0  0  0  0  0  0  0
    5.1170   -5.0774    8.5439 C   0  0  0  0  0  0  0  0  0  0  0  0
    4.4362   -6.2993    8.5969 C   0  0  0  0  0  0  0  0  0  0  0  0
    3.5620   -6.6414    7.5646 C   0  0  0  0  0  0  0  0  0  0  0  0
    4.6639   -7.1172    9.6633 O   0  0  0  0  0  0  0  0  0  0  0  0
    4.0012   -8.3633    9.7114 C   0  0  0  0  0  0  0  0  0  0  0  0
    6.0003   -4.5634    9.4623 O   0  0  0  0  0  0  0  0  0  0  0  0
    6.2744   -5.3681   10.6014 C   0  0  0  0  0  0  0  0  0  0  0  0
    2.6136    0.8627   -0.6151 H   0  0  0  0  0  0  0  0  0  0  0  0
    2.6471   -0.9203   -0.6285 H   0  0  0  0  0  0  0  0  0  0  0  0
    1.0954    1.2494    1.9350 H   0  0  0  0  0  0  0  0  0  0  0  0
    2.7059    2.0207    2.0787 H   0  0  0  0  0  0  0  0  0  0  0  0
    1.3823   -1.6989    1.6797 H   0  0  0  0  0  0  0  0  0  0  0  0
    3.1006   -2.0534    2.0588 H   0  0  0  0  0  0  0  0  0  0  0  0
    1.3262   -3.3233    3.0364 H   0  0  0  0  0  0  0  0  0  0  0  0
    0.6947   -3.7121    4.5966 H   0  0  0  0  0  0  0  0  0  0  0  0
    3.4750   -5.8532    3.6103 H   0  0  0  0  0  0  0  0  0  0  0  0
    1.7431   -5.6824    3.4425 H   0  0  0  0  0  0  0  0  0  0  0  0
    2.4869   -7.2892    5.2276 H   0  0  0  0  0  0  0  0  0  0  0  0
    1.3556   -6.0561    5.8061 H   0  0  0  0  0  0  0  0  0  0  0  0
    4.3240   -1.5575    4.8772 H   0  0  0  0  0  0  0  0  0  0  0  0
    4.3418   -1.9363    6.5637 H   0  0  0  0  0  0  0  0  0  0  0  0
    2.3010   -2.0168    7.8167 H   0  0  0  0  0  0  0  0  0  0  0  0
    1.6478   -3.1726    6.8874 H   0  0  0  0  0  0  0  0  0  0  0  0
    5.4955   -3.3177    7.4158 H   0  0  0  0  0  0  0  0  0  0  0  0
    3.0267   -7.5845    7.5742 H   0  0  0  0  0  0  0  0  0  0  0  0
    4.3217   -8.8617   10.6286 H   0  0  0  0  0  0  0  0  0  0  0  0
    4.2934   -8.9890    8.8629 H   0  0  0  0  0  0  0  0  0  0  0  0
    2.9180   -8.2200    9.7606 H   0  0  0  0  0  0  0  0  0  0  0  0
    6.9856   -4.8458   11.2438 H   0  0  0  0  0  0  0  0  0  0  0  0
    6.7477   -6.3093   10.2997 H   0  0  0  0  0  0  0  0  0  0  0  0
    5.3659   -5.5257   11.1942 H   0  0  0  0  0  0  0  0  0  0  0  0
  1  2  1  0  0  0  0
  2  3  1  0  0  0  0
  2 32  1  0  0  0  0
  2 33  1  0  0  0  0
  3  4  1  1  0  0  0
  3  5  1  0  0  0  0
  3  9  1  0  0  0  0
  5  6  1  0  0  0  0
  5 34  1  0  0  0  0
  5 35  1  0  0  0  0
  6  7  2  0  0  0  0
  6  8  1  0  0  0  0
  8  9  1  0  0  0  0
  8 10  1  0  0  0  0
  9 36  1  0  0  0  0
  9 37  1  0  0  0  0
 10 11  1  1  0  0  0
 10 12  1  0  0  0  0
 10 21  1  0  0  0  0
 12 13  1  0  0  0  0
 12 38  1  0  0  0  0
 12 39  1  0  0  0  0
 13 14  1  0  0  0  0
 13 18  1  0  0  0  0
 14 15  1  0  0  0  0
 14 40  1  0  0  0  0
 14 41  1  0  0  0  0
 15 16  1  0  0  0  0
 15 42  1  0  0  0  0
 15 43  1  0  0  0  0
 16 17  2  0  0  0  0
 16 27  1  0  0  0  0
 17 18  1  0  0  0  0
 17 24  1  0  0  0  0
 18 19  1  6  0  0  0
 18 20  1  0  0  0  0
 20 21  1  0  0  0  0
 20 44  1  0  0  0  0
 20 45  1  0  0  0  0
 21 22  1  1  0  0  0
 21 23  1  0  0  0  0
 23 46  1  0  0  0  0
 23 47  1  0  0  0  0
 24 25  2  0  0  0  0
 24 48  1  0  0  0  0
 25 26  1  0  0  0  0
 25 30  1  0  0  0  0
 26 27  2  0  0  0  0
 26 28  1  0  0  0  0
 27 49  1  0  0  0  0
 28 29  1  0  0  0  0
 29 50  1  0  0  0  0
 29 51  1  0  0  0  0
 29 52  1  0  0  0  0
 30 31  1  0  0  0  0
 31 53  1  0  0  0  0
 31 54  1  0  0  0  0
 31 55  1  0  0  0  0
M  END
$$$$
