B21
 OpenBabel04121316083D

 26 27  0  0  0  0  0  0  0  0999 V2000
    1.0770    0.2703   -0.2534 C   0  0  0  0  0  0  0  0  0  0  0  0
    2.4963    0.1995   -0.0593 O   0  0  0  0  0  0  0  0  0  0  0  0
    3.0641   -0.8793   -0.6893 C   0  0  0  0  0  0  0  0  0  0  0  0
    3.9655   -0.5954   -1.7314 C   0  0  0  0  0  0  0  0  0  0  0  0
    4.4306   -1.6141   -2.5682 C   0  0  0  0  0  0  0  0  0  0  0  0
    4.1124   -2.9322   -2.2820 C   0  0  0  0  0  0  0  0  0  0  0  0
    3.3811   -3.2213   -1.1284 C   0  0  0  0  0  0  0  0  0  0  0  0
    2.8165   -2.2073   -0.3177 C   0  0  0  0  0  0  0  0  0  0  0  0
    1.9787   -2.6208    0.8189 C   0  0  0  0  0  0  0  0  0  0  0  0
    1.5694   -3.8697    1.2364 C   0  0  0  0  0  0  0  0  0  0  0  0
    0.6220   -3.6707    2.2556 C   0  0  0  0  0  0  0  0  0  0  0  0
    0.4781   -2.3095    2.4276 C   0  0  0  0  0  0  0  0  0  0  0  0
    1.3938   -1.6682    1.6319 O   0  0  0  0  0  0  0  0  0  0  0  0
   -0.4676   -1.6126    3.2736 C   0  0  0  0  0  0  0  0  0  0  0  0
   -1.2196   -2.1800    4.0655 O   0  0  0  0  0  0  0  0  0  0  0  0
   -0.5250   -0.2695    3.0947 O   0  0  0  0  0  0  0  0  0  0  0  0
    0.7063    1.0778    0.3850 H   0  0  0  0  0  0  0  0  0  0  0  0
    0.5172   -0.6205    0.0363 H   0  0  0  0  0  0  0  0  0  0  0  0
    0.8176    0.4576   -1.2952 H   0  0  0  0  0  0  0  0  0  0  0  0
    4.2925    0.4256   -1.9122 H   0  0  0  0  0  0  0  0  0  0  0  0
    5.0357   -1.3832   -3.4419 H   0  0  0  0  0  0  0  0  0  0  0  0
    4.4466   -3.7379   -2.9326 H   0  0  0  0  0  0  0  0  0  0  0  0
    3.2475   -4.2713   -0.8807 H   0  0  0  0  0  0  0  0  0  0  0  0
    1.8820   -4.8117    0.8116 H   0  0  0  0  0  0  0  0  0  0  0  0
    0.0582   -4.4213    2.7873 H   0  0  0  0  0  0  0  0  0  0  0  0
    0.1098    0.0685    2.4371 H   0  0  0  0  0  0  0  0  0  0  0  0
  1  2  1  0  0  0  0
  1 17  1  0  0  0  0
  1 18  1  0  0  0  0
  1 19  1  0  0  0  0
  2  3  1  0  0  0  0
  3  4  2  0  0  0  0
  3  8  1  0  0  0  0
  4  5  1  0  0  0  0
  4 20  1  0  0  0  0
  5  6  2  0  0  0  0
  5 21  1  0  0  0  0
  6  7  1  0  0  0  0
  6 22  1  0  0  0  0
  7  8  2  0  0  0  0
  7 23  1  0  0  0  0
  8  9  1  0  0  0  0
  9 10  2  0  0  0  0
  9 13  1  0  0  0  0
 10 11  1  0  0  0  0
 10 24  1  0  0  0  0
 11 12  2  0  0  0  0
 11 25  1  0  0  0  0
 12 13  1  0  0  0  0
 12 14  1  0  0  0  0
 14 15  2  0  0  0  0
 14 16  1  0  0  0  0
 16 26  1  0  0  0  0
M  END
$$$$
