B49
 OpenBabel04121316083D

 56 58  0  0  0  0  0  0  0  0999 V2000
    0.9992    0.3205   -0.2893 C   0  0  0  0  0  0  0  0  0  0  0  0
    2.5047    0.0756   -0.1264 C   0  0  0  0  0  0  0  0  0  0  0  0
    2.9721   -0.4741    1.1735 N   0  0  0  0  0  0  0  0  0  0  0  0
    2.4825   -1.8357    1.4442 C   0  0  0  0  0  0  0  0  0  0  0  0
    0.9866   -1.8908    1.5925 C   0  0  0  0  0  0  0  0  0  0  0  0
    0.4681   -3.1217    2.0352 N   0  0  0  0  0  0  0  0  0  0  0  0
   -0.8682   -3.2816    1.7801 C   0  0  0  0  0  0  0  0  0  0  0  0
   -1.6355   -2.3622    1.5064 O   0  0  0  0  0  0  0  0  0  0  0  0
   -1.2948   -4.6394    1.8913 C   0  0  0  0  0  0  0  0  0  0  0  0
   -0.5884   -5.7854    1.5610 C   0  0  0  0  0  0  0  0  0  0  0  0
    0.7421   -6.0138    0.9467 C   0  0  0  0  0  0  0  0  0  0  0  0
   -1.3810   -6.8407    1.9138 N   0  0  0  0  0  0  0  0  0  0  0  0
   -1.1183   -7.8168    1.8117 H   0  0  0  0  0  0  0  0  0  0  0  0
   -2.5659   -6.3814    2.4127 C   0  0  0  0  0  0  0  0  0  0  0  0
   -2.5611   -5.0113    2.3913 C   0  0  0  0  0  0  0  0  0  0  0  0
   -3.6266   -4.0727    2.8430 C   0  0  0  0  0  0  0  0  0  0  0  0
   -3.5773   -7.2228    2.8627 C   0  0  0  0  0  0  0  0  0  0  0  0
   -3.5926   -8.5479    2.8904 C   0  0  0  0  0  0  0  0  0  0  0  0
   -2.6095   -9.6019    2.4843 C   0  0  0  0  0  0  0  0  0  0  0  0
   -1.5070   -9.4549    2.0129 O   0  0  0  0  0  0  0  0  0  0  0  0
   -3.2553  -10.7993    2.7762 N   0  0  0  0  0  0  0  0  0  0  0  0
   -4.5267  -10.5759    3.3182 C   0  0  0  0  0  0  0  0  0  0  0  0
   -4.7741   -9.2091    3.4061 C   0  0  0  0  0  0  0  0  0  0  0  0
   -5.9538   -8.6819    3.9034 C   0  0  0  0  0  0  0  0  0  0  0  0
   -6.9110   -9.5731    4.3264 C   0  0  0  0  0  0  0  0  0  0  0  0
   -8.0630   -9.0945    4.8116 F   0  0  0  0  0  0  0  0  0  0  0  0
   -6.6874  -10.9530    4.2516 C   0  0  0  0  0  0  0  0  0  0  0  0
   -5.4815  -11.4740    3.7399 C   0  0  0  0  0  0  0  0  0  0  0  0
    4.4502   -0.4690    1.2112 C   0  0  0  0  0  0  0  0  0  0  0  0
    5.0193   -0.9423    2.5500 C   0  0  0  0  0  0  0  0  0  0  0  0
    0.7836    0.9436   -1.1577 H   0  0  0  0  0  0  0  0  0  0  0  0
    0.5669    0.7814    0.6057 H   0  0  0  0  0  0  0  0  0  0  0  0
    0.4458   -0.5813   -0.5401 H   0  0  0  0  0  0  0  0  0  0  0  0
    2.9694    1.0594   -0.2630 H   0  0  0  0  0  0  0  0  0  0  0  0
    2.8491   -0.5647   -0.9470 H   0  0  0  0  0  0  0  0  0  0  0  0
    2.8656   -2.2196    2.3927 H   0  0  0  0  0  0  0  0  0  0  0  0
    2.8188   -2.5301    0.6624 H   0  0  0  0  0  0  0  0  0  0  0  0
    0.5509   -1.8394    0.6102 H   0  0  0  0  0  0  0  0  0  0  0  0
    0.5926   -1.1122    2.2526 H   0  0  0  0  0  0  0  0  0  0  0  0
    1.0668   -3.9243    2.1423 H   0  0  0  0  0  0  0  0  0  0  0  0
    1.1989   -5.0866    0.5943 H   0  0  0  0  0  0  0  0  0  0  0  0
    0.6622   -6.6559    0.0671 H   0  0  0  0  0  0  0  0  0  0  0  0
    1.4178   -6.4695    1.6777 H   0  0  0  0  0  0  0  0  0  0  0  0
   -4.5054   -4.5872    3.2371 H   0  0  0  0  0  0  0  0  0  0  0  0
   -3.9605   -3.4550    2.0043 H   0  0  0  0  0  0  0  0  0  0  0  0
   -3.2409   -3.4270    3.6381 H   0  0  0  0  0  0  0  0  0  0  0  0
   -4.4475   -6.6908    3.2306 H   0  0  0  0  0  0  0  0  0  0  0  0
   -2.8051  -11.6832    2.5951 H   0  0  0  0  0  0  0  0  0  0  0  0
   -6.1455   -7.6183    3.9696 H   0  0  0  0  0  0  0  0  0  0  0  0
   -7.4756  -11.6106    4.6015 H   0  0  0  0  0  0  0  0  0  0  0  0
   -5.3279  -12.5440    3.6872 H   0  0  0  0  0  0  0  0  0  0  0  0
    4.8143    0.5518    1.0429 H   0  0  0  0  0  0  0  0  0  0  0  0
    4.8545   -1.0963    0.4066 H   0  0  0  0  0  0  0  0  0  0  0  0
    4.6407   -0.3271    3.3726 H   0  0  0  0  0  0  0  0  0  0  0  0
    6.1106   -0.8882    2.5424 H   0  0  0  0  0  0  0  0  0  0  0  0
    4.7760   -1.9876    2.7634 H   0  0  0  0  0  0  0  0  0  0  0  0
  1  2  1  0  0  0  0
  1 31  1  0  0  0  0
  1 32  1  0  0  0  0
  1 33  1  0  0  0  0
  2  3  1  0  0  0  0
  2 34  1  0  0  0  0
  2 35  1  0  0  0  0
  3  4  1  0  0  0  0
  3 29  1  0  0  0  0
  4  5  1  0  0  0  0
  4 36  1  0  0  0  0
  4 37  1  0  0  0  0
  5  6  1  0  0  0  0
  5 38  1  0  0  0  0
  5 39  1  0  0  0  0
  6  7  1  0  0  0  0
  6 40  1  0  0  0  0
  7  8  2  0  0  0  0
  7  9  1  0  0  0  0
  9 10  2  0  0  0  0
  9 15  1  0  0  0  0
 10 11  1  0  0  0  0
 10 12  1  0  0  0  0
 11 41  1  0  0  0  0
 11 42  1  0  0  0  0
 11 43  1  0  0  0  0
 12 13  1  0  0  0  0
 12 14  1  0  0  0  0
 14 15  2  0  0  0  0
 14 17  1  0  0  0  0
 15 16  1  0  0  0  0
 16 44  1  0  0  0  0
 16 45  1  0  0  0  0
 16 46  1  0  0  0  0
 17 18  2  0  0  0  0
 17 47  1  0  0  0  0
 18 19  1  0  0  0  0
 18 23  1  0  0  0  0
 19 20  2  0  0  0  0
 19 21  1  0  0  0  0
 21 22  1  0  0  0  0
 21 48  1  0  0  0  0
 22 23  2  0  0  0  0
 22 28  1  0  0  0  0
 23 24  1  0  0  0  0
 24 25  2  0  0  0  0
 24 49  1  0  0  0  0
 25 26  1  0  0  0  0
 25 27  1  0  0  0  0
 27 28  2  0  0  0  0
 27 50  1  0  0  0  0
 28 51  1  0  0  0  0
 29 30  1  0  0  0  0
 29 52  1  0  0  0  0
 29 53  1  0  0  0  0
 30 54  1  0  0  0  0
 30 55  1  0  0  0  0
 30 56  1  0  0  0  0
M  END
$$$$
