B4N
 OpenBabel04121316083D

 32 33  0  0  0  0  0  0  0  0999 V2000
    1.0309    0.0715    0.0628 O   0  0  0  0  0  0  0  0  0  0  0  0
    2.7609    0.0715    0.0628 P   0  0  0  0  0  0  0  0  0  0  0  0
    2.6963    0.3160    1.5722 O   0  0  0  0  0  0  0  0  0  0  0  0
    2.6497   -1.5850   -0.2100 O   0  0  0  0  0  0  0  0  0  0  0  0
    1.5501   -2.3273   -0.6199 C   0  0  0  0  0  0  0  0  0  0  0  0
    1.5604   -3.6964   -0.3700 C   0  0  0  0  0  0  0  0  0  0  0  0
    0.4220   -4.4590   -0.6807 C   0  0  0  0  0  0  0  0  0  0  0  0
   -0.7783   -3.8049   -1.0053 C   0  0  0  0  0  0  0  0  0  0  0  0
   -0.8164   -2.4330   -1.1102 C   0  0  0  0  0  0  0  0  0  0  0  0
    0.3929   -1.7780   -1.1872 C   0  0  0  0  0  0  0  0  0  0  0  0
   -1.9684   -4.5429   -1.4189 N   0  3  0  0  0  0  0  0  0  0  0  0
   -1.8754   -5.7615   -1.5409 O   0  0  0  0  0  0  0  0  0  0  0  0
   -2.9913   -3.8755   -1.6787 O   0  5  0  0  0  0  0  0  0  0  0  0
    4.4579    0.0715    0.0628 O   0  0  0  0  0  0  0  0  0  0  0  0
    5.1232   -0.4848   -0.9990 C   0  0  0  0  0  0  0  0  0  0  0  0
    5.7479    0.3354   -1.9315 C   0  0  0  0  0  0  0  0  0  0  0  0
    6.1967   -0.2217   -3.1343 C   0  0  0  0  0  0  0  0  0  0  0  0
    6.1104   -1.6099   -3.3326 C   0  0  0  0  0  0  0  0  0  0  0  0
    5.6601   -2.4455   -2.3094 C   0  0  0  0  0  0  0  0  0  0  0  0
    5.1617   -1.8729   -1.1450 C   0  0  0  0  0  0  0  0  0  0  0  0
    6.4490   -2.1893   -4.6366 N   0  3  0  0  0  0  0  0  0  0  0  0
    6.7939   -1.4188   -5.5375 O   0  0  0  0  0  0  0  0  0  0  0  0
    6.3334   -3.4205   -4.7637 O   0  5  0  0  0  0  0  0  0  0  0  0
    0.8112   -0.3890    0.9007 H   0  0  0  0  0  0  0  0  0  0  0  0
    2.4448   -4.1794    0.0381 H   0  0  0  0  0  0  0  0  0  0  0  0
    0.4767   -5.5431   -0.6545 H   0  0  0  0  0  0  0  0  0  0  0  0
   -1.7398   -1.8666   -1.2206 H   0  0  0  0  0  0  0  0  0  0  0  0
    0.3330   -0.7649   -1.5763 H   0  0  0  0  0  0  0  0  0  0  0  0
    5.8695    1.3995   -1.7449 H   0  0  0  0  0  0  0  0  0  0  0  0
    6.5881    0.4324   -3.9107 H   0  0  0  0  0  0  0  0  0  0  0  0
    5.6557   -3.5289   -2.4096 H   0  0  0  0  0  0  0  0  0  0  0  0
    4.7581   -2.5232   -0.3728 H   0  0  0  0  0  0  0  0  0  0  0  0
  1  2  1  0  0  0  0
  1 24  1  0  0  0  0
  2  3  2  0  0  0  0
  2  4  1  0  0  0  0
  2 14  1  0  0  0  0
  4  5  1  0  0  0  0
  5  6  2  0  0  0  0
  5 10  1  0  0  0  0
  6  7  1  0  0  0  0
  6 25  1  0  0  0  0
  7  8  2  0  0  0  0
  7 26  1  0  0  0  0
  8  9  1  0  0  0  0
  8 11  1  0  0  0  0
  9 10  2  0  0  0  0
  9 27  1  0  0  0  0
 10 28  1  0  0  0  0
 11 12  2  0  0  0  0
 11 13  1  0  0  0  0
 14 15  1  0  0  0  0
 15 16  2  0  0  0  0
 15 20  1  0  0  0  0
 16 17  1  0  0  0  0
 16 29  1  0  0  0  0
 17 18  2  0  0  0  0
 17 30  1  0  0  0  0
 18 19  1  0  0  0  0
 18 21  1  0  0  0  0
 19 20  2  0  0  0  0
 19 31  1  0  0  0  0
 20 32  1  0  0  0  0
 21 22  2  0  0  0  0
 21 23  1  0  0  0  0
M  CHG  4  11   1  13  -1  21   1  23  -1
M  END
$$$$
