B4P
 OpenBabel04121316083D

 81 86  0  0  1  0  0  0  0  0999 V2000
    5.0471   -2.7937    4.3481 O   0  0  0  0  0  0  0  0  0  0  0  0
    3.8694   -3.5772    4.5560 C   0  0  2  0  0  0  0  0  0  0  0  0
    3.3764   -3.4266    3.5959 H   0  0  0  0  0  0  0  0  0  0  0  0
    2.9385   -2.9733    5.5993 C   0  0  1  0  0  0  0  0  0  0  0  0
    3.0823   -1.8890    5.6104 H   0  0  0  0  0  0  0  0  0  0  0  0
    1.4094   -3.2576    5.4959 C   0  0  0  0  0  0  0  0  0  0  0  0
    0.7426   -2.9396    4.2256 O   0  0  0  0  0  0  0  0  0  0  0  0
   -0.9382   -3.3486    4.2491 P   0  0  1  0  0  0  0  0  0  0  0  0
   -1.4772   -2.8348    2.9183 O   0  0  0  0  0  0  0  0  0  0  0  0
   -0.5609   -4.9328    3.6653 O   0  0  0  0  0  0  0  0  0  0  0  0
    1.1495   -5.0752    3.4486 P   0  0  1  0  0  0  0  0  0  0  0  0
    1.0041   -6.1348    2.3440 O   0  0  0  0  0  0  0  0  0  0  0  0
    1.1094   -3.3615    2.4113 O   0  0  0  0  0  0  0  0  0  0  0  0
    0.2808   -1.5658    2.7787 P   0  0  2  0  0  0  0  0  0  0  0  0
   -0.5980   -1.0506    1.7545 O   0  0  0  0  0  0  0  0  0  0  0  0
    1.2500   -0.7088    3.7137 O   0  0  0  0  0  0  0  0  0  0  0  0
    1.6604    0.4371    2.7931 P   0  0  2  0  0  0  0  0  0  0  0  0
    0.7922    1.6269    3.2571 O   0  0  0  0  0  0  0  0  0  0  0  0
    0.9718    0.4666    1.2743 O   0  0  0  0  0  0  0  0  0  0  0  0
   -0.2251    1.3418    1.1688 C   0  0  0  0  0  0  0  0  0  0  0  0
   -1.1001    1.2220   -0.0722 C   0  0  1  0  0  0  0  0  0  0  0  0
   -0.4501    1.1372   -0.9462 H   0  0  0  0  0  0  0  0  0  0  0  0
   -2.0143    0.1041   -0.0653 O   0  0  0  0  0  0  0  0  0  0  0  0
   -3.0616    0.4614   -0.9573 C   0  0  2  0  0  0  0  0  0  0  0  0
   -2.7101    0.2401   -1.9728 H   0  0  0  0  0  0  0  0  0  0  0  0
   -3.3051    1.9588   -0.7698 C   0  0  1  0  0  0  0  0  0  0  0  0
   -4.1341    2.1545   -0.0795 H   0  0  0  0  0  0  0  0  0  0  0  0
   -2.0137    2.4541   -0.1299 C   0  0  2  0  0  0  0  0  0  0  0  0
   -2.2520    2.8188    0.8794 H   0  0  0  0  0  0  0  0  0  0  0  0
   -1.3923    3.5273   -0.8269 O   0  0  0  0  0  0  0  0  0  0  0  0
   -3.6065    2.6391   -1.9889 O   0  0  0  0  0  0  0  0  0  0  0  0
   -4.2819   -0.3064   -0.7532 N   0  0  0  0  0  0  0  0  0  0  0  0
   -5.0510   -0.7517   -1.8060 C   0  0  0  0  0  0  0  0  0  0  0  0
   -6.2916   -0.9996   -1.4502 N   0  0  0  0  0  0  0  0  0  0  0  0
   -6.3167   -0.7638   -0.0912 C   0  0  0  0  0  0  0  0  0  0  0  0
   -5.0716   -0.3557    0.3689 C   0  0  0  0  0  0  0  0  0  0  0  0
   -4.7650    0.0060    1.6258 N   0  0  0  0  0  0  0  0  0  0  0  0
   -5.8246   -0.1419    2.4461 C   0  0  0  0  0  0  0  0  0  0  0  0
   -7.0885   -0.5075    2.1356 N   0  0  0  0  0  0  0  0  0  0  0  0
   -7.3640   -0.8068    0.8468 C   0  0  0  0  0  0  0  0  0  0  0  0
   -8.6652   -1.0986    0.4979 N   0  0  0  0  0  0  0  0  0  0  0  0
    2.6330   -0.8958    2.2733 O   0  0  0  0  0  0  0  0  0  0  0  0
   -0.5978   -1.2412    4.3669 O   0  0  0  0  0  0  0  0  0  0  0  0
    2.8600   -5.2177    3.2319 O   0  0  0  0  0  0  0  0  0  0  0  0
   -2.6190   -3.7576    4.2726 O   0  0  0  0  0  0  0  0  0  0  0  0
    3.3898   -3.5562    6.8521 O   0  0  0  0  0  0  0  0  0  0  0  0
    3.8357   -4.9180    6.6099 C   0  0  2  0  0  0  0  0  0  0  0  0
    4.7414   -5.1191    7.1920 H   0  0  0  0  0  0  0  0  0  0  0  0
    4.1754   -5.0156    5.1367 C   0  0  2  0  0  0  0  0  0  0  0  0
    3.5449   -5.8376    4.8437 H   0  0  0  0  0  0  0  0  0  0  0  0
    5.4698   -5.5354    4.8359 O   0  0  0  0  0  0  0  0  0  0  0  0
    2.8077   -5.8505    7.1216 N   0  0  0  0  0  0  0  0  0  0  0  0
    2.6463   -6.0600    8.4721 C   0  0  0  0  0  0  0  0  0  0  0  0
    1.6288   -6.8451    8.7479 N   0  0  0  0  0  0  0  0  0  0  0  0
    1.1012   -7.2012    7.5304 C   0  0  0  0  0  0  0  0  0  0  0  0
    1.8406   -6.6371    6.5046 C   0  0  0  0  0  0  0  0  0  0  0  0
    1.5793   -6.8265    5.2009 N   0  0  0  0  0  0  0  0  0  0  0  0
    0.4849   -7.5977    4.9674 C   0  0  0  0  0  0  0  0  0  0  0  0
   -0.3129   -8.1583    5.8695 N   0  0  0  0  0  0  0  0  0  0  0  0
   -0.0089   -7.9918    7.1665 C   0  0  0  0  0  0  0  0  0  0  0  0
   -0.8409   -8.6024    8.0700 N   0  0  0  0  0  0  0  0  0  0  0  0
    5.7535   -3.1561    4.9001 H   0  0  0  0  0  0  0  0  0  0  0  0
    0.8879   -2.7686    6.3236 H   0  0  0  0  0  0  0  0  0  0  0  0
    1.2243   -4.3094    5.6974 H   0  0  0  0  0  0  0  0  0  0  0  0
    0.1522    2.3688    1.2243 H   0  0  0  0  0  0  0  0  0  0  0  0
   -0.9006    1.1719    2.0283 H   0  0  0  0  0  0  0  0  0  0  0  0
   -2.1136    4.1313   -1.0847 H   0  0  0  0  0  0  0  0  0  0  0  0
   -4.4307    2.2534   -2.3393 H   0  0  0  0  0  0  0  0  0  0  0  0
   -4.6683   -0.8152   -2.8172 H   0  0  0  0  0  0  0  0  0  0  0  0
   -5.6449    0.0763    3.4949 H   0  0  0  0  0  0  0  0  0  0  0  0
   -9.3472   -1.1951    1.2322 H   0  0  0  0  0  0  0  0  0  0  0  0
   -8.8539   -1.3845   -0.4527 H   0  0  0  0  0  0  0  0  0  0  0  0
    3.2172   -0.6221    1.5379 H   0  0  0  0  0  0  0  0  0  0  0  0
    0.0469   -0.9730    5.0729 H   0  0  0  0  0  0  0  0  0  0  0  0
    2.9503   -6.0905    2.7865 H   0  0  0  0  0  0  0  0  0  0  0  0
   -3.1026   -2.9101    4.2671 H   0  0  0  0  0  0  0  0  0  0  0  0
    5.3934   -6.5129    4.8819 H   0  0  0  0  0  0  0  0  0  0  0  0
    3.3006   -5.5988    9.1999 H   0  0  0  0  0  0  0  0  0  0  0  0
    0.1771   -7.7279    3.9275 H   0  0  0  0  0  0  0  0  0  0  0  0
   -1.5300   -9.2354    7.6891 H   0  0  0  0  0  0  0  0  0  0  0  0
   -0.5593   -8.6286    9.0370 H   0  0  0  0  0  0  0  0  0  0  0  0
  1 62  1  0  0  0  0
  2  4  1  0  0  0  0
  2 49  1  0  0  0  0
  2  3  1  6  0  0  0
  2  1  1  0  0  0  0
  4  5  1  1  0  0  0
  4  6  1  0  0  0  0
  4 46  1  0  0  0  0
  6  7  1  0  0  0  0
  6 63  1  0  0  0  0
  6 64  1  0  0  0  0
  8  7  1  1  0  0  0
  8  9  2  0  0  0  0
  8 10  1  0  0  0  0
  8 45  1  0  0  0  0
 11 10  1  1  0  0  0
 11 12  2  0  0  0  0
 11 13  1  0  0  0  0
 11 44  1  0  0  0  0
 14 16  1  1  0  0  0
 14 43  1  0  0  0  0
 14 15  2  0  0  0  0
 14 13  1  0  0  0  0
 17 19  1  6  0  0  0
 17 42  1  0  0  0  0
 17 18  2  0  0  0  0
 17 16  1  0  0  0  0
 19 20  1  0  0  0  0
 20 21  1  0  0  0  0
 20 65  1  0  0  0  0
 20 66  1  0  0  0  0
 21 22  1  6  0  0  0
 21 23  1  0  0  0  0
 21 28  1  0  0  0  0
 23 24  1  0  0  0  0
 24 26  1  0  0  0  0
 24 32  1  0  0  0  0
 24 25  1  6  0  0  0
 26 27  1  1  0  0  0
 26 28  1  0  0  0  0
 26 31  1  0  0  0  0
 28 29  1  1  0  0  0
 28 30  1  0  0  0  0
 30 67  1  0  0  0  0
 31 68  1  0  0  0  0
 32 33  1  0  0  0  0
 32 36  1  0  0  0  0
 33 34  2  0  0  0  0
 33 69  1  0  0  0  0
 34 35  1  0  0  0  0
 35 36  2  0  0  0  0
 35 40  1  0  0  0  0
 36 37  1  0  0  0  0
 37 38  2  0  0  0  0
 38 39  1  0  0  0  0
 38 70  1  0  0  0  0
 39 40  2  0  0  0  0
 40 41  1  0  0  0  0
 41 71  1  0  0  0  0
 41 72  1  0  0  0  0
 42 73  1  0  0  0  0
 43 74  1  0  0  0  0
 44 75  1  0  0  0  0
 45 76  1  0  0  0  0
 46 47  1  0  0  0  0
 47 49  1  0  0  0  0
 47 52  1  0  0  0  0
 47 48  1  1  0  0  0
 49 50  1  6  0  0  0
 49 51  1  0  0  0  0
 51 77  1  0  0  0  0
 52 53  1  0  0  0  0
 52 56  1  0  0  0  0
 53 54  2  0  0  0  0
 53 78  1  0  0  0  0
 54 55  1  0  0  0  0
 55 56  2  0  0  0  0
 55 60  1  0  0  0  0
 56 57  1  0  0  0  0
 57 58  2  0  0  0  0
 58 59  1  0  0  0  0
 58 79  1  0  0  0  0
 59 60  2  0  0  0  0
 60 61  1  0  0  0  0
 61 80  1  0  0  0  0
 61 81  1  0  0  0  0
M  END
$$$$
