B54
 OpenBabel04121316083D

 39 40  0  0  0  0  0  0  0  0999 V2000
    1.0786   -0.3242   -0.1003 O   0  0  0  0  0  0  0  0  0  0  0  0
    2.3145   -0.3456   -0.0350 N   0  0  0  0  0  0  0  0  0  0  0  0
    2.9302   -0.1457   -1.2058 C   0  0  0  0  0  0  0  0  0  0  0  0
    3.2810    1.0495   -1.7684 C   0  0  0  0  0  0  0  0  0  0  0  0
    2.9998    2.2858   -1.1836 N   0  0  0  0  0  0  0  0  0  0  0  0
    2.2581    2.4626    0.0359 C   0  0  0  0  0  0  0  0  0  0  0  0
    2.0421    3.8874    0.4448 C   0  0  0  0  0  0  0  0  0  0  0  0
    1.2820    3.8382    1.7608 C   0  0  0  0  0  0  0  0  0  0  0  0
    1.0970    5.1705    2.2037 O   0  0  0  0  0  0  0  0  0  0  0  0
    0.3827    5.3020    3.3568 C   0  0  0  0  0  0  0  0  0  0  0  0
   -0.2064    4.2659    4.0787 C   0  0  0  0  0  0  0  0  0  0  0  0
   -1.0379    4.5616    5.1565 C   0  0  0  0  0  0  0  0  0  0  0  0
   -1.1912    5.8832    5.5985 C   0  0  0  0  0  0  0  0  0  0  0  0
   -0.4701    6.8986    4.9586 C   0  0  0  0  0  0  0  0  0  0  0  0
    0.2561    6.6133    3.8030 C   0  0  0  0  0  0  0  0  0  0  0  0
   -2.1547    6.1155    6.7094 C   0  0  0  0  0  0  0  0  0  0  0  0
   -2.8080    5.2008    7.2018 O   0  0  0  0  0  0  0  0  0  0  0  0
   -2.2980    7.3864    7.1244 O   0  0  0  0  0  0  0  0  0  0  0  0
    3.9674    1.1094   -2.9717 N   0  0  0  0  0  0  0  0  0  0  0  0
    4.3133    0.0121   -3.5627 C   0  0  0  0  0  0  0  0  0  0  0  0
    4.0183   -1.2124   -3.0634 N   0  0  0  0  0  0  0  0  0  0  0  0
    4.2985   -2.0574   -3.5294 H   0  0  0  0  0  0  0  0  0  0  0  0
    3.3375   -1.3864   -1.9000 C   0  0  0  0  0  0  0  0  0  0  0  0
    3.1072   -2.5175   -1.4770 O   0  0  0  0  0  0  0  0  0  0  0  0
    4.9983    0.0269   -4.7243 N   0  0  0  0  0  0  0  0  0  0  0  0
    3.2633    3.0905   -1.7452 H   0  0  0  0  0  0  0  0  0  0  0  0
    2.7984    1.9567    0.8454 H   0  0  0  0  0  0  0  0  0  0  0  0
    1.2648    2.0203   -0.0846 H   0  0  0  0  0  0  0  0  0  0  0  0
    1.4601    4.4260   -0.3106 H   0  0  0  0  0  0  0  0  0  0  0  0
    2.9908    4.4180    0.5669 H   0  0  0  0  0  0  0  0  0  0  0  0
    1.8640    3.2787    2.5067 H   0  0  0  0  0  0  0  0  0  0  0  0
    0.3158    3.3345    1.6069 H   0  0  0  0  0  0  0  0  0  0  0  0
   -0.0649    3.2211    3.8200 H   0  0  0  0  0  0  0  0  0  0  0  0
   -1.5734    3.7477    5.6444 H   0  0  0  0  0  0  0  0  0  0  0  0
   -0.4507    7.9231    5.3049 H   0  0  0  0  0  0  0  0  0  0  0  0
    0.7291    7.4171    3.2425 H   0  0  0  0  0  0  0  0  0  0  0  0
   -1.7777    8.0668    6.6687 H   0  0  0  0  0  0  0  0  0  0  0  0
    5.2338    0.9249   -5.1277 H   0  0  0  0  0  0  0  0  0  0  0  0
    5.2828   -0.8051   -5.2182 H   0  0  0  0  0  0  0  0  0  0  0  0
  1  2  2  0  0  0  0
  2  3  1  0  0  0  0
  3  4  2  0  0  0  0
  3 23  1  0  0  0  0
  4  5  1  0  0  0  0
  4 19  1  0  0  0  0
  5  6  1  0  0  0  0
  5 26  1  0  0  0  0
  6  7  1  0  0  0  0
  6 27  1  0  0  0  0
  6 28  1  0  0  0  0
  7  8  1  0  0  0  0
  7 29  1  0  0  0  0
  7 30  1  0  0  0  0
  8  9  1  0  0  0  0
  8 31  1  0  0  0  0
  8 32  1  0  0  0  0
  9 10  1  0  0  0  0
 10 11  2  0  0  0  0
 10 15  1  0  0  0  0
 11 12  1  0  0  0  0
 11 33  1  0  0  0  0
 12 13  2  0  0  0  0
 12 34  1  0  0  0  0
 13 14  1  0  0  0  0
 13 16  1  0  0  0  0
 14 15  2  0  0  0  0
 14 35  1  0  0  0  0
 15 36  1  0  0  0  0
 16 17  2  0  0  0  0
 16 18  1  0  0  0  0
 18 37  1  0  0  0  0
 19 20  2  0  0  0  0
 20 21  1  0  0  0  0
 20 25  1  0  0  0  0
 21 22  1  0  0  0  0
 21 23  1  0  0  0  0
 23 24  2  0  0  0  0
 25 38  1  0  0  0  0
 25 39  1  0  0  0  0
M  END
$$$$
