B58
 OpenBabel04121316083D

 17 18  0  0  0  0  0  0  0  0999 V2000
    0.9163   -0.0688    0.0008 N   0  0  0  0  0  0  0  0  0  0  0  0
    2.2898   -0.1011   -0.0059 C   0  0  0  0  0  0  0  0  0  0  0  0
    3.0083    1.0416   -0.0086 N   0  0  0  0  0  0  0  0  0  0  0  0
    4.4121    1.0526   -0.0138 N   0  0  0  0  0  0  0  0  0  0  0  0
    5.1420   -0.0873   -0.0165 C   0  0  0  0  0  0  0  0  0  0  0  0
    4.4183   -1.2970   -0.0134 C   0  0  0  0  0  0  0  0  0  0  0  0
    3.0282   -1.2735   -0.0084 C   0  0  0  0  0  0  0  0  0  0  0  0
    2.6642   -2.5957   -0.0061 N   0  0  0  0  0  0  0  0  0  0  0  0
    1.7170   -2.9448   -0.0019 H   0  0  0  0  0  0  0  0  0  0  0  0
    3.7987   -3.3536   -0.0100 C   0  0  0  0  0  0  0  0  0  0  0  0
    4.8785   -2.6066   -0.0145 N   0  0  0  0  0  0  0  0  0  0  0  0
    6.5205   -0.0399   -0.0225 N   0  0  0  0  0  0  0  0  0  0  0  0
    0.4863    0.8461   -0.0073 H   0  0  0  0  0  0  0  0  0  0  0  0
    0.3482   -0.8958   -0.0106 H   0  0  0  0  0  0  0  0  0  0  0  0
    3.7737   -4.4350   -0.0091 H   0  0  0  0  0  0  0  0  0  0  0  0
    6.9758    0.8581   -0.0216 H   0  0  0  0  0  0  0  0  0  0  0  0
    7.0311   -0.9113   -0.0211 H   0  0  0  0  0  0  0  0  0  0  0  0
  1  2  1  0  0  0  0
  1 13  1  0  0  0  0
  1 14  1  0  0  0  0
  2  3  2  0  0  0  0
  2  7  1  0  0  0  0
  3  4  1  0  0  0  0
  4  5  2  0  0  0  0
  5  6  1  0  0  0  0
  5 12  1  0  0  0  0
  6  7  2  0  0  0  0
  6 11  1  0  0  0  0
  7  8  1  0  0  0  0
  8  9  1  0  0  0  0
  8 10  1  0  0  0  0
 10 11  2  0  0  0  0
 10 15  1  0  0  0  0
 12 16  1  0  0  0  0
 12 17  1  0  0  0  0
M  END
$$$$
