B59
 OpenBabel04121316083D

 25 26  0  0  0  0  0  0  0  0999 V2000
    0.9685   -0.0967    0.0947 O   0  0  0  0  0  0  0  0  0  0  0  0
    2.1881   -0.0627    0.0852 C   0  0  0  0  0  0  0  0  0  0  0  0
    2.9221    0.5618   -1.0637 C   0  0  0  0  0  0  0  0  0  0  0  0
    2.8401    1.8528   -1.2111 N   0  0  0  0  0  0  0  0  0  0  0  0
    3.4579    2.4122   -2.3178 C   0  0  0  0  0  0  0  0  0  0  0  0
    3.3061    3.8895   -2.5157 C   0  0  0  0  0  0  0  0  0  0  0  0
    2.6715    4.5599   -1.7008 O   0  0  0  0  0  0  0  0  0  0  0  0
    3.9087    4.4313   -3.6332 N   0  0  0  0  0  0  0  0  0  0  0  0
    3.7838    5.8610   -3.8536 C   0  0  0  0  0  0  0  0  0  0  0  0
    4.6342    3.7078   -4.5671 C   0  0  0  0  0  0  0  0  0  0  0  0
    5.1524    4.2534   -5.5431 O   0  0  0  0  0  0  0  0  0  0  0  0
    4.7435    2.3355   -4.3352 N   0  0  0  0  0  0  0  0  0  0  0  0
    4.1623    1.7225   -3.2385 C   0  0  0  0  0  0  0  0  0  0  0  0
    4.2951    0.3629   -3.0605 N   0  0  0  0  0  0  0  0  0  0  0  0
    4.8204   -0.2079   -3.7064 H   0  0  0  0  0  0  0  0  0  0  0  0
    3.7275   -0.3026   -2.0033 C   0  0  0  0  0  0  0  0  0  0  0  0
    3.8546   -1.4975   -1.7892 O   0  0  0  0  0  0  0  0  0  0  0  0
    5.5002    1.5554   -5.3115 C   0  0  0  0  0  0  0  0  0  0  0  0
    2.8345   -0.5003    0.8606 H   0  0  0  0  0  0  0  0  0  0  0  0
    3.1985    6.3568   -3.0750 H   0  0  0  0  0  0  0  0  0  0  0  0
    3.3008    6.0329   -4.8209 H   0  0  0  0  0  0  0  0  0  0  0  0
    4.7838    6.3058   -3.8791 H   0  0  0  0  0  0  0  0  0  0  0  0
    5.9007    2.1698   -6.1224 H   0  0  0  0  0  0  0  0  0  0  0  0
    4.8451    0.7994   -5.7569 H   0  0  0  0  0  0  0  0  0  0  0  0
    6.3449    1.0723   -4.8096 H   0  0  0  0  0  0  0  0  0  0  0  0
  1  2  2  0  0  0  0
  2  3  1  0  0  0  0
  2 19  1  0  0  0  0
  3  4  2  0  0  0  0
  3 16  1  0  0  0  0
  4  5  1  0  0  0  0
  5  6  1  0  0  0  0
  5 13  2  0  0  0  0
  6  7  2  0  0  0  0
  6  8  1  0  0  0  0
  8  9  1  0  0  0  0
  8 10  1  0  0  0  0
  9 20  1  0  0  0  0
  9 21  1  0  0  0  0
  9 22  1  0  0  0  0
 10 11  2  0  0  0  0
 10 12  1  0  0  0  0
 12 13  1  0  0  0  0
 12 18  1  0  0  0  0
 13 14  1  0  0  0  0
 14 15  1  0  0  0  0
 14 16  1  0  0  0  0
 16 17  2  0  0  0  0
 18 23  1  0  0  0  0
 18 24  1  0  0  0  0
 18 25  1  0  0  0  0
M  END
$$$$
