B5P
 OpenBabel04121316083D

 55 58  0  0  0  0  0  0  0  0999 V2000
    0.9587    0.0466    0.0529 C   0  0  0  0  0  0  0  0  0  0  0  0
    2.4891    0.0610    0.0351 C   0  0  0  0  0  0  0  0  0  0  0  0
    3.0167    1.1689   -0.8696 C   0  0  0  0  0  0  0  0  0  0  0  0
    2.4915    1.0208   -2.2878 C   0  0  0  0  0  0  0  0  0  0  0  0
    2.8992    2.1198   -3.1272 N   0  0  0  0  0  0  0  0  0  0  0  0
    3.6200    1.8319   -4.2680 C   0  0  0  0  0  0  0  0  0  0  0  0
    4.0004    0.6869   -4.5049 O   0  0  0  0  0  0  0  0  0  0  0  0
    3.9373    2.9705   -5.2057 C   0  0  0  0  0  0  0  0  0  0  0  0
    4.6736    2.6791   -6.4800 C   0  0  0  0  0  0  0  0  0  0  0  0
    4.6812    1.4406   -6.8449 N   0  0  0  0  0  0  0  0  0  0  0  0
    5.4624    0.8978   -8.1240 S   0  0  0  0  0  0  0  0  0  0  0  0
    6.6379    0.1665   -7.7025 O   0  0  0  0  0  0  0  0  0  0  0  0
    4.4964    0.3103   -9.0352 O   0  0  0  0  0  0  0  0  0  0  0  0
    6.0736    2.3169   -8.9363 C   0  0  0  0  0  0  0  0  0  0  0  0
    5.9358    3.5617   -8.3590 C   0  0  0  0  0  0  0  0  0  0  0  0
    5.2485    3.7277   -7.1651 N   0  0  0  0  0  0  0  0  0  0  0  0
    6.4158    4.6660   -9.0637 C   0  0  0  0  0  0  0  0  0  0  0  0
    7.0837    4.4894  -10.2857 C   0  0  0  0  0  0  0  0  0  0  0  0
    7.2555    3.2063  -10.8194 C   0  0  0  0  0  0  0  0  0  0  0  0
    6.7350    2.1234  -10.1300 C   0  0  0  0  0  0  0  0  0  0  0  0
    7.9474    3.0206  -12.0535 N   0  0  0  0  0  0  0  0  0  0  0  0
    8.1421    1.4630  -12.6620 S   0  0  0  0  0  0  0  0  0  0  0  0
    9.0059    0.7412  -11.7523 O   0  0  0  0  0  0  0  0  0  0  0  0
    6.8286    0.9629  -13.0098 O   0  0  0  0  0  0  0  0  0  0  0  0
    9.0343    1.6986  -14.1670 C   0  0  0  0  0  0  0  0  0  0  0  0
    3.5627    4.2301   -4.8790 C   0  0  0  0  0  0  0  0  0  0  0  0
    2.8772    4.4400   -3.6901 N   0  0  0  0  0  0  0  0  0  0  0  0
    2.5313    3.4197   -2.8437 C   0  0  0  0  0  0  0  0  0  0  0  0
    1.8504    3.8542   -1.8082 N   0  0  0  0  0  0  0  0  0  0  0  0
    1.7756    5.2089   -1.9650 C   0  0  0  0  0  0  0  0  0  0  0  0
    2.3810    5.5941   -3.1368 C   0  0  0  0  0  0  0  0  0  0  0  0
    3.8026    5.3497   -5.6673 O   0  0  0  0  0  0  0  0  0  0  0  0
    3.0241    0.2885    1.4438 C   0  0  0  0  0  0  0  0  0  0  0  0
    0.5383   -0.1661   -0.9347 H   0  0  0  0  0  0  0  0  0  0  0  0
    0.5649    1.0155    0.3806 H   0  0  0  0  0  0  0  0  0  0  0  0
    0.5847   -0.7303    0.7225 H   0  0  0  0  0  0  0  0  0  0  0  0
    2.8531   -0.9044   -0.3374 H   0  0  0  0  0  0  0  0  0  0  0  0
    4.1152    1.1729   -0.8854 H   0  0  0  0  0  0  0  0  0  0  0  0
    2.7244    2.1325   -0.4417 H   0  0  0  0  0  0  0  0  0  0  0  0
    1.4010    1.0097   -2.3481 H   0  0  0  0  0  0  0  0  0  0  0  0
    2.8313    0.0573   -2.6879 H   0  0  0  0  0  0  0  0  0  0  0  0
    5.5491    4.5298   -6.6135 H   0  0  0  0  0  0  0  0  0  0  0  0
    6.2753    5.6702   -8.6677 H   0  0  0  0  0  0  0  0  0  0  0  0
    7.4616    5.3690  -10.7983 H   0  0  0  0  0  0  0  0  0  0  0  0
    6.8252    1.0974  -10.4736 H   0  0  0  0  0  0  0  0  0  0  0  0
    8.3235    3.8222  -12.5499 H   0  0  0  0  0  0  0  0  0  0  0  0
    9.9993    2.1511  -13.9415 H   0  0  0  0  0  0  0  0  0  0  0  0
    8.4375    2.3111  -14.8419 H   0  0  0  0  0  0  0  0  0  0  0  0
    9.1815    0.7046  -14.5992 H   0  0  0  0  0  0  0  0  0  0  0  0
    1.2789    5.8299   -1.2308 H   0  0  0  0  0  0  0  0  0  0  0  0
    2.4974    6.5559   -3.6125 H   0  0  0  0  0  0  0  0  0  0  0  0
    3.7245    5.0943   -6.6068 H   0  0  0  0  0  0  0  0  0  0  0  0
    2.6807    1.2513    1.8396 H   0  0  0  0  0  0  0  0  0  0  0  0
    4.1191    0.2958    1.4475 H   0  0  0  0  0  0  0  0  0  0  0  0
    2.6812   -0.5014    2.1164 H   0  0  0  0  0  0  0  0  0  0  0  0
  1  2  1  0  0  0  0
  1 34  1  0  0  0  0
  1 35  1  0  0  0  0
  1 36  1  0  0  0  0
  2  3  1  0  0  0  0
  2 33  1  0  0  0  0
  2 37  1  0  0  0  0
  3  4  1  0  0  0  0
  3 38  1  0  0  0  0
  3 39  1  0  0  0  0
  4  5  1  0  0  0  0
  4 40  1  0  0  0  0
  4 41  1  0  0  0  0
  5  6  1  0  0  0  0
  5 28  1  0  0  0  0
  6  7  2  0  0  0  0
  6  8  1  0  0  0  0
  8  9  1  0  0  0  0
  8 26  2  0  0  0  0
  9 10  2  0  0  0  0
  9 16  1  0  0  0  0
 10 11  1  0  0  0  0
 11 12  2  0  0  0  0
 11 13  2  0  0  0  0
 11 14  1  0  0  0  0
 14 15  2  0  0  0  0
 14 20  1  0  0  0  0
 15 16  1  0  0  0  0
 15 17  1  0  0  0  0
 16 42  1  0  0  0  0
 17 18  2  0  0  0  0
 17 43  1  0  0  0  0
 18 19  1  0  0  0  0
 18 44  1  0  0  0  0
 19 20  2  0  0  0  0
 19 21  1  0  0  0  0
 20 45  1  0  0  0  0
 21 22  1  0  0  0  0
 21 46  1  0  0  0  0
 22 23  2  0  0  0  0
 22 24  2  0  0  0  0
 22 25  1  0  0  0  0
 25 47  1  0  0  0  0
 25 48  1  0  0  0  0
 25 49  1  0  0  0  0
 26 27  1  0  0  0  0
 26 32  1  0  0  0  0
 27 28  1  0  0  0  0
 27 31  1  0  0  0  0
 28 29  2  0  0  0  0
 29 30  1  0  0  0  0
 30 31  2  0  0  0  0
 30 50  1  0  0  0  0
 31 51  1  0  0  0  0
 32 52  1  0  0  0  0
 33 53  1  0  0  0  0
 33 54  1  0  0  0  0
 33 55  1  0  0  0  0
M  END
$$$$
