B62
 OpenBabel04121316083D

 24 25  0  0  1  0  0  0  0  0999 V2000
    0.9226    0.0462   -0.0317 C   0  0  0  0  0  0  0  0  0  0  0  0
    2.4362    0.0103   -0.0521 C   0  0  2  0  0  0  0  0  0  0  0  0
    2.7581   -0.1034   -1.0970 H   0  0  0  0  0  0  0  0  0  0  0  0
    3.0176   -1.1690    0.7742 C   0  0  0  0  0  0  0  0  0  0  0  0
    4.4761   -1.1156    0.6698 N   0  0  0  0  0  0  0  0  0  0  0  0
    5.1673    0.0923    0.7822 C   0  0  0  0  0  0  0  0  0  0  0  0
    4.4239    1.2341    0.7162 C   0  0  0  0  0  0  0  0  0  0  0  0
    3.0414    1.2314    0.4831 N   0  0  0  0  0  0  0  0  0  0  0  0
    5.1464    2.5195    0.8885 C   0  0  0  0  0  0  0  0  0  0  0  0
    4.5670    3.6089    0.8557 O   0  0  0  0  0  0  0  0  0  0  0  0
    6.4895    2.4180    1.0766 N   0  0  0  0  0  0  0  0  0  0  0  0
    6.9901    3.2823    1.1843 H   0  0  0  0  0  0  0  0  0  0  0  0
    7.1375    1.2226    1.1027 C   0  0  0  0  0  0  0  0  0  0  0  0
    6.5307    0.0889    0.9555 N   0  0  0  0  0  0  0  0  0  0  0  0
    8.4749    1.2704    1.2933 N   0  0  0  0  0  0  0  0  0  0  0  0
    0.5221   -0.8872   -0.4446 H   0  0  0  0  0  0  0  0  0  0  0  0
    0.5454    0.8685   -0.6493 H   0  0  0  0  0  0  0  0  0  0  0  0
    0.5295    0.1702    0.9807 H   0  0  0  0  0  0  0  0  0  0  0  0
    2.6247   -2.1332    0.4422 H   0  0  0  0  0  0  0  0  0  0  0  0
    2.7435   -1.0399    1.8315 H   0  0  0  0  0  0  0  0  0  0  0  0
    5.0340   -1.9473    0.5387 H   0  0  0  0  0  0  0  0  0  0  0  0
    2.5603    2.1235    0.5313 H   0  0  0  0  0  0  0  0  0  0  0  0
    8.9917    2.1218    1.4465 H   0  0  0  0  0  0  0  0  0  0  0  0
    8.9709    0.3903    1.3596 H   0  0  0  0  0  0  0  0  0  0  0  0
  1  2  1  0  0  0  0
  1 16  1  0  0  0  0
  1 17  1  0  0  0  0
  1 18  1  0  0  0  0
  2  3  1  6  0  0  0
  2  4  1  0  0  0  0
  2  8  1  0  0  0  0
  4  5  1  0  0  0  0
  4 19  1  0  0  0  0
  4 20  1  0  0  0  0
  5  6  1  0  0  0  0
  5 21  1  0  0  0  0
  6  7  2  0  0  0  0
  6 14  1  0  0  0  0
  7  8  1  0  0  0  0
  7  9  1  0  0  0  0
  8 22  1  0  0  0  0
  9 10  2  0  0  0  0
  9 11  1  0  0  0  0
 11 12  1  0  0  0  0
 11 13  1  0  0  0  0
 13 14  2  0  0  0  0
 13 15  1  0  0  0  0
 15 23  1  0  0  0  0
 15 24  1  0  0  0  0
M  END
$$$$
