B72
 OpenBabel04121316083D

 48 49  0  0  0  0  0  0  0  0999 V2000
    0.9124   -0.1811   -0.0869 O   0  0  0  0  0  0  0  0  0  0  0  0
    2.2650   -0.2390    0.0584 C   0  0  0  0  0  0  0  0  0  0  0  0
    2.8327   -1.2734    0.2935 O   0  0  0  0  0  0  0  0  0  0  0  0
    2.9287    1.1205   -0.0966 C   0  0  0  0  0  0  0  0  0  0  0  0
    4.3198    0.8923   -0.0233 O   0  0  0  0  0  0  0  0  0  0  0  0
    5.0829    2.0016   -0.1476 C   0  0  0  0  0  0  0  0  0  0  0  0
    4.6787    3.3305   -0.0733 C   0  0  0  0  0  0  0  0  0  0  0  0
    5.6050    4.3967   -0.1747 C   0  0  0  0  0  0  0  0  0  0  0  0
    5.0998    5.8003   -0.1477 C   0  0  0  0  0  0  0  0  0  0  0  0
    6.9523    4.1385   -0.4063 C   0  0  0  0  0  0  0  0  0  0  0  0
    7.1812    2.8240   -0.7988 C   0  0  0  0  0  0  0  0  0  0  0  0
    6.3756    1.7399   -0.4697 C   0  0  0  0  0  0  0  0  0  0  0  0
    8.3805    2.5067   -1.5414 C   0  0  0  0  0  0  0  0  0  0  0  0
    8.0481    5.2491   -0.4009 C   0  0  0  0  0  0  0  0  0  0  0  0
    9.5839    4.9169   -0.3644 C   0  0  0  0  0  0  0  0  0  0  0  0
   10.5024    5.7759   -0.9678 C   0  0  0  0  0  0  0  0  0  0  0  0
   11.7623    5.2753   -1.3199 C   0  0  0  0  0  0  0  0  0  0  0  0
   11.9595    3.8874   -1.3704 C   0  0  0  0  0  0  0  0  0  0  0  0
   11.0596    3.0058   -0.7668 C   0  0  0  0  0  0  0  0  0  0  0  0
   10.0989    3.6622    0.0566 C   0  0  0  0  0  0  0  0  0  0  0  0
   11.1259    1.4512   -1.1553 C   0  0  0  0  0  0  0  0  0  0  0  0
   12.3081    0.8757   -0.4112 C   0  0  0  0  0  0  0  0  0  0  0  0
   10.0254    0.3139   -0.9696 C   0  0  0  0  0  0  0  0  0  0  0  0
   13.0488    3.3751   -2.0151 O   0  0  0  0  0  0  0  0  0  0  0  0
    0.5753    0.6399   -0.4843 H   0  0  0  0  0  0  0  0  0  0  0  0
    2.6175    1.7580    0.7363 H   0  0  0  0  0  0  0  0  0  0  0  0
    2.6732    1.5579   -1.0694 H   0  0  0  0  0  0  0  0  0  0  0  0
    3.6352    3.5740    0.0680 H   0  0  0  0  0  0  0  0  0  0  0  0
    4.0152    5.8208   -0.0179 H   0  0  0  0  0  0  0  0  0  0  0  0
    5.3322    6.2843   -1.1030 H   0  0  0  0  0  0  0  0  0  0  0  0
    5.5656    6.3425    0.6754 H   0  0  0  0  0  0  0  0  0  0  0  0
    6.7443    0.7158   -0.5561 H   0  0  0  0  0  0  0  0  0  0  0  0
    8.8246    3.4072   -1.9377 H   0  0  0  0  0  0  0  0  0  0  0  0
    8.3562    1.8588   -2.4030 H   0  0  0  0  0  0  0  0  0  0  0  0
    8.8699    2.0383   -0.7031 H   0  0  0  0  0  0  0  0  0  0  0  0
    7.8554    5.9211    0.4405 H   0  0  0  0  0  0  0  0  0  0  0  0
    7.8595    5.8119   -1.3308 H   0  0  0  0  0  0  0  0  0  0  0  0
   10.2457    6.8098   -1.1920 H   0  0  0  0  0  0  0  0  0  0  0  0
   12.5438    5.9589   -1.6315 H   0  0  0  0  0  0  0  0  0  0  0  0
    9.4954    3.1153    0.7751 H   0  0  0  0  0  0  0  0  0  0  0  0
   11.3085    1.4281   -2.2466 H   0  0  0  0  0  0  0  0  0  0  0  0
   12.1186    0.9985    0.6576 H   0  0  0  0  0  0  0  0  0  0  0  0
   13.2370    1.3732   -0.6772 H   0  0  0  0  0  0  0  0  0  0  0  0
   12.4288   -0.1894   -0.6312 H   0  0  0  0  0  0  0  0  0  0  0  0
    9.6437    0.2989    0.0564 H   0  0  0  0  0  0  0  0  0  0  0  0
   10.4030   -0.6883   -1.2046 H   0  0  0  0  0  0  0  0  0  0  0  0
    9.1715    0.3415   -1.6552 H   0  0  0  0  0  0  0  0  0  0  0  0
   13.7214    4.0688   -2.0889 H   0  0  0  0  0  0  0  0  0  0  0  0
  1  2  1  0  0  0  0
  1 25  1  0  0  0  0
  2  3  2  0  0  0  0
  2  4  1  0  0  0  0
  4  5  1  0  0  0  0
  4 26  1  0  0  0  0
  4 27  1  0  0  0  0
  5  6  1  0  0  0  0
  6  7  2  0  0  0  0
  6 12  1  0  0  0  0
  7  8  1  0  0  0  0
  7 28  1  0  0  0  0
  8  9  1  0  0  0  0
  8 10  2  0  0  0  0
  9 29  1  0  0  0  0
  9 30  1  0  0  0  0
  9 31  1  0  0  0  0
 10 11  1  0  0  0  0
 10 14  1  0  0  0  0
 11 12  2  0  0  0  0
 11 13  1  0  0  0  0
 12 32  1  0  0  0  0
 13 33  1  0  0  0  0
 13 34  1  0  0  0  0
 13 35  1  0  0  0  0
 14 15  1  0  0  0  0
 14 36  1  0  0  0  0
 14 37  1  0  0  0  0
 15 16  2  0  0  0  0
 15 20  1  0  0  0  0
 16 17  1  0  0  0  0
 16 38  1  0  0  0  0
 17 18  2  0  0  0  0
 17 39  1  0  0  0  0
 18 19  1  0  0  0  0
 18 24  1  0  0  0  0
 19 20  2  0  0  0  0
 19 21  1  0  0  0  0
 20 40  1  0  0  0  0
 21 22  1  0  0  0  0
 21 23  1  0  0  0  0
 21 41  1  0  0  0  0
 22 42  1  0  0  0  0
 22 43  1  0  0  0  0
 22 44  1  0  0  0  0
 23 45  1  0  0  0  0
 23 46  1  0  0  0  0
 23 47  1  0  0  0  0
 24 48  1  0  0  0  0
M  END
$$$$
