B78
 OpenBabel04121316083D

 32 33  0  0  0  0  0  0  0  0999 V2000
    1.1104    0.0045    0.0831 C   0  0  0  0  0  0  0  0  0  0  0  0
    2.5382   -0.0186    0.1796 O   0  0  0  0  0  0  0  0  0  0  0  0
    3.0931    0.5075   -0.9560 C   0  0  0  0  0  0  0  0  0  0  0  0
    3.0737    1.8726   -1.2046 C   0  0  0  0  0  0  0  0  0  0  0  0
    3.6040    2.3705   -2.3955 C   0  0  0  0  0  0  0  0  0  0  0  0
    4.0955    1.4869   -3.3665 C   0  0  0  0  0  0  0  0  0  0  0  0
    4.1633    0.1165   -3.0736 C   0  0  0  0  0  0  0  0  0  0  0  0
    3.7134   -0.3668   -1.8432 C   0  0  0  0  0  0  0  0  0  0  0  0
    4.6720   -0.6671   -4.0697 O   0  0  0  0  0  0  0  0  0  0  0  0
    4.6506   -2.0743   -3.8662 C   0  0  0  0  0  0  0  0  0  0  0  0
    4.9983   -2.7775   -5.1514 C   0  0  0  0  0  0  0  0  0  0  0  0
    5.2955   -2.0786   -6.3260 C   0  0  0  0  0  0  0  0  0  0  0  0
    5.4269   -2.7934   -7.5031 C   0  0  0  0  0  0  0  0  0  0  0  0
    5.3779   -4.1384   -7.5719 N   0  0  0  0  0  0  0  0  0  0  0  0
    5.1779   -4.7991   -6.4106 C   0  0  0  0  0  0  0  0  0  0  0  0
    4.9613   -4.1711   -5.1959 C   0  0  0  0  0  0  0  0  0  0  0  0
    4.4954    1.9990   -4.7243 C   0  0  0  0  0  0  0  0  0  0  0  0
    0.7053   -0.4462    0.9939 H   0  0  0  0  0  0  0  0  0  0  0  0
    0.7588   -0.5868   -0.7713 H   0  0  0  0  0  0  0  0  0  0  0  0
    0.7285    1.0288    0.0167 H   0  0  0  0  0  0  0  0  0  0  0  0
    2.6413    2.5554   -0.4781 H   0  0  0  0  0  0  0  0  0  0  0  0
    3.6105    3.4411   -2.5720 H   0  0  0  0  0  0  0  0  0  0  0  0
    3.7976   -1.4072   -1.5611 H   0  0  0  0  0  0  0  0  0  0  0  0
    3.6408   -2.4024   -3.5840 H   0  0  0  0  0  0  0  0  0  0  0  0
    5.3780   -2.3420   -3.0919 H   0  0  0  0  0  0  0  0  0  0  0  0
    5.3928   -0.9987   -6.3388 H   0  0  0  0  0  0  0  0  0  0  0  0
    5.5632   -2.2777   -8.4492 H   0  0  0  0  0  0  0  0  0  0  0  0
    5.1877   -5.8809   -6.4846 H   0  0  0  0  0  0  0  0  0  0  0  0
    4.7539   -4.7588   -4.3069 H   0  0  0  0  0  0  0  0  0  0  0  0
    4.4048    3.0874   -4.7904 H   0  0  0  0  0  0  0  0  0  0  0  0
    3.8373    1.5677   -5.4882 H   0  0  0  0  0  0  0  0  0  0  0  0
    5.5317    1.7308   -4.9525 H   0  0  0  0  0  0  0  0  0  0  0  0
  1  2  1  0  0  0  0
  1 18  1  0  0  0  0
  1 19  1  0  0  0  0
  1 20  1  0  0  0  0
  2  3  1  0  0  0  0
  3  4  2  0  0  0  0
  3  8  1  0  0  0  0
  4  5  1  0  0  0  0
  4 21  1  0  0  0  0
  5  6  2  0  0  0  0
  5 22  1  0  0  0  0
  6  7  1  0  0  0  0
  6 17  1  0  0  0  0
  7  8  2  0  0  0  0
  7  9  1  0  0  0  0
  8 23  1  0  0  0  0
  9 10  1  0  0  0  0
 10 11  1  0  0  0  0
 10 24  1  0  0  0  0
 10 25  1  0  0  0  0
 11 12  2  0  0  0  0
 11 16  1  0  0  0  0
 12 13  1  0  0  0  0
 12 26  1  0  0  0  0
 13 14  2  0  0  0  0
 13 27  1  0  0  0  0
 14 15  1  0  0  0  0
 15 16  2  0  0  0  0
 15 28  1  0  0  0  0
 16 29  1  0  0  0  0
 17 30  1  0  0  0  0
 17 31  1  0  0  0  0
 17 32  1  0  0  0  0
M  END
$$$$
