B7G
 OpenBabel04121316083D

 45 45  0  0  1  0  0  0  0  0999 V2000
   12.4552   -4.4190   -6.4830 C   0  0  0  0  0  0  0  0  0  0  0  0
   12.4330   -2.9277   -6.7634 C   0  0  0  0  0  0  0  0  0  0  0  0
   11.5655   -2.1985   -5.7442 C   0  0  0  0  0  0  0  0  0  0  0  0
   11.5439   -0.7005   -6.0255 C   0  0  0  0  0  0  0  0  0  0  0  0
   10.6781    0.0210   -5.0027 C   0  0  0  0  0  0  0  0  0  0  0  0
   10.6543    1.5212   -5.2677 C   0  0  0  0  0  0  0  0  0  0  0  0
    9.7838    2.2137   -4.2351 C   0  0  0  0  0  0  0  0  0  0  0  0
    9.7850    3.6149   -4.4743 O   0  0  0  0  0  0  0  0  0  0  0  0
    8.8829    4.2915   -3.6000 C   0  0  2  0  0  0  0  0  0  0  0  0
    8.3476    3.5611   -2.9771 H   0  0  0  0  0  0  0  0  0  0  0  0
    7.9212    4.9787   -4.4008 O   0  0  0  0  0  0  0  0  0  0  0  0
    6.9440    5.6899   -3.6377 C   0  0  2  0  0  0  0  0  0  0  0  0
    6.3835    4.9732   -3.0222 H   0  0  0  0  0  0  0  0  0  0  0  0
    5.9503    6.3346   -4.6157 C   0  0  0  0  0  0  0  0  0  0  0  0
    4.8949    7.0267   -3.9591 O   0  0  0  0  0  0  0  0  0  0  0  0
    7.6185    6.7264   -2.7219 C   0  0  2  0  0  0  0  0  0  0  0  0
    8.1228    7.4929   -3.3232 H   0  0  0  0  0  0  0  0  0  0  0  0
    8.6474    6.0245   -1.8310 C   0  0  1  0  0  0  0  0  0  0  0  0
    8.1317    5.3362   -1.1491 H   0  0  0  0  0  0  0  0  0  0  0  0
    9.6649    5.2481   -2.6734 C   0  0  1  0  0  0  0  0  0  0  0  0
   10.2805    5.9399   -3.2595 H   0  0  0  0  0  0  0  0  0  0  0  0
   10.5660    4.5110   -1.8263 O   0  0  0  0  0  0  0  0  0  0  0  0
    9.2770    6.9856   -0.9792 O   0  0  0  0  0  0  0  0  0  0  0  0
    6.7080    7.4031   -1.8461 O   0  0  0  0  0  0  0  0  0  0  0  0
   13.0795   -4.9338   -7.2185 H   0  0  0  0  0  0  0  0  0  0  0  0
   11.4456   -4.8392   -6.5346 H   0  0  0  0  0  0  0  0  0  0  0  0
   12.8605   -4.6211   -5.4864 H   0  0  0  0  0  0  0  0  0  0  0  0
   12.0479   -2.7515   -7.7745 H   0  0  0  0  0  0  0  0  0  0  0  0
   13.4558   -2.5346   -6.7313 H   0  0  0  0  0  0  0  0  0  0  0  0
   11.9503   -2.3788   -4.7327 H   0  0  0  0  0  0  0  0  0  0  0  0
   10.5430   -2.5952   -5.7752 H   0  0  0  0  0  0  0  0  0  0  0  0
   11.1548   -0.5172   -7.0343 H   0  0  0  0  0  0  0  0  0  0  0  0
   12.5648   -0.3016   -5.9920 H   0  0  0  0  0  0  0  0  0  0  0  0
   11.0628   -0.1694   -3.9929 H   0  0  0  0  0  0  0  0  0  0  0  0
    9.6562   -0.3776   -5.0366 H   0  0  0  0  0  0  0  0  0  0  0  0
   10.2674    1.7270   -6.2735 H   0  0  0  0  0  0  0  0  0  0  0  0
   11.6696    1.9349   -5.2406 H   0  0  0  0  0  0  0  0  0  0  0  0
   10.1668    2.0173   -3.2267 H   0  0  0  0  0  0  0  0  0  0  0  0
    8.7588    1.8307   -4.3086 H   0  0  0  0  0  0  0  0  0  0  0  0
    5.5038    5.5685   -5.2597 H   0  0  0  0  0  0  0  0  0  0  0  0
    6.4664    7.0364   -5.2786 H   0  0  0  0  0  0  0  0  0  0  0  0
    4.4910    6.4405   -3.3064 H   0  0  0  0  0  0  0  0  0  0  0  0
   10.0508    4.0316   -1.1616 H   0  0  0  0  0  0  0  0  0  0  0  0
    8.5616    7.5786   -0.6713 H   0  0  0  0  0  0  0  0  0  0  0  0
    6.0652    6.7662   -1.4995 H   0  0  0  0  0  0  0  0  0  0  0  0
  1  2  1  0  0  0  0
  1 25  1  0  0  0  0
  1 26  1  0  0  0  0
  1 27  1  0  0  0  0
  2  3  1  0  0  0  0
  2 28  1  0  0  0  0
  2 29  1  0  0  0  0
  3  4  1  0  0  0  0
  3 30  1  0  0  0  0
  3 31  1  0  0  0  0
  4  5  1  0  0  0  0
  4 32  1  0  0  0  0
  4 33  1  0  0  0  0
  5  6  1  0  0  0  0
  5 34  1  0  0  0  0
  5 35  1  0  0  0  0
  6  7  1  0  0  0  0
  6 36  1  0  0  0  0
  6 37  1  0  0  0  0
  7  8  1  0  0  0  0
  7 38  1  0  0  0  0
  7 39  1  0  0  0  0
  9 11  1  0  0  0  0
  9 20  1  0  0  0  0
  9 10  1  1  0  0  0
  9  8  1  0  0  0  0
 11 12  1  0  0  0  0
 12 13  1  1  0  0  0
 12 14  1  0  0  0  0
 12 16  1  0  0  0  0
 14 15  1  0  0  0  0
 14 40  1  0  0  0  0
 14 41  1  0  0  0  0
 15 42  1  0  0  0  0
 16 18  1  0  0  0  0
 16 24  1  0  0  0  0
 16 17  1  6  0  0  0
 18 19  1  1  0  0  0
 18 20  1  0  0  0  0
 18 23  1  0  0  0  0
 20 22  1  0  0  0  0
 20 21  1  6  0  0  0
 22 43  1  0  0  0  0
 23 44  1  0  0  0  0
 24 45  1  0  0  0  0
M  END
$$$$
