B7M
 OpenBabel04121316083D

 45 44  0  0  0  0  0  0  0  0999 V2000
    0.9473   -0.0855    0.1053 C   0  0  0  0  0  0  0  0  0  0  0  0
    2.4639   -0.1047    0.1151 C   0  0  0  0  0  0  0  0  0  0  0  0
    2.9884    1.1620   -0.5275 C   0  0  0  0  0  0  0  0  0  0  0  0
    4.4865    1.2072   -0.5503 C   0  0  0  0  0  0  0  0  0  0  0  0
    5.1612    2.2377   -1.0732 C   0  0  0  0  0  0  0  0  0  0  0  0
    4.4858    3.3668   -1.6470 C   0  0  0  0  0  0  0  0  0  0  0  0
    5.1311    4.4045   -2.1735 C   0  0  0  0  0  0  0  0  0  0  0  0
    4.3597    5.5392   -2.7505 C   0  0  0  0  0  0  0  0  0  0  0  0
    5.3312    6.5725   -3.2744 C   0  0  0  0  0  0  0  0  0  0  0  0
    4.5686    7.7374   -3.8667 C   0  0  0  0  0  0  0  0  0  0  0  0
    5.5518    8.7658   -4.3881 C   0  0  0  0  0  0  0  0  0  0  0  0
    4.7980    9.9385   -4.9843 C   0  0  0  0  0  0  0  0  0  0  0  0
    5.7807   10.9704   -5.5075 C   0  0  0  0  0  0  0  0  0  0  0  0
    5.0351   12.1511   -6.1078 C   0  0  0  0  0  0  0  0  0  0  0  0
    6.0217   13.1822   -6.6305 C   0  0  0  0  0  0  0  0  0  0  0  0
    5.2969   14.3542   -7.2264 C   0  0  0  0  0  0  0  0  0  0  0  0
    5.8857   15.3180   -7.7153 O   0  0  0  0  0  0  0  0  0  0  0  0
    0.5569   -0.9947    0.5665 H   0  0  0  0  0  0  0  0  0  0  0  0
    0.5670   -0.0227   -0.9200 H   0  0  0  0  0  0  0  0  0  0  0  0
    0.5670    0.7789    0.6603 H   0  0  0  0  0  0  0  0  0  0  0  0
    2.8303   -0.9792   -0.4341 H   0  0  0  0  0  0  0  0  0  0  0  0
    2.8303   -0.1781    1.1450 H   0  0  0  0  0  0  0  0  0  0  0  0
    2.6068    2.0292    0.0288 H   0  0  0  0  0  0  0  0  0  0  0  0
    2.6069    1.2251   -1.5559 H   0  0  0  0  0  0  0  0  0  0  0  0
    5.0442    0.3760   -0.1281 H   0  0  0  0  0  0  0  0  0  0  0  0
    6.2482    2.2324   -1.0701 H   0  0  0  0  0  0  0  0  0  0  0  0
    3.3980    3.3885   -1.6590 H   0  0  0  0  0  0  0  0  0  0  0  0
    6.2166    4.4293   -2.1852 H   0  0  0  0  0  0  0  0  0  0  0  0
    3.7148    5.9847   -1.9821 H   0  0  0  0  0  0  0  0  0  0  0  0
    3.7163    5.1811   -3.5645 H   0  0  0  0  0  0  0  0  0  0  0  0
    5.9811    6.1226   -4.0362 H   0  0  0  0  0  0  0  0  0  0  0  0
    5.9796    6.9228   -2.4607 H   0  0  0  0  0  0  0  0  0  0  0  0
    3.9202    8.1867   -3.1045 H   0  0  0  0  0  0  0  0  0  0  0  0
    3.9217    7.3865   -4.6801 H   0  0  0  0  0  0  0  0  0  0  0  0
    6.2008    8.3098   -5.1461 H   0  0  0  0  0  0  0  0  0  0  0  0
    6.1994    9.1094   -3.5717 H   0  0  0  0  0  0  0  0  0  0  0  0
    4.1493   10.3885   -4.2228 H   0  0  0  0  0  0  0  0  0  0  0  0
    4.1508    9.5886   -5.7979 H   0  0  0  0  0  0  0  0  0  0  0  0
    6.4293   10.5127   -6.2646 H   0  0  0  0  0  0  0  0  0  0  0  0
    6.4278   11.3122   -4.6902 H   0  0  0  0  0  0  0  0  0  0  0  0
    4.3815   12.6032   -5.3509 H   0  0  0  0  0  0  0  0  0  0  0  0
    4.3830   11.8061   -6.9203 H   0  0  0  0  0  0  0  0  0  0  0  0
    6.6555   12.7372   -7.4047 H   0  0  0  0  0  0  0  0  0  0  0  0
    6.6540   13.5453   -5.8136 H   0  0  0  0  0  0  0  0  0  0  0  0
    4.1954   14.3189   -7.2095 H   0  0  0  0  0  0  0  0  0  0  0  0
  1  2  1  0  0  0  0
  1 18  1  0  0  0  0
  1 19  1  0  0  0  0
  1 20  1  0  0  0  0
  2  3  1  0  0  0  0
  2 21  1  0  0  0  0
  2 22  1  0  0  0  0
  3  4  1  0  0  0  0
  3 23  1  0  0  0  0
  3 24  1  0  0  0  0
  4  5  2  0  0  0  0
  4 25  1  0  0  0  0
  5  6  1  0  0  0  0
  5 26  1  0  0  0  0
  6  7  2  0  0  0  0
  6 27  1  0  0  0  0
  7  8  1  0  0  0  0
  7 28  1  0  0  0  0
  8  9  1  0  0  0  0
  8 29  1  0  0  0  0
  8 30  1  0  0  0  0
  9 10  1  0  0  0  0
  9 31  1  0  0  0  0
  9 32  1  0  0  0  0
 10 11  1  0  0  0  0
 10 33  1  0  0  0  0
 10 34  1  0  0  0  0
 11 12  1  0  0  0  0
 11 35  1  0  0  0  0
 11 36  1  0  0  0  0
 12 13  1  0  0  0  0
 12 37  1  0  0  0  0
 12 38  1  0  0  0  0
 13 14  1  0  0  0  0
 13 39  1  0  0  0  0
 13 40  1  0  0  0  0
 14 15  1  0  0  0  0
 14 41  1  0  0  0  0
 14 42  1  0  0  0  0
 15 16  1  0  0  0  0
 15 43  1  0  0  0  0
 15 44  1  0  0  0  0
 16 17  2  0  0  0  0
 16 45  1  0  0  0  0
M  END
$$$$
