B7N
 OpenBabel04121316083D

144144  0  0  1  0  0  0  0  0999 V2000
   22.5494  -32.5479  -16.6133 C   0  0  0  0  0  0  0  0  0  0  0  0
   23.0063  -32.1464  -15.2250 C   0  0  0  0  0  0  0  0  0  0  0  0
   22.4214  -30.7937  -14.8468 C   0  0  0  0  0  0  0  0  0  0  0  0
   22.8780  -30.3887  -13.4553 C   0  0  0  0  0  0  0  0  0  0  0  0
   22.2897  -29.0379  -13.0862 C   0  0  0  0  0  0  0  0  0  0  0  0
   22.7471  -28.6358  -11.6961 C   0  0  0  0  0  0  0  0  0  0  0  0
   22.1590  -27.2865  -11.3283 C   0  0  0  0  0  0  0  0  0  0  0  0
   22.6171  -26.8862   -9.9390 C   0  0  0  0  0  0  0  0  0  0  0  0
   22.0290  -25.5375   -9.5719 C   0  0  0  0  0  0  0  0  0  0  0  0
   22.4876  -25.1384   -8.1831 C   0  0  0  0  0  0  0  0  0  0  0  0
   21.8995  -23.7906   -7.8172 C   0  0  0  0  0  0  0  0  0  0  0  0
   22.3585  -23.3923   -6.4291 C   0  0  0  0  0  0  0  0  0  0  0  0
   21.7684  -22.0448   -6.0698 C   0  0  0  0  0  0  0  0  0  0  0  0
   22.2228  -21.6390   -4.6857 C   0  0  0  0  0  0  0  0  0  0  0  0
   21.6219  -20.2888   -4.3382 C   0  0  0  0  0  0  0  0  0  0  0  0
   22.0644  -19.9087   -2.9476 C   0  0  0  0  0  0  0  0  0  0  0  0
   21.4420  -18.6033   -2.4772 C   0  0  0  0  0  0  0  0  0  0  0  0
   21.7429  -18.5078   -0.9938 C   0  0  0  0  0  0  0  0  0  0  0  0
   22.5914  -19.1798   -0.4227 O   0  0  0  0  0  0  0  0  0  0  0  0
   20.9777  -17.5565   -0.3856 O   0  0  0  0  0  0  0  0  0  0  0  0
   21.2219  -17.2431    1.0290 C   0  0  0  0  0  0  0  0  0  0  0  0
   20.7529  -15.7546    1.3804 C   0  0  1  0  0  0  0  0  0  0  0  0
   21.2386  -15.1177    0.7028 H   0  0  0  0  0  0  0  0  0  0  0  0
   19.3977  -15.5729    1.1067 O   0  0  0  0  0  0  0  0  0  0  0  0
   19.1211  -15.5424   -0.2038 C   0  0  0  0  0  0  0  0  0  0  0  0
   19.9137  -15.4410   -1.1757 O   0  0  0  0  0  0  0  0  0  0  0  0
   17.6923  -15.7322   -0.2580 C   0  0  0  0  0  0  0  0  0  0  0  0
   17.3338  -16.1699   -1.6363 C   0  0  0  0  0  0  0  0  0  0  0  0
   15.8429  -16.2693   -1.6500 C   0  0  0  0  0  0  0  0  0  0  0  0
   15.4200  -16.6614   -3.0331 C   0  0  0  0  0  0  0  0  0  0  0  0
   13.9186  -16.7456   -3.0546 C   0  0  0  0  0  0  0  0  0  0  0  0
   13.4837  -17.1396   -4.4449 C   0  0  0  0  0  0  0  0  0  0  0  0
   11.9813  -17.2270   -4.4729 C   0  0  0  0  0  0  0  0  0  0  0  0
   11.5082  -17.6165   -5.8343 C   0  0  0  0  0  0  0  0  0  0  0  0
   10.2041  -17.7543   -6.0907 C   0  0  0  0  0  0  0  0  0  0  0  0
    9.1836  -17.5221   -5.0228 C   0  0  0  0  0  0  0  0  0  0  0  0
    7.7909  -17.7404   -5.5607 C   0  0  0  0  0  0  0  0  0  0  0  0
    6.7833  -17.4970   -4.4540 C   0  0  0  0  0  0  0  0  0  0  0  0
    5.3854  -17.7161   -4.9939 C   0  0  0  0  0  0  0  0  0  0  0  0
    4.3651  -17.4762   -3.8977 C   0  0  0  0  0  0  0  0  0  0  0  0
    2.9643  -17.6964   -4.4407 C   0  0  0  0  0  0  0  0  0  0  0  0
    1.9312  -17.4587   -3.3504 C   0  0  0  0  0  0  0  0  0  0  0  0
    0.5341  -17.6788   -3.8941 C   0  0  0  0  0  0  0  0  0  0  0  0
   20.9954  -15.0716    2.7340 C   0  0  0  0  0  0  0  0  0  0  0  0
   21.2937  -13.6073    2.7148 O   0  0  0  0  0  0  0  0  0  0  0  0
   21.8192  -13.1555    4.2999 P   0  0  1  0  0  0  0  0  0  0  0  0
   20.9766  -14.1872    5.0434 O   0  0  0  0  0  0  0  0  0  0  0  0
   23.3390  -13.7046    3.8842 O   0  0  0  0  0  0  0  0  0  0  0  0
   23.7434  -13.8807    2.4734 C   0  0  2  0  0  0  0  0  0  0  0  0
   24.8383  -13.8235    2.5129 H   0  0  0  0  0  0  0  0  0  0  0  0
   23.3663  -12.6516    1.4806 C   0  0  2  0  0  0  0  0  0  0  0  0
   24.0188  -11.8349    1.7763 H   0  0  0  0  0  0  0  0  0  0  0  0
   22.0956  -11.9655    1.5739 O   0  0  0  0  0  0  0  0  0  0  0  0
   23.6054  -12.9517   -0.0125 C   0  0  2  0  0  0  0  0  0  0  0  0
   24.6642  -13.0774   -0.2111 H   0  0  0  0  0  0  0  0  0  0  0  0
   23.1090  -11.9136   -0.8509 O   0  0  0  0  0  0  0  0  0  0  0  0
   22.9323  -14.2331   -0.4003 C   0  0  2  0  0  0  0  0  0  0  0  0
   21.8656  -14.0032   -0.2861 H   0  0  0  0  0  0  0  0  0  0  0  0
   23.7398  -15.3675    0.3583 C   0  0  1  0  0  0  0  0  0  0  0  0
   24.7962  -15.2291    0.2088 H   0  0  0  0  0  0  0  0  0  0  0  0
   23.6530  -15.3778    1.9235 C   0  0  1  0  0  0  0  0  0  0  0  0
   22.7780  -15.9498    2.0095 H   0  0  0  0  0  0  0  0  0  0  0  0
   24.2201  -16.2836    2.8928 O   0  0  0  0  0  0  0  0  0  0  0  0
   23.5087  -16.5627   -0.3700 O   0  0  0  0  0  0  0  0  0  0  0  0
   22.9453  -14.5386   -1.8019 O   0  0  0  0  0  0  0  0  0  0  0  0
   22.3447  -12.7038    5.8850 O   0  0  0  0  0  0  0  0  0  0  0  0
   22.9699  -33.5196  -16.8841 H   0  0  0  0  0  0  0  0  0  0  0  0
   22.8739  -31.8109  -17.3548 H   0  0  0  0  0  0  0  0  0  0  0  0
   21.4578  -32.6188  -16.6550 H   0  0  0  0  0  0  0  0  0  0  0  0
   24.1012  -32.1009  -15.1958 H   0  0  0  0  0  0  0  0  0  0  0  0
   22.6915  -32.9052  -14.4991 H   0  0  0  0  0  0  0  0  0  0  0  0
   21.3256  -30.8381  -14.8775 H   0  0  0  0  0  0  0  0  0  0  0  0
   22.7347  -30.0342  -15.5738 H   0  0  0  0  0  0  0  0  0  0  0  0
   23.9731  -30.3386  -13.4205 H   0  0  0  0  0  0  0  0  0  0  0  0
   22.5632  -31.1430  -12.7238 H   0  0  0  0  0  0  0  0  0  0  0  0
   21.1941  -29.0849  -13.1185 H   0  0  0  0  0  0  0  0  0  0  0  0
   22.6038  -28.2807  -13.8151 H   0  0  0  0  0  0  0  0  0  0  0  0
   23.8425  -28.5869  -11.6622 H   0  0  0  0  0  0  0  0  0  0  0  0
   22.4326  -29.3913  -10.9656 H   0  0  0  0  0  0  0  0  0  0  0  0
   21.0635  -27.3342  -11.3610 H   0  0  0  0  0  0  0  0  0  0  0  0
   22.4734  -26.5298  -12.0577 H   0  0  0  0  0  0  0  0  0  0  0  0
   23.7125  -26.8377   -9.9055 H   0  0  0  0  0  0  0  0  0  0  0  0
   22.3027  -27.6420   -9.2088 H   0  0  0  0  0  0  0  0  0  0  0  0
   20.9336  -25.5852   -9.6046 H   0  0  0  0  0  0  0  0  0  0  0  0
   22.3435  -24.7808  -10.3012 H   0  0  0  0  0  0  0  0  0  0  0  0
   23.5830  -25.0896   -8.1495 H   0  0  0  0  0  0  0  0  0  0  0  0
   22.1730  -25.8941   -7.4528 H   0  0  0  0  0  0  0  0  0  0  0  0
   20.8039  -23.8378   -7.8494 H   0  0  0  0  0  0  0  0  0  0  0  0
   22.2138  -23.0335   -8.5462 H   0  0  0  0  0  0  0  0  0  0  0  0
   23.4538  -23.3428   -6.3947 H   0  0  0  0  0  0  0  0  0  0  0  0
   22.0434  -24.1468   -5.6978 H   0  0  0  0  0  0  0  0  0  0  0  0
   20.6730  -22.0938   -6.1013 H   0  0  0  0  0  0  0  0  0  0  0  0
   22.0830  -21.2890   -6.7995 H   0  0  0  0  0  0  0  0  0  0  0  0
   23.3185  -21.5888   -4.6455 H   0  0  0  0  0  0  0  0  0  0  0  0
   21.9095  -22.3932   -3.9516 H   0  0  0  0  0  0  0  0  0  0  0  0
   20.5281  -20.3462   -4.3773 H   0  0  0  0  0  0  0  0  0  0  0  0
   21.9442  -19.5312   -5.0613 H   0  0  0  0  0  0  0  0  0  0  0  0
   23.1603  -19.8350   -2.9135 H   0  0  0  0  0  0  0  0  0  0  0  0
   21.7804  -20.7101   -2.2534 H   0  0  0  0  0  0  0  0  0  0  0  0
   20.3570  -18.6258   -2.6230 H   0  0  0  0  0  0  0  0  0  0  0  0
   21.8542  -17.7628   -3.0524 H   0  0  0  0  0  0  0  0  0  0  0  0
   22.2805  -17.4413    1.1920 H   0  0  0  0  0  0  0  0  0  0  0  0
   20.7145  -17.9755    1.6419 H   0  0  0  0  0  0  0  0  0  0  0  0
   17.2390  -14.7822    0.0379 H   0  0  0  0  0  0  0  0  0  0  0  0
   17.4345  -16.5168    0.4695 H   0  0  0  0  0  0  0  0  0  0  0  0
   17.8085  -17.1320   -1.8763 H   0  0  0  0  0  0  0  0  0  0  0  0
   17.6905  -15.4414   -2.3748 H   0  0  0  0  0  0  0  0  0  0  0  0
   15.4082  -15.3014   -1.3686 H   0  0  0  0  0  0  0  0  0  0  0  0
   15.5085  -17.0069   -0.9091 H   0  0  0  0  0  0  0  0  0  0  0  0
   15.8669  -17.6257   -3.3038 H   0  0  0  0  0  0  0  0  0  0  0  0
   15.7748  -15.9191   -3.7588 H   0  0  0  0  0  0  0  0  0  0  0  0
   13.4836  -15.7778   -2.7732 H   0  0  0  0  0  0  0  0  0  0  0  0
   13.5732  -17.4819   -2.3176 H   0  0  0  0  0  0  0  0  0  0  0  0
   13.9252  -18.1062   -4.7162 H   0  0  0  0  0  0  0  0  0  0  0  0
   13.8343  -16.3976   -5.1725 H   0  0  0  0  0  0  0  0  0  0  0  0
   11.5579  -16.2542   -4.1906 H   0  0  0  0  0  0  0  0  0  0  0  0
   11.6492  -17.9667   -3.7327 H   0  0  0  0  0  0  0  0  0  0  0  0
   12.2337  -17.7892   -6.6242 H   0  0  0  0  0  0  0  0  0  0  0  0
    9.8820  -18.0385   -7.0882 H   0  0  0  0  0  0  0  0  0  0  0  0
    9.2678  -16.4956   -4.6424 H   0  0  0  0  0  0  0  0  0  0  0  0
    9.3588  -18.2075   -4.1830 H   0  0  0  0  0  0  0  0  0  0  0  0
    7.6942  -18.7649   -5.9402 H   0  0  0  0  0  0  0  0  0  0  0  0
    7.6035  -17.0576   -6.3983 H   0  0  0  0  0  0  0  0  0  0  0  0
    6.8841  -16.4736   -4.0709 H   0  0  0  0  0  0  0  0  0  0  0  0
    6.9746  -18.1767   -3.6139 H   0  0  0  0  0  0  0  0  0  0  0  0
    5.2929  -18.7397   -5.3775 H   0  0  0  0  0  0  0  0  0  0  0  0
    5.2024  -17.0358   -5.8347 H   0  0  0  0  0  0  0  0  0  0  0  0
    4.4639  -16.4527   -3.5159 H   0  0  0  0  0  0  0  0  0  0  0  0
    4.5544  -18.1568   -3.0586 H   0  0  0  0  0  0  0  0  0  0  0  0
    2.8745  -18.7197   -4.8260 H   0  0  0  0  0  0  0  0  0  0  0  0
    2.7840  -17.0168   -5.2830 H   0  0  0  0  0  0  0  0  0  0  0  0
    2.0219  -16.4355   -2.9674 H   0  0  0  0  0  0  0  0  0  0  0  0
    2.1124  -18.1393   -2.5103 H   0  0  0  0  0  0  0  0  0  0  0  0
    0.3294  -16.9921   -4.7216 H   0  0  0  0  0  0  0  0  0  0  0  0
   -0.2081  -17.5080   -3.1104 H   0  0  0  0  0  0  0  0  0  0  0  0
    0.4204  -18.7034   -4.2624 H   0  0  0  0  0  0  0  0  0  0  0  0
   21.9476  -15.2634    3.1277 H   0  0  0  0  0  0  0  0  0  0  0  0
   20.6071  -15.6465    3.5822 H   0  0  0  0  0  0  0  0  0  0  0  0
   21.3718  -12.6310    1.4999 H   0  0  0  0  0  0  0  0  0  0  0  0
   23.2189  -11.0758   -0.3750 H   0  0  0  0  0  0  0  0  0  0  0  0
   25.0797  -16.6591    2.6912 H   0  0  0  0  0  0  0  0  0  0  0  0
   22.7089  -16.4143   -0.9301 H   0  0  0  0  0  0  0  0  0  0  0  0
   23.7766  -14.9931   -1.9959 H   0  0  0  0  0  0  0  0  0  0  0  0
   21.5826  -12.8719    6.4719 H   0  0  0  0  0  0  0  0  0  0  0  0
  1  2  1  0  0  0  0
  1 67  1  0  0  0  0
  1 68  1  0  0  0  0
  1 69  1  0  0  0  0
  2  3  1  0  0  0  0
  2 70  1  0  0  0  0
  2 71  1  0  0  0  0
  3  4  1  0  0  0  0
  3 72  1  0  0  0  0
  3 73  1  0  0  0  0
  4  5  1  0  0  0  0
  4 74  1  0  0  0  0
  4 75  1  0  0  0  0
  5  6  1  0  0  0  0
  5 76  1  0  0  0  0
  5 77  1  0  0  0  0
  6  7  1  0  0  0  0
  6 78  1  0  0  0  0
  6 79  1  0  0  0  0
  7  8  1  0  0  0  0
  7 80  1  0  0  0  0
  7 81  1  0  0  0  0
  8  9  1  0  0  0  0
  8 82  1  0  0  0  0
  8 83  1  0  0  0  0
  9 10  1  0  0  0  0
  9 84  1  0  0  0  0
  9 85  1  0  0  0  0
 10 11  1  0  0  0  0
 10 86  1  0  0  0  0
 10 87  1  0  0  0  0
 11 12  1  0  0  0  0
 11 88  1  0  0  0  0
 11 89  1  0  0  0  0
 12 13  1  0  0  0  0
 12 90  1  0  0  0  0
 12 91  1  0  0  0  0
 13 14  1  0  0  0  0
 13 92  1  0  0  0  0
 13 93  1  0  0  0  0
 14 15  1  0  0  0  0
 14 94  1  0  0  0  0
 14 95  1  0  0  0  0
 15 16  1  0  0  0  0
 15 96  1  0  0  0  0
 15 97  1  0  0  0  0
 16 17  1  0  0  0  0
 16 98  1  0  0  0  0
 16 99  1  0  0  0  0
 17 18  1  0  0  0  0
 17100  1  0  0  0  0
 17101  1  0  0  0  0
 18 19  2  0  0  0  0
 18 20  1  0  0  0  0
 20 21  1  0  0  0  0
 21 22  1  0  0  0  0
 21102  1  0  0  0  0
 21103  1  0  0  0  0
 22 23  1  6  0  0  0
 22 24  1  0  0  0  0
 22 44  1  0  0  0  0
 24 25  1  0  0  0  0
 25 26  2  0  0  0  0
 25 27  1  0  0  0  0
 27 28  1  0  0  0  0
 27104  1  0  0  0  0
 27105  1  0  0  0  0
 28 29  1  0  0  0  0
 28106  1  0  0  0  0
 28107  1  0  0  0  0
 29 30  1  0  0  0  0
 29108  1  0  0  0  0
 29109  1  0  0  0  0
 30 31  1  0  0  0  0
 30110  1  0  0  0  0
 30111  1  0  0  0  0
 31 32  1  0  0  0  0
 31112  1  0  0  0  0
 31113  1  0  0  0  0
 32 33  1  0  0  0  0
 32114  1  0  0  0  0
 32115  1  0  0  0  0
 33 34  1  0  0  0  0
 33116  1  0  0  0  0
 33117  1  0  0  0  0
 34 35  2  0  0  0  0
 34118  1  0  0  0  0
 35 36  1  0  0  0  0
 35119  1  0  0  0  0
 36 37  1  0  0  0  0
 36120  1  0  0  0  0
 36121  1  0  0  0  0
 37 38  1  0  0  0  0
 37122  1  0  0  0  0
 37123  1  0  0  0  0
 38 39  1  0  0  0  0
 38124  1  0  0  0  0
 38125  1  0  0  0  0
 39 40  1  0  0  0  0
 39126  1  0  0  0  0
 39127  1  0  0  0  0
 40 41  1  0  0  0  0
 40128  1  0  0  0  0
 40129  1  0  0  0  0
 41 42  1  0  0  0  0
 41130  1  0  0  0  0
 41131  1  0  0  0  0
 42 43  1  0  0  0  0
 42132  1  0  0  0  0
 42133  1  0  0  0  0
 43134  1  0  0  0  0
 43135  1  0  0  0  0
 43136  1  0  0  0  0
 44 45  1  0  0  0  0
 44137  1  0  0  0  0
 44138  1  0  0  0  0
 46 45  1  6  0  0  0
 46 47  2  0  0  0  0
 46 48  1  0  0  0  0
 46 66  1  0  0  0  0
 49 51  1  0  0  0  0
 49 61  1  0  0  0  0
 49 50  1  1  0  0  0
 49 48  1  0  0  0  0
 51 54  1  0  0  0  0
 51 53  1  0  0  0  0
 51 52  1  1  0  0  0
 53139  1  0  0  0  0
 54 55  1  6  0  0  0
 54 56  1  0  0  0  0
 54 57  1  0  0  0  0
 56140  1  0  0  0  0
 57 59  1  0  0  0  0
 57 65  1  0  0  0  0
 57 58  1  1  0  0  0
 59 60  1  6  0  0  0
 59 61  1  0  0  0  0
 59 64  1  0  0  0  0
 61 63  1  0  0  0  0
 61 62  1  1  0  0  0
 63141  1  0  0  0  0
 64142  1  0  0  0  0
 65143  1  0  0  0  0
 66144  1  0  0  0  0
M  END
$$$$
