B80
 OpenBabel04121316083D

 58 61  0  0  1  0  0  0  0  0999 V2000
    0.5213    0.1894    0.0080 C   0  0  0  0  0  0  0  0  0  0  0  0
    2.0080    0.1864   -0.1120 C   0  0  0  0  0  0  0  0  0  0  0  0
    2.7918    1.4199   -0.5707 C   0  0  1  0  0  0  0  0  0  0  0  0
    3.7047    1.2661   -1.1320 H   0  0  0  0  0  0  0  0  0  0  0  0
    2.0980    2.1727   -1.6730 C   0  0  0  0  0  0  0  0  0  0  0  0
    1.8878    3.5726   -1.3163 C   0  0  0  0  0  0  0  0  0  0  0  0
    2.3631    4.0846   -0.1685 C   0  0  0  0  0  0  0  0  0  0  0  0
    3.2058    3.3609    0.8326 C   0  0  0  0  0  0  0  0  0  0  0  0
    3.6778    3.9405    1.8044 O   0  0  0  0  0  0  0  0  0  0  0  0
    3.4661    2.0395    0.5362 N   0  0  0  0  0  0  0  0  0  0  0  0
    4.4194    1.1997    1.3486 C   0  0  0  0  0  0  0  0  0  0  0  0
    4.7571   -0.2608    0.8600 C   0  0  0  0  0  0  0  0  0  0  0  0
    4.5152   -0.7869   -0.4292 C   0  0  0  0  0  0  0  0  0  0  0  0
    4.0600   -2.0924   -0.6091 C   0  0  0  0  0  0  0  0  0  0  0  0
    4.3946   -3.0129    0.3311 C   0  0  0  0  0  0  0  0  0  0  0  0
    5.1005   -2.5955    1.4494 C   0  0  0  0  0  0  0  0  0  0  0  0
    5.1697   -1.2243    1.7800 C   0  0  0  0  0  0  0  0  0  0  0  0
    4.0892   -4.2963    0.1165 F   0  0  0  0  0  0  0  0  0  0  0  0
    2.0977    5.4966    0.0268 C   0  0  0  0  0  0  0  0  0  0  0  0
    1.0731    5.9084    0.6851 N   0  0  0  0  0  0  0  0  0  0  0  0
    0.8387    7.2658    0.8618 C   0  0  0  0  0  0  0  0  0  0  0  0
   -0.2700    7.6195    1.6185 C   0  0  0  0  0  0  0  0  0  0  0  0
   -0.5589    8.9625    1.8477 C   0  0  0  0  0  0  0  0  0  0  0  0
    0.2477    9.9821    1.3269 C   0  0  0  0  0  0  0  0  0  0  0  0
    1.3537    9.6390    0.5706 C   0  0  0  0  0  0  0  0  0  0  0  0
    1.6237    8.2906    0.3499 C   0  0  0  0  0  0  0  0  0  0  0  0
    3.0098    7.9135   -0.6154 S   0  0  0  0  0  0  0  0  0  0  0  0
    2.7175    8.3250   -1.9824 O   0  0  0  0  0  0  0  0  0  0  0  0
    4.1817    8.3795    0.0702 O   0  0  0  0  0  0  0  0  0  0  0  0
    3.0538    6.2844   -0.6011 N   0  0  0  0  0  0  0  0  0  0  0  0
   -0.0201   11.3674    1.5302 N   0  0  0  0  0  0  0  0  0  0  0  0
   -1.3465   11.8228    2.4351 S   0  0  0  0  0  0  0  0  0  0  0  0
   -2.5309   11.4216    1.7049 O   0  0  0  0  0  0  0  0  0  0  0  0
   -1.1197   11.3828    3.7951 O   0  0  0  0  0  0  0  0  0  0  0  0
   -1.2901   13.5922    2.4296 C   0  0  0  0  0  0  0  0  0  0  0  0
    1.1924    4.2965   -2.2647 O   0  0  0  0  0  0  0  0  0  0  0  0
    0.2494   -0.7785    0.4466 H   0  0  0  0  0  0  0  0  0  0  0  0
    0.0755    0.2228   -0.9854 H   0  0  0  0  0  0  0  0  0  0  0  0
    0.1777    0.9981    0.6473 H   0  0  0  0  0  0  0  0  0  0  0  0
    2.1699   -0.5809   -0.8629 H   0  0  0  0  0  0  0  0  0  0  0  0
    2.3418   -0.1546    0.8744 H   0  0  0  0  0  0  0  0  0  0  0  0
    1.1555    1.7009   -1.9453 H   0  0  0  0  0  0  0  0  0  0  0  0
    2.7037    2.1179   -2.5923 H   0  0  0  0  0  0  0  0  0  0  0  0
    3.9038    1.1173    2.3228 H   0  0  0  0  0  0  0  0  0  0  0  0
    5.3346    1.7697    1.5384 H   0  0  0  0  0  0  0  0  0  0  0  0
    4.3975   -0.2184   -1.3349 H   0  0  0  0  0  0  0  0  0  0  0  0
    3.4280   -2.3508   -1.4580 H   0  0  0  0  0  0  0  0  0  0  0  0
    5.5573   -3.3488    2.0745 H   0  0  0  0  0  0  0  0  0  0  0  0
    5.5283   -0.9315    2.7628 H   0  0  0  0  0  0  0  0  0  0  0  0
   -0.9212    6.8559    2.0396 H   0  0  0  0  0  0  0  0  0  0  0  0
   -1.4371    9.1748    2.4484 H   0  0  0  0  0  0  0  0  0  0  0  0
    2.0163   10.3829    0.1389 H   0  0  0  0  0  0  0  0  0  0  0  0
    3.7945    5.8779   -1.1603 H   0  0  0  0  0  0  0  0  0  0  0  0
    0.6039   12.0616    1.1253 H   0  0  0  0  0  0  0  0  0  0  0  0
   -1.3801   13.9557    1.4059 H   0  0  0  0  0  0  0  0  0  0  0  0
   -0.3675   13.9278    2.9034 H   0  0  0  0  0  0  0  0  0  0  0  0
   -2.1496   13.9276    3.0170 H   0  0  0  0  0  0  0  0  0  0  0  0
    0.9339    3.6984   -2.9942 H   0  0  0  0  0  0  0  0  0  0  0  0
  1  2  1  0  0  0  0
  1 37  1  0  0  0  0
  1 38  1  0  0  0  0
  1 39  1  0  0  0  0
  2  3  1  0  0  0  0
  2 40  1  0  0  0  0
  2 41  1  0  0  0  0
  3  4  1  6  0  0  0
  3  5  1  0  0  0  0
  3 10  1  0  0  0  0
  5  6  1  0  0  0  0
  5 42  1  0  0  0  0
  5 43  1  0  0  0  0
  6  7  2  0  0  0  0
  6 36  1  0  0  0  0
  7  8  1  0  0  0  0
  7 19  1  0  0  0  0
  8  9  2  0  0  0  0
  8 10  1  0  0  0  0
 10 11  1  0  0  0  0
 11 12  1  0  0  0  0
 11 44  1  0  0  0  0
 11 45  1  0  0  0  0
 12 13  2  0  0  0  0
 12 17  1  0  0  0  0
 13 14  1  0  0  0  0
 13 46  1  0  0  0  0
 14 15  2  0  0  0  0
 14 47  1  0  0  0  0
 15 16  1  0  0  0  0
 15 18  1  0  0  0  0
 16 17  2  0  0  0  0
 16 48  1  0  0  0  0
 17 49  1  0  0  0  0
 19 20  2  0  0  0  0
 19 30  1  0  0  0  0
 20 21  1  0  0  0  0
 21 22  2  0  0  0  0
 21 26  1  0  0  0  0
 22 23  1  0  0  0  0
 22 50  1  0  0  0  0
 23 24  2  0  0  0  0
 23 51  1  0  0  0  0
 24 25  1  0  0  0  0
 24 31  1  0  0  0  0
 25 26  2  0  0  0  0
 25 52  1  0  0  0  0
 26 27  1  0  0  0  0
 27 28  2  0  0  0  0
 27 29  2  0  0  0  0
 27 30  1  0  0  0  0
 30 53  1  0  0  0  0
 31 32  1  0  0  0  0
 31 54  1  0  0  0  0
 32 33  2  0  0  0  0
 32 34  2  0  0  0  0
 32 35  1  0  0  0  0
 35 55  1  0  0  0  0
 35 56  1  0  0  0  0
 35 57  1  0  0  0  0
 36 58  1  0  0  0  0
M  END
$$$$
