B84
 OpenBabel04121316083D

 70 74  0  0  1  0  0  0  0  0999 V2000
    0.9867    0.0333    0.0727 C   0  0  0  0  0  0  0  0  0  0  0  0
    2.4108   -0.0065    0.0295 O   0  0  0  0  0  0  0  0  0  0  0  0
    2.9701    1.0112    0.7617 C   0  0  0  0  0  0  0  0  0  0  0  0
    2.6089    2.3341    0.5120 C   0  0  0  0  0  0  0  0  0  0  0  0
    3.1599    3.3500    1.2776 C   0  0  0  0  0  0  0  0  0  0  0  0
    4.0946    2.9773    2.2430 C   0  0  0  0  0  0  0  0  0  0  0  0
    4.4087    1.6268    2.3706 C   0  0  0  0  0  0  0  0  0  0  0  0
    3.8869    0.6052    1.6659 N   0  0  0  0  0  0  0  0  0  0  0  0
    5.5723    1.4155    3.6012 S   0  0  0  0  0  0  0  0  0  0  0  0
    5.5248    3.0981    3.8620 C   0  0  0  0  0  0  0  0  0  0  0  0
    4.7459    3.8112    3.1010 N   0  0  0  0  0  0  0  0  0  0  0  0
    6.3161    3.5465    4.8707 N   0  0  0  0  0  0  0  0  0  0  0  0
    6.4117    4.8994    5.1281 C   0  0  0  0  0  0  0  0  0  0  0  0
    5.7673    5.7746    4.5560 O   0  0  0  0  0  0  0  0  0  0  0  0
    7.3863    5.2593    6.2516 C   0  0  1  0  0  0  0  0  0  0  0  0
    7.0827    4.6930    7.1387 H   0  0  0  0  0  0  0  0  0  0  0  0
    8.7992    4.8800    5.8896 C   0  0  0  0  0  0  0  0  0  0  0  0
    9.7035    5.8766    5.5184 C   0  0  0  0  0  0  0  0  0  0  0  0
   10.8897    5.5426    4.9730 C   0  0  0  0  0  0  0  0  0  0  0  0
   11.1477    4.2009    4.7184 C   0  0  0  0  0  0  0  0  0  0  0  0
   10.3744    3.1871    5.2319 C   0  0  0  0  0  0  0  0  0  0  0  0
    9.1924    3.5342    5.8480 C   0  0  0  0  0  0  0  0  0  0  0  0
   12.5822    3.9803    3.7893 S   0  0  0  0  0  0  0  0  0  0  0  0
   12.2794    4.1198    2.4089 O   0  0  0  0  0  0  0  0  0  0  0  0
   13.4102    5.0467    4.4049 O   0  0  0  0  0  0  0  0  0  0  0  0
   13.3992    2.4615    4.1181 N   0  0  0  0  0  0  0  0  0  0  0  0
   14.5343    2.9627    4.8953 C   0  0  0  0  0  0  0  0  0  0  0  0
   13.9008    3.2286    6.3298 C   0  0  0  0  0  0  0  0  0  0  0  0
   13.8265    1.9720    7.0867 N   0  0  0  0  0  0  0  0  0  0  0  0
   12.9346    1.0446    6.3465 C   0  0  0  0  0  0  0  0  0  0  0  0
   13.0916    1.0789    4.7817 C   0  0  0  0  0  0  0  0  0  0  0  0
   15.2090    1.5169    7.1778 C   0  0  0  0  0  0  0  0  0  0  0  0
    7.2731    6.7796    6.5169 C   0  0  0  0  0  0  0  0  0  0  0  0
    8.1601    7.2647    7.6655 C   0  0  0  0  0  0  0  0  0  0  0  0
    7.7975    8.6594    8.1207 C   0  0  0  0  0  0  0  0  0  0  0  0
    8.4168    8.6998    9.5044 C   0  0  0  0  0  0  0  0  0  0  0  0
    8.2398    7.2919   10.0691 C   0  0  0  0  0  0  0  0  0  0  0  0
    8.0841    6.3635    8.8849 C   0  0  0  0  0  0  0  0  0  0  0  0
    0.6118   -0.7965   -0.5308 H   0  0  0  0  0  0  0  0  0  0  0  0
    0.5826    0.9505   -0.3673 H   0  0  0  0  0  0  0  0  0  0  0  0
    0.6213   -0.0852    1.0987 H   0  0  0  0  0  0  0  0  0  0  0  0
    1.9078    2.5924   -0.2705 H   0  0  0  0  0  0  0  0  0  0  0  0
    2.8865    4.3898    1.1418 H   0  0  0  0  0  0  0  0  0  0  0  0
    6.8393    2.8464    5.3634 H   0  0  0  0  0  0  0  0  0  0  0  0
    9.5371    6.9458    5.5747 H   0  0  0  0  0  0  0  0  0  0  0  0
   11.5707    6.3508    4.7038 H   0  0  0  0  0  0  0  0  0  0  0  0
   10.6660    2.1541    5.1575 H   0  0  0  0  0  0  0  0  0  0  0  0
    8.5658    2.7342    6.2239 H   0  0  0  0  0  0  0  0  0  0  0  0
   14.9798    3.7898    4.3330 H   0  0  0  0  0  0  0  0  0  0  0  0
   15.3750    2.2855    4.8060 H   0  0  0  0  0  0  0  0  0  0  0  0
   12.8507    3.5554    6.3461 H   0  0  0  0  0  0  0  0  0  0  0  0
   14.4150    4.0270    6.8605 H   0  0  0  0  0  0  0  0  0  0  0  0
   11.8887    1.2575    6.6006 H   0  0  0  0  0  0  0  0  0  0  0  0
   13.0758    0.0256    6.7457 H   0  0  0  0  0  0  0  0  0  0  0  0
   12.3826    0.4166    4.2741 H   0  0  0  0  0  0  0  0  0  0  0  0
   14.0429    0.5220    4.6459 H   0  0  0  0  0  0  0  0  0  0  0  0
   15.8170    2.3524    7.5502 H   0  0  0  0  0  0  0  0  0  0  0  0
   15.6335    1.2151    6.2208 H   0  0  0  0  0  0  0  0  0  0  0  0
   15.3244    0.6611    7.8302 H   0  0  0  0  0  0  0  0  0  0  0  0
    6.2267    7.0233    6.7263 H   0  0  0  0  0  0  0  0  0  0  0  0
    7.5091    7.3467    5.6010 H   0  0  0  0  0  0  0  0  0  0  0  0
    9.2237    7.3282    7.4124 H   0  0  0  0  0  0  0  0  0  0  0  0
    6.7130    8.7924    8.1556 H   0  0  0  0  0  0  0  0  0  0  0  0
    8.2183    9.4205    7.4516 H   0  0  0  0  0  0  0  0  0  0  0  0
    7.9394    9.4541   10.1310 H   0  0  0  0  0  0  0  0  0  0  0  0
    9.4854    8.9361    9.4293 H   0  0  0  0  0  0  0  0  0  0  0  0
    7.3292    7.2329   10.6713 H   0  0  0  0  0  0  0  0  0  0  0  0
    9.0852    6.9915   10.6938 H   0  0  0  0  0  0  0  0  0  0  0  0
    7.1248    5.8412    8.9450 H   0  0  0  0  0  0  0  0  0  0  0  0
    8.8726    5.5996    8.8495 H   0  0  0  0  0  0  0  0  0  0  0  0
  1  2  1  0  0  0  0
  1 39  1  0  0  0  0
  1 40  1  0  0  0  0
  1 41  1  0  0  0  0
  2  3  1  0  0  0  0
  3  4  2  0  0  0  0
  3  8  1  0  0  0  0
  4  5  1  0  0  0  0
  4 42  1  0  0  0  0
  5  6  2  0  0  0  0
  5 43  1  0  0  0  0
  6  7  1  0  0  0  0
  6 11  1  0  0  0  0
  7  8  2  0  0  0  0
  7  9  1  0  0  0  0
  9 10  1  0  0  0  0
 10 11  2  0  0  0  0
 10 12  1  0  0  0  0
 12 13  1  0  0  0  0
 12 44  1  0  0  0  0
 13 14  2  0  0  0  0
 13 15  1  0  0  0  0
 15 16  1  1  0  0  0
 15 17  1  0  0  0  0
 15 33  1  0  0  0  0
 17 18  2  0  0  0  0
 17 22  1  0  0  0  0
 18 19  1  0  0  0  0
 18 45  1  0  0  0  0
 19 20  2  0  0  0  0
 19 46  1  0  0  0  0
 20 21  1  0  0  0  0
 20 23  1  0  0  0  0
 21 22  2  0  0  0  0
 21 47  1  0  0  0  0
 22 48  1  0  0  0  0
 23 24  2  0  0  0  0
 23 25  2  0  0  0  0
 23 26  1  0  0  0  0
 26 27  1  0  0  0  0
 26 31  1  0  0  0  0
 27 28  1  0  0  0  0
 27 49  1  0  0  0  0
 27 50  1  0  0  0  0
 28 29  1  0  0  0  0
 28 51  1  0  0  0  0
 28 52  1  0  0  0  0
 29 30  1  0  0  0  0
 29 32  1  0  0  0  0
 30 31  1  0  0  0  0
 30 53  1  0  0  0  0
 30 54  1  0  0  0  0
 31 55  1  0  0  0  0
 31 56  1  0  0  0  0
 32 57  1  0  0  0  0
 32 58  1  0  0  0  0
 32 59  1  0  0  0  0
 33 34  1  0  0  0  0
 33 60  1  0  0  0  0
 33 61  1  0  0  0  0
 34 35  1  0  0  0  0
 34 38  1  0  0  0  0
 34 62  1  0  0  0  0
 35 36  1  0  0  0  0
 35 63  1  0  0  0  0
 35 64  1  0  0  0  0
 36 37  1  0  0  0  0
 36 65  1  0  0  0  0
 36 66  1  0  0  0  0
 37 38  1  0  0  0  0
 37 67  1  0  0  0  0
 37 68  1  0  0  0  0
 38 69  1  0  0  0  0
 38 70  1  0  0  0  0
M  END
$$$$
