B86
 OpenBabel04121316083D

 29 30  0  0  1  0  0  0  0  0999 V2000
    1.0430   -0.0779   -0.1771 O   0  0  0  0  0  0  0  0  0  0  0  0
    2.4579    0.0258   -0.0359 C   0  0  0  0  0  0  0  0  0  0  0  0
    2.9419   -0.7144    1.2154 C   0  0  1  0  0  0  0  0  0  0  0  0
    3.9366   -0.3354    1.4872 H   0  0  0  0  0  0  0  0  0  0  0  0
    2.0491   -0.5271    2.3302 O   0  0  0  0  0  0  0  0  0  0  0  0
    2.2061   -1.6524    3.2023 C   0  0  2  0  0  0  0  0  0  0  0  0
    3.0529   -1.4429    3.8695 H   0  0  0  0  0  0  0  0  0  0  0  0
    2.5261   -2.8222    2.2635 C   0  0  0  0  0  0  0  0  0  0  0  0
    3.0033   -2.2123    0.9755 C   0  0  2  0  0  0  0  0  0  0  0  0
    2.3553   -2.5200    0.1468 H   0  0  0  0  0  0  0  0  0  0  0  0
    4.3242   -2.6496    0.6782 O   0  0  0  0  0  0  0  0  0  0  0  0
    1.0227   -1.9073    4.0496 N   0  0  0  0  0  0  0  0  0  0  0  0
    0.7619   -3.2110    4.4477 C   0  0  0  0  0  0  0  0  0  0  0  0
   -0.2487   -3.5038    5.2476 C   0  0  0  0  0  0  0  0  0  0  0  0
   -0.5742   -4.7539    5.6191 F   0  0  0  0  0  0  0  0  0  0  0  0
   -1.0498   -2.3851    5.7606 C   0  0  0  0  0  0  0  0  0  0  0  0
   -0.7747   -1.1511    5.4622 N   0  0  0  0  0  0  0  0  0  0  0  0
    0.2980   -0.8472    4.6323 C   0  0  0  0  0  0  0  0  0  0  0  0
    0.5956    0.3323    4.4443 O   0  0  0  0  0  0  0  0  0  0  0  0
   -2.1009   -2.6659    6.5856 N   0  0  0  0  0  0  0  0  0  0  0  0
    0.7755    0.5436   -0.8742 H   0  0  0  0  0  0  0  0  0  0  0  0
    2.7393    1.0828    0.0084 H   0  0  0  0  0  0  0  0  0  0  0  0
    2.9070   -0.4075   -0.9368 H   0  0  0  0  0  0  0  0  0  0  0  0
    1.6146   -3.3827    2.0199 H   0  0  0  0  0  0  0  0  0  0  0  0
    3.2329   -3.5227    2.7199 H   0  0  0  0  0  0  0  0  0  0  0  0
    4.2847   -3.6136    0.5437 H   0  0  0  0  0  0  0  0  0  0  0  0
    1.3870   -4.0180    4.0897 H   0  0  0  0  0  0  0  0  0  0  0  0
   -2.3306   -3.6216    6.8286 H   0  0  0  0  0  0  0  0  0  0  0  0
   -2.6628   -1.9132    6.9580 H   0  0  0  0  0  0  0  0  0  0  0  0
  1  2  1  0  0  0  0
  1 21  1  0  0  0  0
  2  3  1  0  0  0  0
  2 22  1  0  0  0  0
  2 23  1  0  0  0  0
  3  4  1  1  0  0  0
  3  5  1  0  0  0  0
  3  9  1  0  0  0  0
  5  6  1  0  0  0  0
  6  8  1  0  0  0  0
  6 12  1  0  0  0  0
  6  7  1  1  0  0  0
  8  9  1  0  0  0  0
  8 24  1  0  0  0  0
  8 25  1  0  0  0  0
  9 10  1  6  0  0  0
  9 11  1  0  0  0  0
 11 26  1  0  0  0  0
 12 13  1  0  0  0  0
 12 18  1  0  0  0  0
 13 14  2  0  0  0  0
 13 27  1  0  0  0  0
 14 15  1  0  0  0  0
 14 16  1  0  0  0  0
 16 17  2  0  0  0  0
 16 20  1  0  0  0  0
 17 18  1  0  0  0  0
 18 19  2  0  0  0  0
 20 28  1  0  0  0  0
 20 29  1  0  0  0  0
M  END
$$$$
