B87
 OpenBabel04121316083D

 54 58  0  0  0  0  0  0  0  0999 V2000
    1.0011   -0.3272   -0.0149 O   0  0  0  0  0  0  0  0  0  0  0  0
    2.2302   -0.1988    0.0997 C   0  0  0  0  0  0  0  0  0  0  0  0
    2.9561   -1.0363    0.9040 N   0  0  0  0  0  0  0  0  0  0  0  0
    4.1530   -0.7563    1.6763 C   0  0  0  0  0  0  0  0  0  0  0  0
    4.8665   -2.0914    1.6568 C   0  0  0  0  0  0  0  0  0  0  0  0
    3.7229   -3.1088    1.7052 C   0  0  0  0  0  0  0  0  0  0  0  0
    2.4858   -2.3687    1.1956 C   0  0  0  0  0  0  0  0  0  0  0  0
    2.9448    0.8232   -0.7837 C   0  0  0  0  0  0  0  0  0  0  0  0
    4.4174    0.6983   -0.7784 N   0  0  0  0  0  0  0  0  0  0  0  0
    4.8954   -0.2499   -1.8103 C   0  0  0  0  0  0  0  0  0  0  0  0
    4.7018    0.2837   -3.2431 C   0  0  0  0  0  0  0  0  0  0  0  0
    5.3307    1.6098   -3.3495 N   0  0  0  0  0  0  0  0  0  0  0  0
    4.8653    2.6011   -2.3847 C   0  0  0  0  0  0  0  0  0  0  0  0
    5.0592    2.0178   -0.9668 C   0  0  0  0  0  0  0  0  0  0  0  0
    6.2748    1.9166   -4.2992 C   0  0  0  0  0  0  0  0  0  0  0  0
    6.4984    3.1783   -4.6822 N   0  0  0  0  0  0  0  0  0  0  0  0
    7.3324    3.3587   -5.7277 C   0  0  0  0  0  0  0  0  0  0  0  0
    7.9084    2.4053   -6.4793 N   0  0  0  0  0  0  0  0  0  0  0  0
    7.6979    1.1594   -6.0404 C   0  0  0  0  0  0  0  0  0  0  0  0
    6.9809    0.9046   -4.8906 C   0  0  0  0  0  0  0  0  0  0  0  0
    8.1445    0.0447   -6.8889 C   0  0  0  0  0  0  0  0  0  0  0  0
    8.8586    0.0071   -8.0741 C   0  0  0  0  0  0  0  0  0  0  0  0
    8.9757   -1.3281   -8.6212 C   0  0  0  0  0  0  0  0  0  0  0  0
    8.3416   -2.2569   -7.8026 C   0  0  0  0  0  0  0  0  0  0  0  0
    7.6612   -1.5410   -6.4385 S   0  0  0  0  0  0  0  0  0  0  0  0
    8.2764   -3.6264   -8.0836 C   0  0  0  0  0  0  0  0  0  0  0  0
    8.8829   -4.0862   -9.2401 C   0  0  0  0  0  0  0  0  0  0  0  0
    9.5322   -3.1969  -10.0879 C   0  0  0  0  0  0  0  0  0  0  0  0
    9.5855   -1.8230   -9.7974 C   0  0  0  0  0  0  0  0  0  0  0  0
    3.8259   -0.5079    2.6925 H   0  0  0  0  0  0  0  0  0  0  0  0
    4.7689    0.0744    1.3441 H   0  0  0  0  0  0  0  0  0  0  0  0
    5.5696   -2.2039    2.4857 H   0  0  0  0  0  0  0  0  0  0  0  0
    5.4249   -2.2060    0.7188 H   0  0  0  0  0  0  0  0  0  0  0  0
    3.5594   -3.4555    2.7298 H   0  0  0  0  0  0  0  0  0  0  0  0
    3.9505   -3.9840    1.0878 H   0  0  0  0  0  0  0  0  0  0  0  0
    1.7058   -2.3117    1.9615 H   0  0  0  0  0  0  0  0  0  0  0  0
    2.0640   -2.8240    0.2931 H   0  0  0  0  0  0  0  0  0  0  0  0
    2.6178    1.8197   -0.4721 H   0  0  0  0  0  0  0  0  0  0  0  0
    2.5405    0.6641   -1.7905 H   0  0  0  0  0  0  0  0  0  0  0  0
    4.4116   -1.2281   -1.7007 H   0  0  0  0  0  0  0  0  0  0  0  0
    5.9673   -0.4331   -1.6413 H   0  0  0  0  0  0  0  0  0  0  0  0
    3.6388    0.3822   -3.4856 H   0  0  0  0  0  0  0  0  0  0  0  0
    5.0642   -0.4644   -3.9538 H   0  0  0  0  0  0  0  0  0  0  0  0
    3.7996    2.7960   -2.5563 H   0  0  0  0  0  0  0  0  0  0  0  0
    5.3879    3.5595   -2.4527 H   0  0  0  0  0  0  0  0  0  0  0  0
    4.6860    2.7156   -0.2079 H   0  0  0  0  0  0  0  0  0  0  0  0
    6.1328    1.9054   -0.7603 H   0  0  0  0  0  0  0  0  0  0  0  0
    7.5616    4.3859   -5.9877 H   0  0  0  0  0  0  0  0  0  0  0  0
    6.9234   -0.0899   -4.4803 H   0  0  0  0  0  0  0  0  0  0  0  0
    9.2572    0.8969   -8.5499 H   0  0  0  0  0  0  0  0  0  0  0  0
    7.7591   -4.2987   -7.4049 H   0  0  0  0  0  0  0  0  0  0  0  0
    8.8392   -5.1470   -9.4670 H   0  0  0  0  0  0  0  0  0  0  0  0
   10.0032   -3.5760  -10.9903 H   0  0  0  0  0  0  0  0  0  0  0  0
   10.0930   -1.1472  -10.4808 H   0  0  0  0  0  0  0  0  0  0  0  0
  1  2  2  0  0  0  0
  2  3  1  0  0  0  0
  2  8  1  0  0  0  0
  3  4  1  0  0  0  0
  3  7  1  0  0  0  0
  4  5  1  0  0  0  0
  4 30  1  0  0  0  0
  4 31  1  0  0  0  0
  5  6  1  0  0  0  0
  5 32  1  0  0  0  0
  5 33  1  0  0  0  0
  6  7  1  0  0  0  0
  6 34  1  0  0  0  0
  6 35  1  0  0  0  0
  7 36  1  0  0  0  0
  7 37  1  0  0  0  0
  8  9  1  0  0  0  0
  8 38  1  0  0  0  0
  8 39  1  0  0  0  0
  9 10  1  0  0  0  0
  9 14  1  0  0  0  0
 10 11  1  0  0  0  0
 10 40  1  0  0  0  0
 10 41  1  0  0  0  0
 11 12  1  0  0  0  0
 11 42  1  0  0  0  0
 11 43  1  0  0  0  0
 12 13  1  0  0  0  0
 12 15  1  0  0  0  0
 13 14  1  0  0  0  0
 13 44  1  0  0  0  0
 13 45  1  0  0  0  0
 14 46  1  0  0  0  0
 14 47  1  0  0  0  0
 15 16  2  0  0  0  0
 15 20  1  0  0  0  0
 16 17  1  0  0  0  0
 17 18  2  0  0  0  0
 17 48  1  0  0  0  0
 18 19  1  0  0  0  0
 19 20  2  0  0  0  0
 19 21  1  0  0  0  0
 20 49  1  0  0  0  0
 21 22  2  0  0  0  0
 21 25  1  0  0  0  0
 22 23  1  0  0  0  0
 22 50  1  0  0  0  0
 23 24  2  0  0  0  0
 23 29  1  0  0  0  0
 24 25  1  0  0  0  0
 24 26  1  0  0  0  0
 26 27  2  0  0  0  0
 26 51  1  0  0  0  0
 27 28  1  0  0  0  0
 27 52  1  0  0  0  0
 28 29  2  0  0  0  0
 28 53  1  0  0  0  0
 29 54  1  0  0  0  0
M  END
$$$$
