B89
 OpenBabel04121316083D

 47 48  0  0  1  0  0  0  0  0999 V2000
    1.0162   -0.0414    0.1604 Cl  0  0  0  0  0  0  0  0  0  0  0  0
    2.7229   -0.0390    0.1188 C   0  0  0  0  0  0  0  0  0  0  0  0
    3.4070    0.0164   -1.0216 C   0  0  0  0  0  0  0  0  0  0  0  0
    4.8882    0.0233   -1.0490 C   0  0  0  0  0  0  0  0  0  0  0  0
    5.2389    0.1283   -2.4192 O   0  0  0  0  0  0  0  0  0  0  0  0
    6.6151    0.1376   -2.4918 N   0  0  0  0  0  0  0  0  0  0  0  0
    6.9995    0.1246   -3.7288 C   0  0  0  0  0  0  0  0  0  0  0  0
    8.4320    0.1056   -3.9306 C   0  0  0  0  0  0  0  0  0  0  0  0
    9.0471    1.2939   -3.9154 C   0  0  0  0  0  0  0  0  0  0  0  0
    8.4453    2.5252   -3.7370 O   0  0  0  0  0  0  0  0  0  0  0  0
   10.4550    1.4333   -4.2713 C   0  0  0  0  0  0  0  0  0  0  0  0
   11.2386    0.1724   -4.6149 C   0  0  1  0  0  0  0  0  0  0  0  0
   11.9839    0.1080   -3.8139 H   0  0  0  0  0  0  0  0  0  0  0  0
   10.5350   -1.1843   -4.5715 C   0  0  0  0  0  0  0  0  0  0  0  0
    9.0909   -1.1680   -4.2318 C   0  0  0  0  0  0  0  0  0  0  0  0
    8.4389   -2.2203   -4.2597 O   0  0  0  0  0  0  0  0  0  0  0  0
   11.9340    0.3342   -5.9981 C   0  0  0  0  0  0  0  0  0  0  0  0
   12.5312    1.7320   -6.2346 C   0  0  0  0  0  0  0  0  0  0  0  0
   13.5837    1.9963   -5.1724 C   0  0  0  0  0  0  0  0  0  0  0  0
   14.6282    1.0291   -5.2795 O   0  0  0  0  0  0  0  0  0  0  0  0
   14.1842   -0.3208   -5.1137 C   0  0  0  0  0  0  0  0  0  0  0  0
   13.0845   -0.6765   -6.1140 C   0  0  0  0  0  0  0  0  0  0  0  0
    6.0954    0.1829   -4.9466 C   0  0  0  0  0  0  0  0  0  0  0  0
    6.8313    0.2652   -6.2806 C   0  0  0  0  0  0  0  0  0  0  0  0
    3.1825   -0.0863    1.0975 H   0  0  0  0  0  0  0  0  0  0  0  0
    2.8930    0.0591   -1.9790 H   0  0  0  0  0  0  0  0  0  0  0  0
    5.3006   -0.9035   -0.6307 H   0  0  0  0  0  0  0  0  0  0  0  0
    5.2936    0.8886   -0.5111 H   0  0  0  0  0  0  0  0  0  0  0  0
    7.5024    2.4389   -3.5188 H   0  0  0  0  0  0  0  0  0  0  0  0
   10.9804    1.9866   -3.4822 H   0  0  0  0  0  0  0  0  0  0  0  0
   10.3963    2.0955   -5.1322 H   0  0  0  0  0  0  0  0  0  0  0  0
   11.0448   -1.8381   -3.8520 H   0  0  0  0  0  0  0  0  0  0  0  0
   10.5906   -1.6794   -5.5488 H   0  0  0  0  0  0  0  0  0  0  0  0
   11.1879    0.1426   -6.7826 H   0  0  0  0  0  0  0  0  0  0  0  0
   11.7897    2.5353   -6.2461 H   0  0  0  0  0  0  0  0  0  0  0  0
   12.9736    1.7596   -7.2361 H   0  0  0  0  0  0  0  0  0  0  0  0
   13.1694    1.9741   -4.1576 H   0  0  0  0  0  0  0  0  0  0  0  0
   13.9992    2.9967   -5.3120 H   0  0  0  0  0  0  0  0  0  0  0  0
   13.8606   -0.4697   -4.0773 H   0  0  0  0  0  0  0  0  0  0  0  0
   15.0394   -0.9842   -5.2564 H   0  0  0  0  0  0  0  0  0  0  0  0
   12.7453   -1.7057   -5.9539 H   0  0  0  0  0  0  0  0  0  0  0  0
   13.4819   -0.6320   -7.1344 H   0  0  0  0  0  0  0  0  0  0  0  0
    5.4637    1.0727   -4.8421 H   0  0  0  0  0  0  0  0  0  0  0  0
    5.4542   -0.7028   -4.9344 H   0  0  0  0  0  0  0  0  0  0  0  0
    7.4675    1.1564   -6.3340 H   0  0  0  0  0  0  0  0  0  0  0  0
    6.1225    0.3140   -7.1103 H   0  0  0  0  0  0  0  0  0  0  0  0
    7.4705   -0.6097   -6.4388 H   0  0  0  0  0  0  0  0  0  0  0  0
  1  2  1  0  0  0  0
  2  3  2  0  0  0  0
  2 25  1  0  0  0  0
  3  4  1  0  0  0  0
  3 26  1  0  0  0  0
  4  5  1  0  0  0  0
  4 27  1  0  0  0  0
  4 28  1  0  0  0  0
  5  6  1  0  0  0  0
  6  7  2  0  0  0  0
  7  8  1  0  0  0  0
  7 23  1  0  0  0  0
  8  9  2  0  0  0  0
  8 15  1  0  0  0  0
  9 10  1  0  0  0  0
  9 11  1  0  0  0  0
 10 29  1  0  0  0  0
 11 12  1  0  0  0  0
 11 30  1  0  0  0  0
 11 31  1  0  0  0  0
 12 13  1  1  0  0  0
 12 14  1  0  0  0  0
 12 17  1  0  0  0  0
 14 15  1  0  0  0  0
 14 32  1  0  0  0  0
 14 33  1  0  0  0  0
 15 16  2  0  0  0  0
 17 18  1  0  0  0  0
 17 22  1  0  0  0  0
 17 34  1  0  0  0  0
 18 19  1  0  0  0  0
 18 35  1  0  0  0  0
 18 36  1  0  0  0  0
 19 20  1  0  0  0  0
 19 37  1  0  0  0  0
 19 38  1  0  0  0  0
 20 21  1  0  0  0  0
 21 22  1  0  0  0  0
 21 39  1  0  0  0  0
 21 40  1  0  0  0  0
 22 41  1  0  0  0  0
 22 42  1  0  0  0  0
 23 24  1  0  0  0  0
 23 43  1  0  0  0  0
 23 44  1  0  0  0  0
 24 45  1  0  0  0  0
 24 46  1  0  0  0  0
 24 47  1  0  0  0  0
M  END
$$$$
