B90
 OpenBabel04121316083D

 54 58  0  0  0  0  0  0  0  0999 V2000
    0.9825   -0.3895    0.0660 C   0  0  0  0  0  0  0  0  0  0  0  0
    2.4739   -0.2107    0.0753 C   0  0  0  0  0  0  0  0  0  0  0  0
    3.2404   -1.3745    0.0253 C   0  0  0  0  0  0  0  0  0  0  0  0
    4.6327   -1.3399    0.0199 C   0  0  0  0  0  0  0  0  0  0  0  0
    5.2449   -0.0875    0.0579 C   0  0  0  0  0  0  0  0  0  0  0  0
    4.5307    1.1025    0.1125 C   0  0  0  0  0  0  0  0  0  0  0  0
    3.1135    1.0528    0.1273 C   0  0  0  0  0  0  0  0  0  0  0  0
    2.4344    2.3473    0.1839 C   0  0  0  0  0  0  0  0  0  0  0  0
    1.1166    2.5250    0.1989 C   0  0  0  0  0  0  0  0  0  0  0  0
    0.4231    3.7046    0.2307 N   0  0  0  0  0  0  0  0  0  0  0  0
   -0.9486    3.8255    0.3136 C   0  0  0  0  0  0  0  0  0  0  0  0
   -1.3404    5.0755    0.3489 N   0  0  0  0  0  0  0  0  0  0  0  0
   -0.1583    5.7742    0.2917 C   0  0  0  0  0  0  0  0  0  0  0  0
    0.9416    4.9566    0.1887 C   0  0  0  0  0  0  0  0  0  0  0  0
    2.2378    5.2959    0.0798 N   0  0  0  0  0  0  0  0  0  0  0  0
    2.4120    6.6028    0.1300 C   0  0  0  0  0  0  0  0  0  0  0  0
    1.4419    7.4983    0.2776 N   0  0  0  0  0  0  0  0  0  0  0  0
    0.1287    7.1200    0.3233 C   0  0  0  0  0  0  0  0  0  0  0  0
   -0.8907    8.0549    0.4234 N   0  0  0  0  0  0  0  0  0  0  0  0
   -0.7157    9.4226    0.2893 C   0  0  0  0  0  0  0  0  0  0  0  0
   -1.5628   10.3073    0.9454 C   0  0  0  0  0  0  0  0  0  0  0  0
   -1.3802   11.6687    0.7668 C   0  0  0  0  0  0  0  0  0  0  0  0
   -0.2551   12.1212    0.0711 C   0  0  0  0  0  0  0  0  0  0  0  0
    0.7270   11.2382   -0.3297 C   0  0  0  0  0  0  0  0  0  0  0  0
    0.4142    9.9162   -0.3672 C   0  0  0  0  0  0  0  0  0  0  0  0
   -0.0752   13.8690   -0.2814 P   0  0  0  0  0  0  0  0  0  0  0  0
    1.0133   14.0326    0.7982 O   0  0  0  0  0  0  0  0  0  0  0  0
    0.7627   13.5748   -1.9885 C   0  0  0  0  0  0  0  0  0  0  0  0
    0.1086   15.6538   -0.6414 C   0  0  0  0  0  0  0  0  0  0  0  0
    5.5409    2.1033    0.1508 C   0  0  0  0  0  0  0  0  0  0  0  0
    6.7761    1.6009    0.0867 N   0  0  0  0  0  0  0  0  0  0  0  0
    6.5652    0.2747    0.0723 N   0  0  0  0  0  0  0  0  0  0  0  0
    7.3700   -0.3391    0.0933 H   0  0  0  0  0  0  0  0  0  0  0  0
    0.6603   -1.4283    0.0178 H   0  0  0  0  0  0  0  0  0  0  0  0
    0.5652    0.0944   -0.8270 H   0  0  0  0  0  0  0  0  0  0  0  0
    0.5624    0.0089    0.9986 H   0  0  0  0  0  0  0  0  0  0  0  0
    2.7325   -2.3354   -0.0115 H   0  0  0  0  0  0  0  0  0  0  0  0
    5.2013   -2.2607   -0.0149 H   0  0  0  0  0  0  0  0  0  0  0  0
    3.0988    3.2094    0.2166 H   0  0  0  0  0  0  0  0  0  0  0  0
    0.3989    1.7377    0.1856 H   0  0  0  0  0  0  0  0  0  0  0  0
   -1.5929    2.9553    0.3584 H   0  0  0  0  0  0  0  0  0  0  0  0
    3.4240    6.9791    0.0397 H   0  0  0  0  0  0  0  0  0  0  0  0
   -1.8279    7.6808    0.4860 H   0  0  0  0  0  0  0  0  0  0  0  0
   -2.3501    9.9397    1.5952 H   0  0  0  0  0  0  0  0  0  0  0  0
   -2.0821   12.3746    1.1987 H   0  0  0  0  0  0  0  0  0  0  0  0
    1.6909   11.5639   -0.7052 H   0  0  0  0  0  0  0  0  0  0  0  0
    1.0992    9.2782   -0.9128 H   0  0  0  0  0  0  0  0  0  0  0  0
    0.7897   12.5294   -2.2952 H   0  0  0  0  0  0  0  0  0  0  0  0
    1.7829   13.9644   -1.9441 H   0  0  0  0  0  0  0  0  0  0  0  0
    0.1658   14.0833   -2.7456 H   0  0  0  0  0  0  0  0  0  0  0  0
   -0.3040   16.2349    0.1896 H   0  0  0  0  0  0  0  0  0  0  0  0
   -0.4561   15.9195   -1.5402 H   0  0  0  0  0  0  0  0  0  0  0  0
    1.1551   15.9437   -0.7834 H   0  0  0  0  0  0  0  0  0  0  0  0
    5.4235    3.1778    0.2262 H   0  0  0  0  0  0  0  0  0  0  0  0
  1  2  1  0  0  0  0
  1 34  1  0  0  0  0
  1 35  1  0  0  0  0
  1 36  1  0  0  0  0
  2  3  2  0  0  0  0
  2  7  1  0  0  0  0
  3  4  1  0  0  0  0
  3 37  1  0  0  0  0
  4  5  2  0  0  0  0
  4 38  1  0  0  0  0
  5  6  1  0  0  0  0
  5 32  1  0  0  0  0
  6  7  2  0  0  0  0
  6 30  1  0  0  0  0
  7  8  1  0  0  0  0
  8  9  2  0  0  0  0
  8 39  1  0  0  0  0
  9 10  1  0  0  0  0
  9 40  1  0  0  0  0
 10 11  1  0  0  0  0
 10 14  1  0  0  0  0
 11 12  2  0  0  0  0
 11 41  1  0  0  0  0
 12 13  1  0  0  0  0
 13 14  2  0  0  0  0
 13 18  1  0  0  0  0
 14 15  1  0  0  0  0
 15 16  2  0  0  0  0
 16 17  1  0  0  0  0
 16 42  1  0  0  0  0
 17 18  2  0  0  0  0
 18 19  1  0  0  0  0
 19 20  1  0  0  0  0
 19 43  1  0  0  0  0
 20 21  2  0  0  0  0
 20 25  1  0  0  0  0
 21 22  1  0  0  0  0
 21 44  1  0  0  0  0
 22 23  2  0  0  0  0
 22 45  1  0  0  0  0
 23 24  1  0  0  0  0
 23 26  1  0  0  0  0
 24 25  2  0  0  0  0
 24 46  1  0  0  0  0
 25 47  1  0  0  0  0
 26 27  2  0  0  0  0
 26 28  1  0  0  0  0
 26 29  1  0  0  0  0
 28 48  1  0  0  0  0
 28 49  1  0  0  0  0
 28 50  1  0  0  0  0
 29 51  1  0  0  0  0
 29 52  1  0  0  0  0
 29 53  1  0  0  0  0
 30 31  2  0  0  0  0
 30 54  1  0  0  0  0
 31 32  1  0  0  0  0
 32 33  1  0  0  0  0
M  END
$$$$
