B93
 OpenBabel04121316083D

 78 82  0  0  1  0  0  0  0  0999 V2000
    0.9417   -0.0407    0.2548 O   0  0  0  0  0  0  0  0  0  0  0  0
    2.2439   -0.2102   -0.0841 C   0  0  0  0  0  0  0  0  0  0  0  0
    2.6572    0.1486   -1.1526 O   0  0  0  0  0  0  0  0  0  0  0  0
    3.0788   -0.9415    0.9571 C   0  0  0  0  0  0  0  0  0  0  0  0
    4.5910   -0.6674    0.8010 C   0  0  1  0  0  0  0  0  0  0  0  0
    4.9275   -0.8679   -0.2232 H   0  0  0  0  0  0  0  0  0  0  0  0
    4.9765    0.7784    1.2060 C   0  0  0  0  0  0  0  0  0  0  0  0
    5.6595    1.0238    2.2064 O   0  0  0  0  0  0  0  0  0  0  0  0
    4.5001    1.9526    0.4145 C   0  0  0  0  0  0  0  0  0  0  0  0
    5.3918   -1.5267    1.7140 N   0  0  0  0  0  0  0  0  0  0  0  0
    6.7934   -1.4914    1.6728 C   0  0  0  0  0  0  0  0  0  0  0  0
    7.3776   -0.9685    0.7197 O   0  0  0  0  0  0  0  0  0  0  0  0
    7.5776   -2.3530    2.7450 C   0  0  2  0  0  0  0  0  0  0  0  0
    8.6009   -1.9778    2.8436 H   0  0  0  0  0  0  0  0  0  0  0  0
    7.6195   -3.7320    2.2766 C   0  0  0  0  0  0  0  0  0  0  0  0
    7.3005   -4.9126    2.8242 C   0  0  0  0  0  0  0  0  0  0  0  0
    7.1363   -6.2034    2.0207 C   0  0  0  0  0  0  0  0  0  0  0  0
    7.2945   -6.1630    0.4417 C   0  0  0  0  0  0  0  0  0  0  0  0
    6.2336   -6.9943   -0.2874 C   0  0  0  0  0  0  0  0  0  0  0  0
    4.8175   -6.4369   -0.0727 C   0  0  0  0  0  0  0  0  0  0  0  0
    4.6947   -4.9794   -0.5126 C   0  0  0  0  0  0  0  0  0  0  0  0
    5.8029   -4.1721    0.1108 C   0  0  0  0  0  0  0  0  0  0  0  0
    7.1771   -4.8037   -0.2571 C   0  0  0  0  0  0  0  0  0  0  0  0
    6.9457   -4.8996    4.2787 C   0  0  0  0  0  0  0  0  0  0  0  0
    6.7737   -3.5324    4.7372 N   0  0  0  0  0  0  0  0  0  0  0  0
    6.8452   -2.3930    3.9286 N   0  0  0  0  0  0  0  0  0  0  0  0
    6.7264   -1.2818    4.7196 C   0  0  0  0  0  0  0  0  0  0  0  0
    6.9957   -0.1295    4.4179 O   0  0  0  0  0  0  0  0  0  0  0  0
    6.2729   -1.7352    5.9177 N   0  0  0  0  0  0  0  0  0  0  0  0
    6.2983   -3.1204    5.9521 C   0  0  0  0  0  0  0  0  0  0  0  0
    5.9648   -3.8825    6.8443 O   0  0  0  0  0  0  0  0  0  0  0  0
    5.9046   -0.8337    6.9459 C   0  0  0  0  0  0  0  0  0  0  0  0
    5.4646   -1.5975    8.1584 C   0  0  0  0  0  0  0  0  0  0  0  0
    5.0667   -0.7338    9.2050 N   0  0  0  0  0  0  0  0  0  0  0  0
    4.6605   -1.2838   10.3946 C   0  0  0  0  0  0  0  0  0  0  0  0
    4.5769   -2.4920   10.5782 O   0  0  0  0  0  0  0  0  0  0  0  0
    4.3463   -0.3181   11.4697 C   0  0  0  0  0  0  0  0  0  0  0  0
    4.6105    1.0522   11.3081 C   0  0  0  0  0  0  0  0  0  0  0  0
    4.3999    1.9617   12.3354 C   0  0  0  0  0  0  0  0  0  0  0  0
    3.9171    1.4364   13.5249 C   0  0  0  0  0  0  0  0  0  0  0  0
    3.6231    0.0906   13.7200 C   0  0  0  0  0  0  0  0  0  0  0  0
    3.8296   -0.8167   12.6747 C   0  0  0  0  0  0  0  0  0  0  0  0
    3.1630   -0.1205   14.9966 N   0  0  0  0  0  0  0  0  0  0  0  0
    3.1851    1.0592   15.5735 C   0  0  0  0  0  0  0  0  0  0  0  0
    3.6322    2.0284   14.7246 N   0  0  0  0  0  0  0  0  0  0  0  0
    3.7427    3.0087   14.9368 H   0  0  0  0  0  0  0  0  0  0  0  0
    0.6261   -0.4402    1.0829 H   0  0  0  0  0  0  0  0  0  0  0  0
    2.8731   -2.0077    0.7992 H   0  0  0  0  0  0  0  0  0  0  0  0
    2.7533   -0.6795    1.9692 H   0  0  0  0  0  0  0  0  0  0  0  0
    3.9641    1.6966   -0.4852 H   0  0  0  0  0  0  0  0  0  0  0  0
    5.3627    2.5396    0.0960 H   0  0  0  0  0  0  0  0  0  0  0  0
    3.8476    2.5350    1.0703 H   0  0  0  0  0  0  0  0  0  0  0  0
    4.9485   -2.2097    2.3172 H   0  0  0  0  0  0  0  0  0  0  0  0
    7.7756   -3.5424    1.2673 H   0  0  0  0  0  0  0  0  0  0  0  0
    6.1621   -6.6434    2.2788 H   0  0  0  0  0  0  0  0  0  0  0  0
    7.8526   -6.9424    2.4088 H   0  0  0  0  0  0  0  0  0  0  0  0
    8.2931   -6.5643    0.2214 H   0  0  0  0  0  0  0  0  0  0  0  0
    6.2959   -8.0411    0.0080 H   0  0  0  0  0  0  0  0  0  0  0  0
    6.4554   -6.9432   -1.3640 H   0  0  0  0  0  0  0  0  0  0  0  0
    4.5471   -6.5082    0.9876 H   0  0  0  0  0  0  0  0  0  0  0  0
    4.0935   -7.0364   -0.6245 H   0  0  0  0  0  0  0  0  0  0  0  0
    3.7224   -4.5746   -0.2072 H   0  0  0  0  0  0  0  0  0  0  0  0
    4.7855   -4.8761   -1.5955 H   0  0  0  0  0  0  0  0  0  0  0  0
    5.5487   -4.1843    1.1808 H   0  0  0  0  0  0  0  0  0  0  0  0
    5.7484   -3.1347   -0.2129 H   0  0  0  0  0  0  0  0  0  0  0  0
    8.1284   -4.2849   -0.0843 H   0  0  0  0  0  0  0  0  0  0  0  0
    7.2539   -4.8279   -1.3454 H   0  0  0  0  0  0  0  0  0  0  0  0
    7.7509   -5.3519    4.8710 H   0  0  0  0  0  0  0  0  0  0  0  0
    6.0245   -5.4544    4.4950 H   0  0  0  0  0  0  0  0  0  0  0  0
    5.1092   -0.1849    6.5524 H   0  0  0  0  0  0  0  0  0  0  0  0
    6.7595   -0.1748    7.1474 H   0  0  0  0  0  0  0  0  0  0  0  0
    6.2887   -2.2186    8.5293 H   0  0  0  0  0  0  0  0  0  0  0  0
    4.6081   -2.2366    7.9148 H   0  0  0  0  0  0  0  0  0  0  0  0
    5.1091    0.2538    9.0287 H   0  0  0  0  0  0  0  0  0  0  0  0
    5.0143    1.4634   10.3915 H   0  0  0  0  0  0  0  0  0  0  0  0
    4.6291    3.0117   12.2026 H   0  0  0  0  0  0  0  0  0  0  0  0
    3.6169   -1.8736   12.8087 H   0  0  0  0  0  0  0  0  0  0  0  0
    2.8945    1.2760   16.5917 H   0  0  0  0  0  0  0  0  0  0  0  0
  1  2  1  0  0  0  0
  1 47  1  0  0  0  0
  2  3  2  0  0  0  0
  2  4  1  0  0  0  0
  4  5  1  0  0  0  0
  4 48  1  0  0  0  0
  4 49  1  0  0  0  0
  5  6  1  6  0  0  0
  5  7  1  0  0  0  0
  5 10  1  0  0  0  0
  7  8  2  0  0  0  0
  7  9  1  0  0  0  0
  9 50  1  0  0  0  0
  9 51  1  0  0  0  0
  9 52  1  0  0  0  0
 10 11  1  0  0  0  0
 10 53  1  0  0  0  0
 11 12  2  0  0  0  0
 11 13  1  0  0  0  0
 13 14  1  1  0  0  0
 13 15  1  0  0  0  0
 13 26  1  0  0  0  0
 15 16  2  0  0  0  0
 15 54  1  0  0  0  0
 16 17  1  0  0  0  0
 16 24  1  0  0  0  0
 17 18  1  0  0  0  0
 17 55  1  0  0  0  0
 17 56  1  0  0  0  0
 18 19  1  0  0  0  0
 18 23  1  0  0  0  0
 18 57  1  0  0  0  0
 19 20  1  0  0  0  0
 19 58  1  0  0  0  0
 19 59  1  0  0  0  0
 20 21  1  0  0  0  0
 20 60  1  0  0  0  0
 20 61  1  0  0  0  0
 21 22  1  0  0  0  0
 21 62  1  0  0  0  0
 21 63  1  0  0  0  0
 22 23  1  0  0  0  0
 22 64  1  0  0  0  0
 22 65  1  0  0  0  0
 23 66  1  0  0  0  0
 23 67  1  0  0  0  0
 24 25  1  0  0  0  0
 24 68  1  0  0  0  0
 24 69  1  0  0  0  0
 25 26  1  0  0  0  0
 25 30  1  0  0  0  0
 26 27  1  0  0  0  0
 27 28  2  0  0  0  0
 27 29  1  0  0  0  0
 29 30  1  0  0  0  0
 29 32  1  0  0  0  0
 30 31  2  0  0  0  0
 32 33  1  0  0  0  0
 32 70  1  0  0  0  0
 32 71  1  0  0  0  0
 33 34  1  0  0  0  0
 33 72  1  0  0  0  0
 33 73  1  0  0  0  0
 34 35  1  0  0  0  0
 34 74  1  0  0  0  0
 35 36  2  0  0  0  0
 35 37  1  0  0  0  0
 37 38  2  0  0  0  0
 37 42  1  0  0  0  0
 38 39  1  0  0  0  0
 38 75  1  0  0  0  0
 39 40  2  0  0  0  0
 39 76  1  0  0  0  0
 40 41  1  0  0  0  0
 40 45  1  0  0  0  0
 41 42  2  0  0  0  0
 41 43  1  0  0  0  0
 42 77  1  0  0  0  0
 43 44  2  0  0  0  0
 44 45  1  0  0  0  0
 44 78  1  0  0  0  0
 45 46  1  0  0  0  0
M  END
$$$$
