B96
 OpenBabel04121316083D

 76 80  0  0  0  0  0  0  0  0999 V2000
    0.8325   -0.0381   -0.0734 O   0  0  0  0  0  0  0  0  0  0  0  0
    2.0573   -0.1009   -0.1206 C   0  0  0  0  0  0  0  0  0  0  0  0
    2.8003    0.7576   -0.9611 N   0  0  0  0  0  0  0  0  0  0  0  0
    2.2088    1.7368   -1.7193 C   0  0  0  0  0  0  0  0  0  0  0  0
    1.2790    1.4829   -2.6808 C   0  0  0  0  0  0  0  0  0  0  0  0
    1.0116    2.7351   -3.2634 C   0  0  0  0  0  0  0  0  0  0  0  0
    1.6808    3.7218   -2.6511 N   0  0  0  0  0  0  0  0  0  0  0  0
    2.4330    3.1003   -1.7067 N   0  0  0  0  0  0  0  0  0  0  0  0
    3.2710    3.8331   -0.8299 C   0  0  0  0  0  0  0  0  0  0  0  0
    3.0629    5.2052   -0.6804 C   0  0  0  0  0  0  0  0  0  0  0  0
    3.9635    5.9543    0.0724 C   0  0  0  0  0  0  0  0  0  0  0  0
    5.0033    5.3268    0.7662 C   0  0  0  0  0  0  0  0  0  0  0  0
    5.1148    3.9430    0.7404 C   0  0  0  0  0  0  0  0  0  0  0  0
    4.3010    3.2151   -0.1099 C   0  0  0  0  0  0  0  0  0  0  0  0
    6.0384    6.1204    1.4916 C   0  0  0  0  0  0  0  0  0  0  0  0
    0.0912    3.0108   -4.4273 C   0  0  0  0  0  0  0  0  0  0  0  0
   -1.0272    3.9675   -3.9899 C   0  0  0  0  0  0  0  0  0  0  0  0
    0.8749    3.6301   -5.5969 C   0  0  0  0  0  0  0  0  0  0  0  0
   -0.5497    1.6943   -4.9171 C   0  0  0  0  0  0  0  0  0  0  0  0
    2.8223   -0.8885    0.6847 N   0  0  0  0  0  0  0  0  0  0  0  0
    4.2249   -0.9353    0.7394 C   0  0  0  0  0  0  0  0  0  0  0  0
    4.9249   -1.0791   -0.4479 C   0  0  0  0  0  0  0  0  0  0  0  0
    6.3038   -1.0352   -0.4305 C   0  0  0  0  0  0  0  0  0  0  0  0
    7.0226   -0.8791    0.7655 C   0  0  0  0  0  0  0  0  0  0  0  0
    6.3321   -0.7410    1.9602 C   0  0  0  0  0  0  0  0  0  0  0  0
    4.9177   -0.7806    1.9651 C   0  0  0  0  0  0  0  0  0  0  0  0
    4.2803   -0.5704    3.1950 C   0  0  0  0  0  0  0  0  0  0  0  0
    5.0067   -0.1493    4.3099 C   0  0  0  0  0  0  0  0  0  0  0  0
    6.3858   -0.0236    4.2511 C   0  0  0  0  0  0  0  0  0  0  0  0
    7.0504   -0.4681    3.1292 C   0  0  0  0  0  0  0  0  0  0  0  0
    8.3987   -0.7853    0.8848 O   0  0  0  0  0  0  0  0  0  0  0  0
    9.0233   -0.8865   -0.3600 C   0  0  0  0  0  0  0  0  0  0  0  0
   10.5406   -0.9519   -0.3787 C   0  0  0  0  0  0  0  0  0  0  0  0
   11.1312   -1.1529   -1.7292 N   0  0  0  0  0  0  0  0  0  0  0  0
   11.3278   -2.5860   -2.0378 C   0  0  0  0  0  0  0  0  0  0  0  0
   10.0103   -3.3355   -2.2549 C   0  0  0  0  0  0  0  0  0  0  0  0
    9.2323   -2.7539   -3.3161 O   0  0  0  0  0  0  0  0  0  0  0  0
    9.0558   -1.3378   -3.2158 C   0  0  0  0  0  0  0  0  0  0  0  0
   10.3426   -0.5638   -2.8424 C   0  0  0  0  0  0  0  0  0  0  0  0
    3.7967    0.7892   -0.8887 H   0  0  0  0  0  0  0  0  0  0  0  0
    0.8903    0.5142   -2.9547 H   0  0  0  0  0  0  0  0  0  0  0  0
    2.2099    5.7030   -1.1393 H   0  0  0  0  0  0  0  0  0  0  0  0
    3.8564    7.0353    0.1058 H   0  0  0  0  0  0  0  0  0  0  0  0
    5.8671    3.4233    1.3312 H   0  0  0  0  0  0  0  0  0  0  0  0
    4.5851    2.1851   -0.2007 H   0  0  0  0  0  0  0  0  0  0  0  0
    5.8548    7.1914    1.3794 H   0  0  0  0  0  0  0  0  0  0  0  0
    7.0238    5.9005    1.0649 H   0  0  0  0  0  0  0  0  0  0  0  0
    6.0318    5.8639    2.5534 H   0  0  0  0  0  0  0  0  0  0  0  0
   -0.6222    4.9318   -3.6613 H   0  0  0  0  0  0  0  0  0  0  0  0
   -1.5942    3.5477   -3.1505 H   0  0  0  0  0  0  0  0  0  0  0  0
   -1.7248    4.1588   -4.8111 H   0  0  0  0  0  0  0  0  0  0  0  0
    1.3327    4.5851   -5.3144 H   0  0  0  0  0  0  0  0  0  0  0  0
    0.2183    3.8156   -6.4538 H   0  0  0  0  0  0  0  0  0  0  0  0
    1.6824    2.9659   -5.9283 H   0  0  0  0  0  0  0  0  0  0  0  0
   -1.1199    1.2124   -4.1125 H   0  0  0  0  0  0  0  0  0  0  0  0
    0.2181    0.9814   -5.2460 H   0  0  0  0  0  0  0  0  0  0  0  0
   -1.2307    1.8605   -5.7554 H   0  0  0  0  0  0  0  0  0  0  0  0
    2.3055   -1.3164    1.4406 H   0  0  0  0  0  0  0  0  0  0  0  0
    4.4202   -1.2223   -1.4026 H   0  0  0  0  0  0  0  0  0  0  0  0
    6.7587   -1.1285   -1.4020 H   0  0  0  0  0  0  0  0  0  0  0  0
    3.2054   -0.6675    3.2929 H   0  0  0  0  0  0  0  0  0  0  0  0
    4.4902    0.0837    5.2338 H   0  0  0  0  0  0  0  0  0  0  0  0
    6.9524    0.4134    5.0665 H   0  0  0  0  0  0  0  0  0  0  0  0
    8.1381   -0.5345    3.1514 H   0  0  0  0  0  0  0  0  0  0  0  0
    8.7126   -0.0106   -0.9387 H   0  0  0  0  0  0  0  0  0  0  0  0
    8.6563   -1.8245   -0.7575 H   0  0  0  0  0  0  0  0  0  0  0  0
   10.8825   -1.7281    0.3184 H   0  0  0  0  0  0  0  0  0  0  0  0
   10.9170   -0.0115    0.0376 H   0  0  0  0  0  0  0  0  0  0  0  0
   11.9203   -3.0656   -1.2504 H   0  0  0  0  0  0  0  0  0  0  0  0
   11.9218   -2.6639   -2.9578 H   0  0  0  0  0  0  0  0  0  0  0  0
    9.4420   -3.4083   -1.3226 H   0  0  0  0  0  0  0  0  0  0  0  0
   10.2077   -4.3753   -2.5248 H   0  0  0  0  0  0  0  0  0  0  0  0
    8.2517   -1.1673   -2.5207 H   0  0  0  0  0  0  0  0  0  0  0  0
    8.6113   -0.9440   -4.1342 H   0  0  0  0  0  0  0  0  0  0  0  0
   10.1240    0.4912   -2.6288 H   0  0  0  0  0  0  0  0  0  0  0  0
   10.9726   -0.5546   -3.7391 H   0  0  0  0  0  0  0  0  0  0  0  0
  1  2  2  0  0  0  0
  2  3  1  0  0  0  0
  2 20  1  0  0  0  0
  3  4  1  0  0  0  0
  3 40  1  0  0  0  0
  4  5  2  0  0  0  0
  4  8  1  0  0  0  0
  5  6  1  0  0  0  0
  5 41  1  0  0  0  0
  6  7  2  0  0  0  0
  6 16  1  0  0  0  0
  7  8  1  0  0  0  0
  8  9  1  0  0  0  0
  9 10  2  0  0  0  0
  9 14  1  0  0  0  0
 10 11  1  0  0  0  0
 10 42  1  0  0  0  0
 11 12  2  0  0  0  0
 11 43  1  0  0  0  0
 12 13  1  0  0  0  0
 12 15  1  0  0  0  0
 13 14  2  0  0  0  0
 13 44  1  0  0  0  0
 14 45  1  0  0  0  0
 15 46  1  0  0  0  0
 15 47  1  0  0  0  0
 15 48  1  0  0  0  0
 16 17  1  0  0  0  0
 16 18  1  0  0  0  0
 16 19  1  0  0  0  0
 17 49  1  0  0  0  0
 17 50  1  0  0  0  0
 17 51  1  0  0  0  0
 18 52  1  0  0  0  0
 18 53  1  0  0  0  0
 18 54  1  0  0  0  0
 19 55  1  0  0  0  0
 19 56  1  0  0  0  0
 19 57  1  0  0  0  0
 20 21  1  0  0  0  0
 20 58  1  0  0  0  0
 21 22  2  0  0  0  0
 21 26  1  0  0  0  0
 22 23  1  0  0  0  0
 22 59  1  0  0  0  0
 23 24  2  0  0  0  0
 23 60  1  0  0  0  0
 24 25  1  0  0  0  0
 24 31  1  0  0  0  0
 25 26  2  0  0  0  0
 25 30  1  0  0  0  0
 26 27  1  0  0  0  0
 27 28  2  0  0  0  0
 27 61  1  0  0  0  0
 28 29  1  0  0  0  0
 28 62  1  0  0  0  0
 29 30  2  0  0  0  0
 29 63  1  0  0  0  0
 30 64  1  0  0  0  0
 31 32  1  0  0  0  0
 32 33  1  0  0  0  0
 32 65  1  0  0  0  0
 32 66  1  0  0  0  0
 33 34  1  0  0  0  0
 33 67  1  0  0  0  0
 33 68  1  0  0  0  0
 34 35  1  0  0  0  0
 34 39  1  0  0  0  0
 35 36  1  0  0  0  0
 35 69  1  0  0  0  0
 35 70  1  0  0  0  0
 36 37  1  0  0  0  0
 36 71  1  0  0  0  0
 36 72  1  0  0  0  0
 37 38  1  0  0  0  0
 38 39  1  0  0  0  0
 38 73  1  0  0  0  0
 38 74  1  0  0  0  0
 39 75  1  0  0  0  0
 39 76  1  0  0  0  0
M  END
$$$$
