B99
 OpenBabel04121316083D

 60 65  0  0  1  0  0  0  0  0999 V2000
    0.8152    0.2277   -0.2609 N   0  0  0  0  0  0  0  0  0  0  0  0
    2.2798    0.0847   -0.0841 C   0  0  1  0  0  0  0  0  0  0  0  0
    2.5589    0.0086    0.9768 H   0  0  0  0  0  0  0  0  0  0  0  0
    2.8250   -1.1543   -0.7973 C   0  0  0  0  0  0  0  0  0  0  0  0
    2.4031   -2.4542   -0.1733 C   0  0  0  0  0  0  0  0  0  0  0  0
    2.8442   -3.6835   -0.6247 C   0  0  0  0  0  0  0  0  0  0  0  0
    2.2719   -4.6547    0.1463 N   0  0  0  0  0  0  0  0  0  0  0  0
    2.4398   -5.6449    0.0443 H   0  0  0  0  0  0  0  0  0  0  0  0
    1.4320   -4.0947    1.0807 C   0  0  0  0  0  0  0  0  0  0  0  0
    1.5214   -2.7110    0.9431 C   0  0  0  0  0  0  0  0  0  0  0  0
    0.7710   -1.9258    1.8582 C   0  0  0  0  0  0  0  0  0  0  0  0
   -0.1165   -2.5031    2.7586 C   0  0  0  0  0  0  0  0  0  0  0  0
   -0.1727   -3.8788    2.8668 C   0  0  0  0  0  0  0  0  0  0  0  0
    0.6202   -4.6981    2.0526 C   0  0  0  0  0  0  0  0  0  0  0  0
    2.8914    1.3736   -0.6002 C   0  0  0  0  0  0  0  0  0  0  0  0
    4.3131    1.3158   -0.5233 O   0  0  0  0  0  0  0  0  0  0  0  0
    4.8792    2.4595   -0.9997 C   0  0  0  0  0  0  0  0  0  0  0  0
    4.4051    3.7333   -0.7639 C   0  0  0  0  0  0  0  0  0  0  0  0
    4.9310    4.8400   -1.3154 N   0  0  0  0  0  0  0  0  0  0  0  0
    6.0278    4.7034   -2.1099 C   0  0  0  0  0  0  0  0  0  0  0  0
    6.6952    3.4498   -2.2892 C   0  0  0  0  0  0  0  0  0  0  0  0
    6.0372    2.3243   -1.7447 C   0  0  0  0  0  0  0  0  0  0  0  0
    7.9996    3.2421   -2.9938 C   0  0  0  0  0  0  0  0  0  0  0  0
    8.9177    4.3341   -3.1174 C   0  0  0  0  0  0  0  0  0  0  0  0
    9.9120    4.4828   -4.1068 C   0  0  0  0  0  0  0  0  0  0  0  0
   10.2516    3.2594   -4.6758 C   0  0  0  0  0  0  0  0  0  0  0  0
    9.5076    2.0854   -4.3328 C   0  0  0  0  0  0  0  0  0  0  0  0
    8.3654    1.9959   -3.5534 C   0  0  0  0  0  0  0  0  0  0  0  0
   10.2079    1.0215   -4.8487 C   0  0  0  0  0  0  0  0  0  0  0  0
   10.0253   -0.4287   -4.6973 C   0  0  0  0  0  0  0  0  0  0  0  0
   11.2421    1.5996   -5.5284 N   0  0  0  0  0  0  0  0  0  0  0  0
   12.0060    1.1400   -6.0185 H   0  0  0  0  0  0  0  0  0  0  0  0
   11.2478    2.9462   -5.5052 N   0  0  0  0  0  0  0  0  0  0  0  0
    6.4305    6.0003   -2.6902 C   0  0  0  0  0  0  0  0  0  0  0  0
    6.1013    7.2243   -2.1317 C   0  0  0  0  0  0  0  0  0  0  0  0
    6.8788    8.2178   -2.6461 O   0  0  0  0  0  0  0  0  0  0  0  0
    7.6116    7.6552   -3.6355 C   0  0  0  0  0  0  0  0  0  0  0  0
    7.1820    6.3667   -3.8471 C   0  0  0  0  0  0  0  0  0  0  0  0
    0.3710   -0.6691   -0.0542 H   0  0  0  0  0  0  0  0  0  0  0  0
    0.6042    0.3469   -1.2497 H   0  0  0  0  0  0  0  0  0  0  0  0
    3.9237   -1.1371   -0.8106 H   0  0  0  0  0  0  0  0  0  0  0  0
    2.5113   -1.1336   -1.8506 H   0  0  0  0  0  0  0  0  0  0  0  0
    3.5283   -3.9353   -1.4262 H   0  0  0  0  0  0  0  0  0  0  0  0
    0.8241   -0.8423    1.8903 H   0  0  0  0  0  0  0  0  0  0  0  0
   -0.7379   -1.8577    3.3750 H   0  0  0  0  0  0  0  0  0  0  0  0
   -0.8268   -4.3180    3.6136 H   0  0  0  0  0  0  0  0  0  0  0  0
    0.5936   -5.7741    2.1730 H   0  0  0  0  0  0  0  0  0  0  0  0
    2.5022    2.1750    0.0374 H   0  0  0  0  0  0  0  0  0  0  0  0
    2.5798    1.5402   -1.6399 H   0  0  0  0  0  0  0  0  0  0  0  0
    3.5587    3.9220   -0.1139 H   0  0  0  0  0  0  0  0  0  0  0  0
    6.4096    1.3131   -1.8875 H   0  0  0  0  0  0  0  0  0  0  0  0
    8.7861    5.1840   -2.4489 H   0  0  0  0  0  0  0  0  0  0  0  0
   10.3870    5.4220   -4.3377 H   0  0  0  0  0  0  0  0  0  0  0  0
    7.8381    1.0672   -3.3879 H   0  0  0  0  0  0  0  0  0  0  0  0
    9.1474   -0.6523   -4.0828 H   0  0  0  0  0  0  0  0  0  0  0  0
   10.8908   -0.8734   -4.1969 H   0  0  0  0  0  0  0  0  0  0  0  0
    9.8787   -0.8943   -5.6734 H   0  0  0  0  0  0  0  0  0  0  0  0
    5.4323    7.5296   -1.3399 H   0  0  0  0  0  0  0  0  0  0  0  0
    8.3748    8.2730   -4.0905 H   0  0  0  0  0  0  0  0  0  0  0  0
    7.5695    5.7231   -4.6223 H   0  0  0  0  0  0  0  0  0  0  0  0
  1  2  1  0  0  0  0
  1 39  1  0  0  0  0
  1 40  1  0  0  0  0
  2  3  1  1  0  0  0
  2  4  1  0  0  0  0
  2 15  1  0  0  0  0
  4  5  1  0  0  0  0
  4 41  1  0  0  0  0
  4 42  1  0  0  0  0
  5  6  2  0  0  0  0
  5 10  1  0  0  0  0
  6  7  1  0  0  0  0
  6 43  1  0  0  0  0
  7  8  1  0  0  0  0
  7  9  1  0  0  0  0
  9 10  2  0  0  0  0
  9 14  1  0  0  0  0
 10 11  1  0  0  0  0
 11 12  2  0  0  0  0
 11 44  1  0  0  0  0
 12 13  1  0  0  0  0
 12 45  1  0  0  0  0
 13 14  2  0  0  0  0
 13 46  1  0  0  0  0
 14 47  1  0  0  0  0
 15 16  1  0  0  0  0
 15 48  1  0  0  0  0
 15 49  1  0  0  0  0
 16 17  1  0  0  0  0
 17 18  2  0  0  0  0
 17 22  1  0  0  0  0
 18 19  1  0  0  0  0
 18 50  1  0  0  0  0
 19 20  2  0  0  0  0
 20 21  1  0  0  0  0
 20 34  1  0  0  0  0
 21 22  2  0  0  0  0
 21 23  1  0  0  0  0
 22 51  1  0  0  0  0
 23 24  1  0  0  0  0
 23 28  2  0  0  0  0
 24 25  2  0  0  0  0
 24 52  1  0  0  0  0
 25 26  1  0  0  0  0
 25 53  1  0  0  0  0
 26 27  1  0  0  0  0
 26 33  2  0  0  0  0
 27 28  1  0  0  0  0
 27 29  2  0  0  0  0
 28 54  1  0  0  0  0
 29 30  1  0  0  0  0
 29 31  1  0  0  0  0
 30 55  1  0  0  0  0
 30 56  1  0  0  0  0
 30 57  1  0  0  0  0
 31 32  1  0  0  0  0
 31 33  1  0  0  0  0
 34 35  2  0  0  0  0
 34 38  1  0  0  0  0
 35 36  1  0  0  0  0
 35 58  1  0  0  0  0
 36 37  1  0  0  0  0
 37 38  2  0  0  0  0
 37 59  1  0  0  0  0
 38 60  1  0  0  0  0
M  END
$$$$
