BAM
 OpenBabel04121316083D

 18 18  0  0  0  0  0  0  0  0999 V2000
    1.0434   -0.0570    0.0364 N   0  0  0  0  0  0  0  0  0  0  0  0
    2.3624   -0.0551    0.0515 C   0  0  0  0  0  0  0  0  0  0  0  0
    3.0376    0.9029   -0.5403 N   0  3  0  0  0  0  0  0  0  0  0  0
    4.0528    0.8704   -0.5631 H   0  0  0  0  0  0  0  0  0  0  0  0
    2.5880    1.6697   -1.0223 H   0  0  0  0  0  0  0  0  0  0  0  0
    3.0806   -1.1659    0.6982 C   0  0  0  0  0  0  0  0  0  0  0  0
    4.2618   -0.9555    1.4304 C   0  0  0  0  0  0  0  0  0  0  0  0
    4.9919   -2.0413    1.9220 C   0  0  0  0  0  0  0  0  0  0  0  0
    4.5015   -3.3365    1.7743 C   0  0  0  0  0  0  0  0  0  0  0  0
    3.2840   -3.5511    1.1367 C   0  0  0  0  0  0  0  0  0  0  0  0
    2.6042   -2.4797    0.5609 C   0  0  0  0  0  0  0  0  0  0  0  0
    0.5028    0.6600   -0.4251 H   0  0  0  0  0  0  0  0  0  0  0  0
    0.5315   -0.7929    0.5102 H   0  0  0  0  0  0  0  0  0  0  0  0
    4.6323    0.0473    1.6349 H   0  0  0  0  0  0  0  0  0  0  0  0
    5.9423   -1.8836    2.4300 H   0  0  0  0  0  0  0  0  0  0  0  0
    5.0668   -4.1826    2.1608 H   0  0  0  0  0  0  0  0  0  0  0  0
    2.8740   -4.5569    1.0717 H   0  0  0  0  0  0  0  0  0  0  0  0
    1.7090   -2.6938   -0.0193 H   0  0  0  0  0  0  0  0  0  0  0  0
  1  2  1  0  0  0  0
  1 12  1  0  0  0  0
  1 13  1  0  0  0  0
  2  3  2  0  0  0  0
  2  6  1  0  0  0  0
  3  4  1  0  0  0  0
  3  5  1  0  0  0  0
  6  7  2  0  0  0  0
  6 11  1  0  0  0  0
  7  8  1  0  0  0  0
  7 14  1  0  0  0  0
  8  9  2  0  0  0  0
  8 15  1  0  0  0  0
  9 10  1  0  0  0  0
  9 16  1  0  0  0  0
 10 11  2  0  0  0  0
 10 17  1  0  0  0  0
 11 18  1  0  0  0  0
M  CHG  1   3   1
M  END
$$$$
