BAV
 OpenBabel04121316083D

 84 85  0  0  1  0  0  0  0  0999 V2000
    2.5416   -0.0390    1.6712 C   0  0  0  0  0  0  0  0  0  0  0  0
    2.3484   -0.0714    0.0850 C   0  0  2  0  0  0  0  0  0  0  0  0
    1.2645   -0.0817   -0.0483 H   0  0  0  0  0  0  0  0  0  0  0  0
    2.8692   -1.4167   -0.7264 C   0  0  0  0  0  0  0  0  0  0  0  0
    3.9113   -2.3418   -0.0407 C   0  0  0  0  0  0  0  0  0  0  0  0
    4.6157   -3.4885   -0.7062 C   0  0  0  0  0  0  0  0  0  0  0  0
    5.8605   -3.8119    0.2008 C   0  0  0  0  0  0  0  0  0  0  0  0
    7.2007   -3.2654   -0.3397 C   0  0  0  0  0  0  0  0  0  0  0  0
    7.7662   -2.0295    0.3655 C   0  0  0  0  0  0  0  0  0  0  0  0
    9.1137   -1.6284   -0.2803 C   0  0  0  0  0  0  0  0  0  0  0  0
    9.8449   -0.4476    0.3296 C   0  0  0  0  0  0  0  0  0  0  0  0
    9.3187    0.7704   -0.3804 C   0  0  0  0  0  0  0  0  0  0  0  0
    9.7574    1.1224   -1.4201 O   0  0  0  0  0  0  0  0  0  0  0  0
    8.1834    1.2722    0.2516 N   0  0  0  0  0  0  0  0  0  0  0  0
    7.2203    2.5262   -0.7390 C   0  0  2  0  0  0  0  0  0  0  0  0
    7.9272    3.2984   -1.0026 H   0  0  0  0  0  0  0  0  0  0  0  0
    5.7865    3.6136   -0.4692 C   0  0  0  0  0  0  0  0  0  0  0  0
    5.7957    4.6069    0.2751 O   0  0  0  0  0  0  0  0  0  0  0  0
    4.5043    3.1393   -0.7814 N   0  0  0  0  0  0  0  0  0  0  0  0
    4.0053    1.9778   -0.0299 C   0  0  1  0  0  0  0  0  0  0  0  0
    3.7356    2.3044    0.9791 H   0  0  0  0  0  0  0  0  0  0  0  0
    2.8237    1.2558   -0.6541 C   0  0  0  0  0  0  0  0  0  0  0  0
    5.1280    1.0415    0.1156 C   0  0  1  0  0  0  0  0  0  0  0  0
    5.4304    0.5959   -0.8445 H   0  0  0  0  0  0  0  0  0  0  0  0
    5.9943    1.6243    1.2124 C   0  0  0  0  0  0  0  0  0  0  0  0
    6.8119    2.8297    1.7321 N   0  0  0  0  0  0  0  0  0  0  0  0
    8.3710    3.1634    1.7503 C   0  0  0  0  0  0  0  0  0  0  0  0
    8.9375    4.2514    0.8318 C   0  0  0  0  0  0  0  0  0  0  0  0
    8.4968    5.5086    1.1690 C   0  0  0  0  0  0  0  0  0  0  0  0
    8.8235    6.5943    0.3885 C   0  0  0  0  0  0  0  0  0  0  0  0
    9.4293    6.4204   -0.8543 C   0  0  0  0  0  0  0  0  0  0  0  0
    9.8838    5.1664   -1.2706 C   0  0  0  0  0  0  0  0  0  0  0  0
    9.7702    4.1180   -0.3315 C   0  0  0  0  0  0  0  0  0  0  0  0
   10.4175    5.0199   -2.7039 C   0  0  0  0  0  0  0  0  0  0  0  0
   11.6790    5.8682   -2.8618 C   0  0  0  0  0  0  0  0  0  0  0  0
   10.7101    3.5886   -3.1674 C   0  0  0  0  0  0  0  0  0  0  0  0
    4.9873   -0.1700    0.8175 O   0  0  0  0  0  0  0  0  0  0  0  0
    6.9264    2.0609   -2.1636 C   0  0  0  0  0  0  0  0  0  0  0  0
    7.9618    0.6065    1.9833 C   0  0  0  0  0  0  0  0  0  0  0  0
    3.5388    0.0983    2.1122 H   0  0  0  0  0  0  0  0  0  0  0  0
    2.2339   -0.9847    2.1159 H   0  0  0  0  0  0  0  0  0  0  0  0
    2.0404    0.8244    2.1074 H   0  0  0  0  0  0  0  0  0  0  0  0
    3.3154   -1.0921   -1.6779 H   0  0  0  0  0  0  0  0  0  0  0  0
    1.9908   -2.0132   -0.9746 H   0  0  0  0  0  0  0  0  0  0  0  0
    3.6385   -2.5470    1.0012 H   0  0  0  0  0  0  0  0  0  0  0  0
    4.8444   -1.8077   -0.0622 H   0  0  0  0  0  0  0  0  0  0  0  0
    4.9501   -3.1548   -1.6973 H   0  0  0  0  0  0  0  0  0  0  0  0
    3.9341   -4.3282   -0.8071 H   0  0  0  0  0  0  0  0  0  0  0  0
    5.9364   -4.8982    0.2671 H   0  0  0  0  0  0  0  0  0  0  0  0
    5.7166   -3.4506    1.2334 H   0  0  0  0  0  0  0  0  0  0  0  0
    7.1066   -3.0188   -1.4013 H   0  0  0  0  0  0  0  0  0  0  0  0
    7.9533   -4.0528   -0.2397 H   0  0  0  0  0  0  0  0  0  0  0  0
    7.8768   -2.2047    1.4429 H   0  0  0  0  0  0  0  0  0  0  0  0
    7.0430   -1.2306    0.2278 H   0  0  0  0  0  0  0  0  0  0  0  0
    8.9058   -1.4031   -1.3340 H   0  0  0  0  0  0  0  0  0  0  0  0
    9.8027   -2.4679   -0.2339 H   0  0  0  0  0  0  0  0  0  0  0  0
   10.9272   -0.4273    0.2606 H   0  0  0  0  0  0  0  0  0  0  0  0
    9.7757   -0.4631    1.3914 H   0  0  0  0  0  0  0  0  0  0  0  0
    4.3164    3.1538   -1.7712 H   0  0  0  0  0  0  0  0  0  0  0  0
    3.0759    1.0391   -1.7019 H   0  0  0  0  0  0  0  0  0  0  0  0
    2.0048    1.9796   -0.6794 H   0  0  0  0  0  0  0  0  0  0  0  0
    6.5685    0.8037    0.8241 H   0  0  0  0  0  0  0  0  0  0  0  0
    5.4814    1.3190    2.1213 H   0  0  0  0  0  0  0  0  0  0  0  0
    6.4066    3.6718    1.3583 H   0  0  0  0  0  0  0  0  0  0  0  0
    9.1614    2.3942    1.7996 H   0  0  0  0  0  0  0  0  0  0  0  0
    8.4418    3.5464    2.7710 H   0  0  0  0  0  0  0  0  0  0  0  0
    7.8485    5.6049    2.0331 H   0  0  0  0  0  0  0  0  0  0  0  0
    8.5402    7.5724    0.7453 H   0  0  0  0  0  0  0  0  0  0  0  0
    9.5350    7.2876   -1.4980 H   0  0  0  0  0  0  0  0  0  0  0  0
   10.1914    3.1596   -0.6176 H   0  0  0  0  0  0  0  0  0  0  0  0
    9.6530    5.4105   -3.3985 H   0  0  0  0  0  0  0  0  0  0  0  0
   12.4441    5.5278   -2.1578 H   0  0  0  0  0  0  0  0  0  0  0  0
   11.4784    6.9244   -2.6543 H   0  0  0  0  0  0  0  0  0  0  0  0
   12.0854    5.8094   -3.8768 H   0  0  0  0  0  0  0  0  0  0  0  0
   11.4561    3.1163   -2.5217 H   0  0  0  0  0  0  0  0  0  0  0  0
   11.1025    3.5599   -4.1919 H   0  0  0  0  0  0  0  0  0  0  0  0
    9.7994    2.9827   -3.1587 H   0  0  0  0  0  0  0  0  0  0  0  0
    4.1560   -0.4835    0.5325 H   0  0  0  0  0  0  0  0  0  0  0  0
    6.1224    1.3524   -2.2060 H   0  0  0  0  0  0  0  0  0  0  0  0
    7.7910    1.6233   -2.6355 H   0  0  0  0  0  0  0  0  0  0  0  0
    6.5514    2.9042   -2.7670 H   0  0  0  0  0  0  0  0  0  0  0  0
    8.6002   -0.1580    2.3889 H   0  0  0  0  0  0  0  0  0  0  0  0
    7.0383    0.0128    2.1636 H   0  0  0  0  0  0  0  0  0  0  0  0
    7.9392    1.3357    2.8119 H   0  0  0  0  0  0  0  0  0  0  0  0
  1 40  1  0  0  0  0
  1 41  1  0  0  0  0
  1 42  1  0  0  0  0
  2  4  1  0  0  0  0
  2 22  1  0  0  0  0
  2  3  1  6  0  0  0
  2  1  1  0  0  0  0
  4  5  1  0  0  0  0
  4 43  1  0  0  0  0
  4 44  1  0  0  0  0
  5  6  1  0  0  0  0
  5 45  1  0  0  0  0
  5 46  1  0  0  0  0
  6  7  1  0  0  0  0
  6 47  1  0  0  0  0
  6 48  1  0  0  0  0
  7  8  1  0  0  0  0
  7 49  1  0  0  0  0
  7 50  1  0  0  0  0
  8  9  1  0  0  0  0
  8 51  1  0  0  0  0
  8 52  1  0  0  0  0
  9 10  1  0  0  0  0
  9 53  1  0  0  0  0
  9 54  1  0  0  0  0
 10 11  1  0  0  0  0
 10 55  1  0  0  0  0
 10 56  1  0  0  0  0
 11 12  1  0  0  0  0
 11 57  1  0  0  0  0
 11 58  1  0  0  0  0
 12 13  2  0  0  0  0
 12 14  1  0  0  0  0
 14 15  1  0  0  0  0
 14 39  1  0  0  0  0
 15 17  1  0  0  0  0
 15 38  1  0  0  0  0
 15 16  1  6  0  0  0
 17 18  2  0  0  0  0
 17 19  1  0  0  0  0
 19 20  1  0  0  0  0
 19 59  1  0  0  0  0
 20 21  1  1  0  0  0
 20 22  1  0  0  0  0
 20 23  1  0  0  0  0
 22 60  1  0  0  0  0
 22 61  1  0  0  0  0
 23 24  1  6  0  0  0
 23 25  1  0  0  0  0
 23 37  1  0  0  0  0
 25 26  1  0  0  0  0
 25 62  1  0  0  0  0
 25 63  1  0  0  0  0
 26 27  1  0  0  0  0
 26 64  1  0  0  0  0
 27 28  1  0  0  0  0
 27 65  1  0  0  0  0
 27 66  1  0  0  0  0
 28 29  2  0  0  0  0
 28 33  1  0  0  0  0
 29 30  1  0  0  0  0
 29 67  1  0  0  0  0
 30 31  2  0  0  0  0
 30 68  1  0  0  0  0
 31 32  1  0  0  0  0
 31 69  1  0  0  0  0
 32 33  2  0  0  0  0
 32 34  1  0  0  0  0
 33 70  1  0  0  0  0
 34 35  1  0  0  0  0
 34 36  1  0  0  0  0
 34 71  1  0  0  0  0
 35 72  1  0  0  0  0
 35 73  1  0  0  0  0
 35 74  1  0  0  0  0
 36 75  1  0  0  0  0
 36 76  1  0  0  0  0
 36 77  1  0  0  0  0
 37 78  1  0  0  0  0
 38 79  1  0  0  0  0
 38 80  1  0  0  0  0
 38 81  1  0  0  0  0
 39 82  1  0  0  0  0
 39 83  1  0  0  0  0
 39 84  1  0  0  0  0
M  END
$$$$
