BB3
 OpenBabel04121316083D

 45 47  0  0  0  0  0  0  0  0999 V2000
    0.9981   -0.0867    0.0391 C   0  0  0  0  0  0  0  0  0  0  0  0
    2.5161   -0.0350    0.0698 C   0  0  0  0  0  0  0  0  0  0  0  0
    3.0024    0.9405   -0.9443 C   0  0  0  0  0  0  0  0  0  0  0  0
    2.7299    2.2673   -0.7086 O   0  0  0  0  0  0  0  0  0  0  0  0
    3.1218    2.9681   -1.8126 C   0  0  0  0  0  0  0  0  0  0  0  0
    3.5779    2.0675   -2.7670 C   0  0  0  0  0  0  0  0  0  0  0  0
    3.6336    0.7617   -2.1683 C   0  0  0  0  0  0  0  0  0  0  0  0
    4.1861   -0.5294   -2.6426 C   0  0  0  0  0  0  0  0  0  0  0  0
    4.0155   -1.5826   -2.0328 O   0  0  0  0  0  0  0  0  0  0  0  0
    4.9913   -0.6245   -3.8994 C   0  0  0  0  0  0  0  0  0  0  0  0
    5.6780    0.4741   -4.4015 C   0  0  0  0  0  0  0  0  0  0  0  0
    6.0836    0.5237   -5.7291 C   0  0  0  0  0  0  0  0  0  0  0  0
    6.5057    2.1906   -6.5391 Br  0  0  0  0  0  0  0  0  0  0  0  0
    6.1453   -0.6478   -6.4561 C   0  0  0  0  0  0  0  0  0  0  0  0
    5.7429   -1.8406   -5.8494 C   0  0  0  0  0  0  0  0  0  0  0  0
    5.1108   -1.8286   -4.5954 C   0  0  0  0  0  0  0  0  0  0  0  0
    6.1105   -3.5049   -6.6697 Br  0  0  0  0  0  0  0  0  0  0  0  0
    6.6662   -0.6261   -7.7189 O   0  0  0  0  0  0  0  0  0  0  0  0
    3.8895    2.6022   -4.0181 C   0  0  0  0  0  0  0  0  0  0  0  0
    4.1939    3.9355   -4.1281 C   0  0  0  0  0  0  0  0  0  0  0  0
    3.6351    4.8138   -3.2359 C   0  0  0  0  0  0  0  0  0  0  0  0
    3.0418    4.3545   -2.0420 C   0  0  0  0  0  0  0  0  0  0  0  0
    3.5213    6.5053   -3.7446 S   0  0  0  0  0  0  0  0  0  0  0  0
    2.1234    6.8155   -3.8905 O   0  0  0  0  0  0  0  0  0  0  0  0
    4.3886    7.2541   -2.8486 O   0  0  0  0  0  0  0  0  0  0  0  0
    4.2199    6.6010   -5.3446 N   0  0  0  0  0  0  0  0  0  0  0  0
    3.5230    5.8566   -6.4401 C   0  0  0  0  0  0  0  0  0  0  0  0
    4.3268    8.0284   -5.7614 C   0  0  0  0  0  0  0  0  0  0  0  0
    0.6276   -0.8690    0.7064 H   0  0  0  0  0  0  0  0  0  0  0  0
    0.6353   -0.3025   -0.9735 H   0  0  0  0  0  0  0  0  0  0  0  0
    0.5723    0.8722    0.3496 H   0  0  0  0  0  0  0  0  0  0  0  0
    2.8791   -1.0423   -0.1485 H   0  0  0  0  0  0  0  0  0  0  0  0
    2.8899    0.2095    1.0681 H   0  0  0  0  0  0  0  0  0  0  0  0
    5.8308    1.3383   -3.7681 H   0  0  0  0  0  0  0  0  0  0  0  0
    4.7583   -2.7542   -4.1417 H   0  0  0  0  0  0  0  0  0  0  0  0
    6.8993    0.3003   -7.9247 H   0  0  0  0  0  0  0  0  0  0  0  0
    4.0383    1.9981   -4.8965 H   0  0  0  0  0  0  0  0  0  0  0  0
    4.7766    4.2583   -4.9802 H   0  0  0  0  0  0  0  0  0  0  0  0
    2.5811    5.0312   -1.3329 H   0  0  0  0  0  0  0  0  0  0  0  0
    3.4878    4.7771   -6.3085 H   0  0  0  0  0  0  0  0  0  0  0  0
    4.0789    5.9972   -7.3763 H   0  0  0  0  0  0  0  0  0  0  0  0
    2.5008    6.2094   -6.5667 H   0  0  0  0  0  0  0  0  0  0  0  0
    4.9022    8.6114   -5.0396 H   0  0  0  0  0  0  0  0  0  0  0  0
    3.3223    8.4513   -5.8670 H   0  0  0  0  0  0  0  0  0  0  0  0
    4.8344    8.1032   -6.7290 H   0  0  0  0  0  0  0  0  0  0  0  0
  1  2  1  0  0  0  0
  1 29  1  0  0  0  0
  1 30  1  0  0  0  0
  1 31  1  0  0  0  0
  2  3  1  0  0  0  0
  2 32  1  0  0  0  0
  2 33  1  0  0  0  0
  3  4  1  0  0  0  0
  3  7  2  0  0  0  0
  4  5  1  0  0  0  0
  5  6  2  0  0  0  0
  5 22  1  0  0  0  0
  6  7  1  0  0  0  0
  6 19  1  0  0  0  0
  7  8  1  0  0  0  0
  8  9  2  0  0  0  0
  8 10  1  0  0  0  0
 10 11  2  0  0  0  0
 10 16  1  0  0  0  0
 11 12  1  0  0  0  0
 11 34  1  0  0  0  0
 12 13  1  0  0  0  0
 12 14  2  0  0  0  0
 14 15  1  0  0  0  0
 14 18  1  0  0  0  0
 15 16  2  0  0  0  0
 15 17  1  0  0  0  0
 16 35  1  0  0  0  0
 18 36  1  0  0  0  0
 19 20  2  0  0  0  0
 19 37  1  0  0  0  0
 20 21  1  0  0  0  0
 20 38  1  0  0  0  0
 21 22  2  0  0  0  0
 21 23  1  0  0  0  0
 22 39  1  0  0  0  0
 23 24  2  0  0  0  0
 23 25  2  0  0  0  0
 23 26  1  0  0  0  0
 26 27  1  0  0  0  0
 26 28  1  0  0  0  0
 27 40  1  0  0  0  0
 27 41  1  0  0  0  0
 27 42  1  0  0  0  0
 28 43  1  0  0  0  0
 28 44  1  0  0  0  0
 28 45  1  0  0  0  0
M  END
$$$$
