BBA
 OpenBabel04121316083D

 56 58  0  0  1  0  0  0  0  0999 V2000
    1.0637    0.1627   -0.1024 O   0  0  0  0  0  0  0  0  0  0  0  0
    2.3047    0.1015   -0.0105 C   0  0  0  0  0  0  0  0  0  0  0  0
    3.0492   -1.2031    0.2665 C   0  0  1  0  0  0  0  0  0  0  0  0
    3.7629   -1.3806   -0.5311 H   0  0  0  0  0  0  0  0  0  0  0  0
    3.9244   -1.1345    1.5132 C   0  0  0  0  0  0  0  0  0  0  0  0
    5.1780   -0.2807    1.2725 C   0  0  0  0  0  0  0  0  0  0  0  0
    4.9748    1.1965    1.6127 C   0  0  0  0  0  0  0  0  0  0  0  0
    3.6198    1.7787    1.2302 C   0  0  0  0  0  0  0  0  0  0  0  0
    3.1209    1.3687   -0.1441 C   0  0  1  0  0  0  0  0  0  0  0  0
    2.4061    2.1551   -0.3930 H   0  0  0  0  0  0  0  0  0  0  0  0
    4.2284    1.2257   -1.1967 C   0  0  0  0  0  0  0  0  0  0  0  0
    3.9339    1.7481   -2.5542 C   0  0  0  0  0  0  0  0  0  0  0  0
    2.6939    2.2779   -2.8829 C   0  0  0  0  0  0  0  0  0  0  0  0
    2.3809    2.5223   -4.1957 C   0  0  0  0  0  0  0  0  0  0  0  0
    3.3487    2.3541   -5.1807 C   0  0  0  0  0  0  0  0  0  0  0  0
    4.6513    1.9692   -4.8291 C   0  0  0  0  0  0  0  0  0  0  0  0
    4.9284    1.6055   -3.5252 C   0  0  0  0  0  0  0  0  0  0  0  0
    2.9758    2.5510   -6.6007 C   0  0  0  0  0  0  0  0  0  0  0  0
    1.7706    2.8114   -6.9987 N   0  0  0  0  0  0  0  0  0  0  0  0
    3.9099    2.4494   -7.5737 N   0  0  0  0  0  0  0  0  0  0  0  0
    2.0900   -2.3903    0.2582 C   0  0  0  0  0  0  0  0  0  0  0  0
    1.8145   -2.9001   -1.1425 C   0  0  0  0  0  0  0  0  0  0  0  0
    2.3872   -2.3514   -2.3027 C   0  0  0  0  0  0  0  0  0  0  0  0
    1.9752   -2.7368   -3.5665 C   0  0  0  0  0  0  0  0  0  0  0  0
    1.0573   -3.7686   -3.7031 C   0  0  0  0  0  0  0  0  0  0  0  0
    0.5984   -4.4306   -2.5533 C   0  0  0  0  0  0  0  0  0  0  0  0
    0.9277   -3.9639   -1.2831 C   0  0  0  0  0  0  0  0  0  0  0  0
    0.5526   -4.1423   -5.0534 C   0  0  0  0  0  0  0  0  0  0  0  0
    0.8592   -3.5100   -6.1436 N   0  0  0  0  0  0  0  0  0  0  0  0
   -0.2894   -5.1936   -5.2067 N   0  0  0  0  0  0  0  0  0  0  0  0
    4.2680   -2.1478    1.7422 H   0  0  0  0  0  0  0  0  0  0  0  0
    3.3541   -0.7680    2.3698 H   0  0  0  0  0  0  0  0  0  0  0  0
    5.5382   -0.4009    0.2422 H   0  0  0  0  0  0  0  0  0  0  0  0
    6.0103   -0.6628    1.8685 H   0  0  0  0  0  0  0  0  0  0  0  0
    5.7686    1.7899    1.1412 H   0  0  0  0  0  0  0  0  0  0  0  0
    5.1027    1.3307    2.6890 H   0  0  0  0  0  0  0  0  0  0  0  0
    3.6807    2.8739    1.2574 H   0  0  0  0  0  0  0  0  0  0  0  0
    2.8688    1.5057    1.9828 H   0  0  0  0  0  0  0  0  0  0  0  0
    5.1600    1.6969   -0.8763 H   0  0  0  0  0  0  0  0  0  0  0  0
    4.4590    0.1770   -1.3967 H   0  0  0  0  0  0  0  0  0  0  0  0
    1.9085    2.4679   -2.1628 H   0  0  0  0  0  0  0  0  0  0  0  0
    1.3610    2.8252   -4.3883 H   0  0  0  0  0  0  0  0  0  0  0  0
    5.4604    1.9120   -5.5458 H   0  0  0  0  0  0  0  0  0  0  0  0
    5.9037    1.1878   -3.2728 H   0  0  0  0  0  0  0  0  0  0  0  0
    1.1005    2.8697   -6.2319 H   0  0  0  0  0  0  0  0  0  0  0  0
    4.8405    2.0989   -7.4226 H   0  0  0  0  0  0  0  0  0  0  0  0
    3.5589    2.4806   -8.5200 H   0  0  0  0  0  0  0  0  0  0  0  0
    2.5128   -3.2185    0.8370 H   0  0  0  0  0  0  0  0  0  0  0  0
    1.1345   -2.1236    0.7306 H   0  0  0  0  0  0  0  0  0  0  0  0
    3.1481   -1.5808   -2.2985 H   0  0  0  0  0  0  0  0  0  0  0  0
    2.3936   -2.1932   -4.4052 H   0  0  0  0  0  0  0  0  0  0  0  0
   -0.0398   -5.3028   -2.6098 H   0  0  0  0  0  0  0  0  0  0  0  0
    0.4764   -4.4232   -0.4060 H   0  0  0  0  0  0  0  0  0  0  0  0
    1.4874   -2.7219   -5.9875 H   0  0  0  0  0  0  0  0  0  0  0  0
   -0.7636   -5.6330   -4.4353 H   0  0  0  0  0  0  0  0  0  0  0  0
   -0.7099   -5.2796   -6.1221 H   0  0  0  0  0  0  0  0  0  0  0  0
  1  2  2  0  0  0  0
  2  3  1  0  0  0  0
  2  9  1  0  0  0  0
  3  5  1  0  0  0  0
  3 21  1  0  0  0  0
  3  4  1  6  0  0  0
  5  6  1  0  0  0  0
  5 31  1  0  0  0  0
  5 32  1  0  0  0  0
  6  7  1  0  0  0  0
  6 33  1  0  0  0  0
  6 34  1  0  0  0  0
  7  8  1  0  0  0  0
  7 35  1  0  0  0  0
  7 36  1  0  0  0  0
  8  9  1  0  0  0  0
  8 37  1  0  0  0  0
  8 38  1  0  0  0  0
  9 11  1  0  0  0  0
  9 10  1  6  0  0  0
 11 12  1  0  0  0  0
 11 39  1  0  0  0  0
 11 40  1  0  0  0  0
 12 13  2  0  0  0  0
 12 17  1  0  0  0  0
 13 14  1  0  0  0  0
 13 41  1  0  0  0  0
 14 15  2  0  0  0  0
 14 42  1  0  0  0  0
 15 16  1  0  0  0  0
 15 18  1  0  0  0  0
 16 17  2  0  0  0  0
 16 43  1  0  0  0  0
 17 44  1  0  0  0  0
 18 19  2  0  0  0  0
 18 20  1  0  0  0  0
 19 45  1  0  0  0  0
 20 46  1  0  0  0  0
 20 47  1  0  0  0  0
 21 22  1  0  0  0  0
 21 48  1  0  0  0  0
 21 49  1  0  0  0  0
 22 23  2  0  0  0  0
 22 27  1  0  0  0  0
 23 24  1  0  0  0  0
 23 50  1  0  0  0  0
 24 25  2  0  0  0  0
 24 51  1  0  0  0  0
 25 26  1  0  0  0  0
 25 28  1  0  0  0  0
 26 27  2  0  0  0  0
 26 52  1  0  0  0  0
 27 53  1  0  0  0  0
 28 29  2  0  0  0  0
 28 30  1  0  0  0  0
 29 54  1  0  0  0  0
 30 55  1  0  0  0  0
 30 56  1  0  0  0  0
M  END
$$$$
