BBL
 OpenBabel04121316083D

 29 29  0  0  1  0  0  0  0  0999 V2000
    1.0464    0.0119    0.0967 C   0  0  0  0  0  0  0  0  0  0  0  0
    2.5705   -0.0050    0.0601 C   0  0  1  0  0  0  0  0  0  0  0  0
    2.9656   -0.6719    0.8359 H   0  0  0  0  0  0  0  0  0  0  0  0
    3.0545   -0.5001   -1.3254 C   0  0  0  0  0  0  0  0  0  0  0  0
    3.6790    0.1785   -2.1303 O   0  0  0  0  0  0  0  0  0  0  0  0
    2.7057   -1.7774   -1.6157 O   0  0  0  0  0  0  0  0  0  0  0  0
    3.1098    1.3188    0.3328 N   0  0  0  0  0  0  0  0  0  0  0  0
    4.4614    1.4981    0.4031 C   0  0  0  0  0  0  0  0  0  0  0  0
    5.2864    0.5914    0.3542 O   0  0  0  0  0  0  0  0  0  0  0  0
    4.7524    2.8040    0.5375 O   0  0  0  0  0  0  0  0  0  0  0  0
    6.1602    3.0867    0.5725 C   0  0  0  0  0  0  0  0  0  0  0  0
    6.3813    4.5684    0.7744 C   0  0  0  0  0  0  0  0  0  0  0  0
    5.3110    5.4720    0.7177 C   0  0  0  0  0  0  0  0  0  0  0  0
    5.5367    6.8445    0.7065 C   0  0  0  0  0  0  0  0  0  0  0  0
    6.8255    7.3342    0.8847 C   0  0  0  0  0  0  0  0  0  0  0  0
    7.8846    6.4494    1.0816 C   0  0  0  0  0  0  0  0  0  0  0  0
    7.6761    5.0728    0.9664 C   0  0  0  0  0  0  0  0  0  0  0  0
    0.6357   -0.9937   -0.0429 H   0  0  0  0  0  0  0  0  0  0  0  0
    0.6430    0.6437   -0.7028 H   0  0  0  0  0  0  0  0  0  0  0  0
    0.6708    0.3974    1.0505 H   0  0  0  0  0  0  0  0  0  0  0  0
    2.2064   -2.2511   -0.9269 H   0  0  0  0  0  0  0  0  0  0  0  0
    2.5273    2.1465    0.3451 H   0  0  0  0  0  0  0  0  0  0  0  0
    6.6123    2.7951   -0.3853 H   0  0  0  0  0  0  0  0  0  0  0  0
    6.6280    2.5330    1.3946 H   0  0  0  0  0  0  0  0  0  0  0  0
    4.2875    5.1117    0.6575 H   0  0  0  0  0  0  0  0  0  0  0  0
    4.7027    7.5235    0.5566 H   0  0  0  0  0  0  0  0  0  0  0  0
    7.0003    8.4058    0.8750 H   0  0  0  0  0  0  0  0  0  0  0  0
    8.8754    6.8354    1.3062 H   0  0  0  0  0  0  0  0  0  0  0  0
    8.5308    4.4010    1.0206 H   0  0  0  0  0  0  0  0  0  0  0  0
  1  2  1  0  0  0  0
  1 18  1  0  0  0  0
  1 19  1  0  0  0  0
  1 20  1  0  0  0  0
  2  3  1  1  0  0  0
  2  4  1  0  0  0  0
  2  7  1  0  0  0  0
  4  5  2  0  0  0  0
  4  6  1  0  0  0  0
  6 21  1  0  0  0  0
  7  8  1  0  0  0  0
  7 22  1  0  0  0  0
  8  9  2  0  0  0  0
  8 10  1  0  0  0  0
 10 11  1  0  0  0  0
 11 12  1  0  0  0  0
 11 23  1  0  0  0  0
 11 24  1  0  0  0  0
 12 13  2  0  0  0  0
 12 17  1  0  0  0  0
 13 14  1  0  0  0  0
 13 25  1  0  0  0  0
 14 15  2  0  0  0  0
 14 26  1  0  0  0  0
 15 16  1  0  0  0  0
 15 27  1  0  0  0  0
 16 17  2  0  0  0  0
 16 28  1  0  0  0  0
 17 29  1  0  0  0  0
M  END
$$$$
