BBT
 OpenBabel04121316083D

 45 47  0  0  1  0  0  0  0  0999 V2000
    6.0292    4.1032    2.7954 O   0  0  0  0  0  0  0  0  0  0  0  0
    5.7102    3.2400    1.7182 C   0  0  0  0  0  0  0  0  0  0  0  0
    4.9738    1.9992    2.2344 C   0  0  0  0  0  0  0  0  0  0  0  0
    4.3641    1.0574    1.1661 C   0  0  2  0  0  0  0  0  0  0  0  0
    3.2712    1.0878    1.2343 H   0  0  0  0  0  0  0  0  0  0  0  0
    4.7642   -0.4003    1.4717 C   0  0  0  0  0  0  0  0  0  0  0  0
    4.5484   -1.3314    0.2849 C   0  0  0  0  0  0  0  0  0  0  0  0
    5.1435   -0.8000   -0.9471 N   0  0  3  0  0  0  0  0  0  0  0  0
    4.4843    0.4519   -1.3145 C   0  0  0  0  0  0  0  0  0  0  0  0
    4.7120    1.5063   -0.2547 C   0  0  0  0  0  0  0  0  0  0  0  0
    6.6698   -0.8697   -1.0389 C   0  0  2  0  0  0  0  0  0  0  0  0
    7.1910    0.2782   -1.9643 C   0  0  0  0  0  0  0  0  0  0  0  0
    7.0823    1.4986   -1.8002 O   0  0  0  0  0  0  0  0  0  0  0  0
    7.9094   -0.0254   -3.0467 N   0  0  0  0  0  0  0  0  0  0  0  0
    8.2367   -1.2877   -3.3458 C   0  0  0  0  0  0  0  0  0  0  0  0
    7.8492   -2.3417   -2.7631 N   0  0  0  0  0  0  0  0  0  0  0  0
    6.9617   -2.2683   -1.7155 C   0  0  0  0  0  0  0  0  0  0  0  0
    6.4681   -3.3058   -1.2705 O   0  0  0  0  0  0  0  0  0  0  0  0
    9.0613   -1.3537   -4.3937 O   0  0  0  0  0  0  0  0  0  0  0  0
    7.5061   -0.7922    0.2763 C   0  0  0  0  0  0  0  0  0  0  0  0
    7.8484    0.4519    0.8416 C   0  0  0  0  0  0  0  0  0  0  0  0
    8.5575    0.5884    2.0278 C   0  0  0  0  0  0  0  0  0  0  0  0
    8.9585   -0.5465    2.7021 C   0  0  0  0  0  0  0  0  0  0  0  0
    8.6019   -1.7991    2.2104 C   0  0  0  0  0  0  0  0  0  0  0  0
    7.9130   -1.9259    0.9994 C   0  0  0  0  0  0  0  0  0  0  0  0
    6.5206    4.8445    2.4000 H   0  0  0  0  0  0  0  0  0  0  0  0
    6.6601    2.9911    1.2426 H   0  0  0  0  0  0  0  0  0  0  0  0
    5.1070    3.7970    0.9975 H   0  0  0  0  0  0  0  0  0  0  0  0
    4.1634    2.3137    2.8977 H   0  0  0  0  0  0  0  0  0  0  0  0
    5.6658    1.4479    2.8858 H   0  0  0  0  0  0  0  0  0  0  0  0
    4.2553   -0.7822    2.3614 H   0  0  0  0  0  0  0  0  0  0  0  0
    5.7982   -0.4370    1.7851 H   0  0  0  0  0  0  0  0  0  0  0  0
    3.4635   -1.4469    0.1452 H   0  0  0  0  0  0  0  0  0  0  0  0
    4.9134   -2.3399    0.5026 H   0  0  0  0  0  0  0  0  0  0  0  0
    3.4031    0.3061   -1.4381 H   0  0  0  0  0  0  0  0  0  0  0  0
    4.8050    0.7959   -2.3059 H   0  0  0  0  0  0  0  0  0  0  0  0
    4.2155    2.4394   -0.5377 H   0  0  0  0  0  0  0  0  0  0  0  0
    5.7521    1.7707   -0.2463 H   0  0  0  0  0  0  0  0  0  0  0  0
    8.2471    0.7999   -3.5097 H   0  0  0  0  0  0  0  0  0  0  0  0
    9.2448   -0.4798   -4.7593 H   0  0  0  0  0  0  0  0  0  0  0  0
    7.5031    1.3735    0.4076 H   0  0  0  0  0  0  0  0  0  0  0  0
    8.7439    1.5837    2.4231 H   0  0  0  0  0  0  0  0  0  0  0  0
    9.5287   -0.4508    3.6187 H   0  0  0  0  0  0  0  0  0  0  0  0
    8.8387   -2.6930    2.7796 H   0  0  0  0  0  0  0  0  0  0  0  0
    7.6852   -2.9376    0.6712 H   0  0  0  0  0  0  0  0  0  0  0  0
  1  2  1  0  0  0  0
  1 26  1  0  0  0  0
  2  3  1  0  0  0  0
  2 27  1  0  0  0  0
  2 28  1  0  0  0  0
  3 29  1  0  0  0  0
  3 30  1  0  0  0  0
  4  6  1  0  0  0  0
  4 10  1  0  0  0  0
  4  5  1  1  0  0  0
  4  3  1  0  0  0  0
  6  7  1  0  0  0  0
  6 31  1  0  0  0  0
  6 32  1  0  0  0  0
  7  8  1  0  0  0  0
  7 33  1  0  0  0  0
  7 34  1  0  0  0  0
  8  9  1  0  0  0  0
  8 11  1  0  0  0  0
  9 10  1  0  0  0  0
  9 35  1  0  0  0  0
  9 36  1  0  0  0  0
 10 37  1  0  0  0  0
 10 38  1  0  0  0  0
 11 12  1  0  0  0  0
 11 17  1  0  0  0  0
 11 20  1  1  0  0  0
 12 13  2  0  0  0  0
 12 14  1  0  0  0  0
 14 15  1  0  0  0  0
 14 39  1  0  0  0  0
 15 16  2  0  0  0  0
 15 19  1  0  0  0  0
 16 17  1  0  0  0  0
 17 18  2  0  0  0  0
 19 40  1  0  0  0  0
 20 21  2  0  0  0  0
 20 25  1  0  0  0  0
 21 22  1  0  0  0  0
 21 41  1  0  0  0  0
 22 23  2  0  0  0  0
 22 42  1  0  0  0  0
 23 24  1  0  0  0  0
 23 43  1  0  0  0  0
 24 25  2  0  0  0  0
 24 44  1  0  0  0  0
 25 45  1  0  0  0  0
M  END
$$$$
