BC3
 OpenBabel04121316083D

 29 31  0  0  0  0  0  0  0  0999 V2000
    1.2359   -0.2819    0.0860 N   0  0  0  0  0  0  0  0  0  0  0  0
    2.5940   -0.2569    0.1764 C   0  0  0  0  0  0  0  0  0  0  0  0
    3.1928    0.8614    0.4465 N   0  0  0  0  0  0  0  0  0  0  0  0
    4.5838    0.9319    0.2666 C   0  0  0  0  0  0  0  0  0  0  0  0
    5.4479    2.0902    0.1117 C   0  0  0  0  0  0  0  0  0  0  0  0
    6.7154    1.5098    0.0090 C   0  0  0  0  0  0  0  0  0  0  0  0
    6.6050    0.1321   -0.0023 N   0  0  0  0  0  0  0  0  0  0  0  0
    7.3784   -0.5176   -0.0572 H   0  0  0  0  0  0  0  0  0  0  0  0
    5.2859   -0.2178    0.0732 C   0  0  0  0  0  0  0  0  0  0  0  0
    4.6526   -1.5074    0.0012 C   0  0  0  0  0  0  0  0  0  0  0  0
    5.2322   -2.5737   -0.0320 O   0  0  0  0  0  0  0  0  0  0  0  0
    3.2677   -1.4223   -0.0302 N   0  0  0  0  0  0  0  0  0  0  0  0
    2.7561   -2.2855   -0.0779 H   0  0  0  0  0  0  0  0  0  0  0  0
    5.2493    3.6353    0.0478 C   0  0  0  0  0  0  0  0  0  0  0  0
    3.8090    4.0786   -0.0114 C   0  0  0  0  0  0  0  0  0  0  0  0
    2.8195    3.2126   -0.4052 C   0  0  0  0  0  0  0  0  0  0  0  0
    1.4792    3.4069   -0.1899 C   0  0  0  0  0  0  0  0  0  0  0  0
    1.1136    4.7097   -0.1445 C   0  0  0  0  0  0  0  0  0  0  0  0
    2.0109    5.7119   -0.0069 N   0  0  0  0  0  0  0  0  0  0  0  0
    3.3299    5.3650    0.1458 C   0  0  0  0  0  0  0  0  0  0  0  0
    0.7447    0.6022    0.1121 H   0  0  0  0  0  0  0  0  0  0  0  0
    0.6628   -1.1025   -0.0282 H   0  0  0  0  0  0  0  0  0  0  0  0
    7.6930    1.9743   -0.0600 H   0  0  0  0  0  0  0  0  0  0  0  0
    5.7534    4.0156   -0.8536 H   0  0  0  0  0  0  0  0  0  0  0  0
    5.7604    4.0759    0.9152 H   0  0  0  0  0  0  0  0  0  0  0  0
    3.1100    2.3351   -0.9527 H   0  0  0  0  0  0  0  0  0  0  0  0
    0.7853    2.5854   -0.2376 H   0  0  0  0  0  0  0  0  0  0  0  0
    0.0737    4.9573   -0.3187 H   0  0  0  0  0  0  0  0  0  0  0  0
    3.9848    6.2085    0.3391 H   0  0  0  0  0  0  0  0  0  0  0  0
  1  2  1  0  0  0  0
  1 21  1  0  0  0  0
  1 22  1  0  0  0  0
  2  3  2  0  0  0  0
  2 12  1  0  0  0  0
  3  4  1  0  0  0  0
  4  5  1  0  0  0  0
  4  9  2  0  0  0  0
  5  6  2  0  0  0  0
  5 14  1  0  0  0  0
  6  7  1  0  0  0  0
  6 23  1  0  0  0  0
  7  8  1  0  0  0  0
  7  9  1  0  0  0  0
  9 10  1  0  0  0  0
 10 11  2  0  0  0  0
 10 12  1  0  0  0  0
 12 13  1  0  0  0  0
 14 15  1  0  0  0  0
 14 24  1  0  0  0  0
 14 25  1  0  0  0  0
 15 16  2  0  0  0  0
 15 20  1  0  0  0  0
 16 17  1  0  0  0  0
 16 26  1  0  0  0  0
 17 18  2  0  0  0  0
 17 27  1  0  0  0  0
 18 19  1  0  0  0  0
 18 28  1  0  0  0  0
 19 20  2  0  0  0  0
 20 29  1  0  0  0  0
M  END
$$$$
