BCE
 OpenBabel04121316083D

 35 36  0  0  0  0  0  0  0  0999 V2000
    1.0625    0.0608   -0.0490 N   0  0  0  0  0  0  0  0  0  0  0  0
    2.2135    0.0608   -0.0490 C   0  0  0  0  0  0  0  0  0  0  0  0
    3.6195    0.0608   -0.0490 C   0  0  0  0  0  0  0  0  0  0  0  0
    4.2251   -0.8741    0.7458 C   0  0  0  0  0  0  0  0  0  0  0  0
    5.5710   -1.1235    0.9154 O   0  0  0  0  0  0  0  0  0  0  0  0
    3.4658   -1.8555    1.6082 C   0  0  0  0  0  0  0  0  0  0  0  0
    4.3193    1.0794   -0.8789 C   0  0  0  0  0  0  0  0  0  0  0  0
    3.6308    1.8736   -1.5397 O   0  0  0  0  0  0  0  0  0  0  0  0
    5.7113    1.0865   -0.9004 N   0  0  0  0  0  0  0  0  0  0  0  0
    6.3801    2.0319   -1.6760 C   0  0  0  0  0  0  0  0  0  0  0  0
    6.1911    3.3700   -1.3839 C   0  0  0  0  0  0  0  0  0  0  0  0
    6.6386    4.3031   -2.2900 C   0  0  0  0  0  0  0  0  0  0  0  0
    7.3808    3.9163   -3.4222 C   0  0  0  0  0  0  0  0  0  0  0  0
    7.7259    2.5632   -3.5793 C   0  0  0  0  0  0  0  0  0  0  0  0
    7.1924    1.6083   -2.7251 C   0  0  0  0  0  0  0  0  0  0  0  0
    7.6344    4.9080   -4.4704 C   0  0  0  0  0  0  0  0  0  0  0  0
    7.7792    6.2650   -4.1439 C   0  0  0  0  0  0  0  0  0  0  0  0
    7.6793    7.2432   -5.1243 C   0  0  0  0  0  0  0  0  0  0  0  0
    7.5887    6.8708   -6.4611 C   0  0  0  0  0  0  0  0  0  0  0  0
    7.6054    5.5254   -6.8171 C   0  0  0  0  0  0  0  0  0  0  0  0
    7.5691    4.5511   -5.8259 C   0  0  0  0  0  0  0  0  0  0  0  0
    6.1506   -0.3987    0.6693 H   0  0  0  0  0  0  0  0  0  0  0  0
    2.3803   -1.7792    1.5484 H   0  0  0  0  0  0  0  0  0  0  0  0
    3.7504   -1.6996    2.6551 H   0  0  0  0  0  0  0  0  0  0  0  0
    3.7474   -2.8725    1.3189 H   0  0  0  0  0  0  0  0  0  0  0  0
    6.2484    0.2457   -0.8048 H   0  0  0  0  0  0  0  0  0  0  0  0
    5.6562    3.6800   -0.4927 H   0  0  0  0  0  0  0  0  0  0  0  0
    6.3229    5.3319   -2.1389 H   0  0  0  0  0  0  0  0  0  0  0  0
    8.3440    2.2381   -4.4134 H   0  0  0  0  0  0  0  0  0  0  0  0
    7.3334    0.5542   -2.9485 H   0  0  0  0  0  0  0  0  0  0  0  0
    7.9057    6.5715   -3.1075 H   0  0  0  0  0  0  0  0  0  0  0  0
    7.6551    8.2893   -4.8360 H   0  0  0  0  0  0  0  0  0  0  0  0
    7.5005    7.6327   -7.2279 H   0  0  0  0  0  0  0  0  0  0  0  0
    7.6002    5.2294   -7.8612 H   0  0  0  0  0  0  0  0  0  0  0  0
    7.4286    3.5137   -6.1226 H   0  0  0  0  0  0  0  0  0  0  0  0
  1  2  3  0  0  0  0
  2  3  1  0  0  0  0
  3  4  2  0  0  0  0
  3  7  1  0  0  0  0
  4  5  1  0  0  0  0
  4  6  1  0  0  0  0
  5 22  1  0  0  0  0
  6 23  1  0  0  0  0
  6 24  1  0  0  0  0
  6 25  1  0  0  0  0
  7  8  2  0  0  0  0
  7  9  1  0  0  0  0
  9 10  1  0  0  0  0
  9 26  1  0  0  0  0
 10 11  2  0  0  0  0
 10 15  1  0  0  0  0
 11 12  1  0  0  0  0
 11 27  1  0  0  0  0
 12 13  2  0  0  0  0
 12 28  1  0  0  0  0
 13 14  1  0  0  0  0
 13 16  1  0  0  0  0
 14 15  2  0  0  0  0
 14 29  1  0  0  0  0
 15 30  1  0  0  0  0
 16 17  2  0  0  0  0
 16 21  1  0  0  0  0
 17 18  1  0  0  0  0
 17 31  1  0  0  0  0
 18 19  2  0  0  0  0
 18 32  1  0  0  0  0
 19 20  1  0  0  0  0
 19 33  1  0  0  0  0
 20 21  2  0  0  0  0
 20 34  1  0  0  0  0
 21 35  1  0  0  0  0
M  END
$$$$
