BCN
 OpenBabel04121316083D

 24 23  0  0  0  0  0  0  0  0999 V2000
    0.8359    0.1040    0.1035 O   0  0  0  0  0  0  0  0  0  0  0  0
    2.2491    0.0211    0.0352 C   0  0  0  0  0  0  0  0  0  0  0  0
    2.9373    1.2839   -0.4983 C   0  0  0  0  0  0  0  0  0  0  0  0
    4.4270    1.2150   -0.5132 N   0  0  0  0  0  0  0  0  0  0  0  0
    4.9590    0.0800   -1.3173 C   0  0  0  0  0  0  0  0  0  0  0  0
    4.7438   -1.3094   -0.6884 C   0  0  0  0  0  0  0  0  0  0  0  0
    4.4745   -1.5404    0.4755 O   0  0  0  0  0  0  0  0  0  0  0  0
    4.9100   -2.3282   -1.5694 O   0  0  0  0  0  0  0  0  0  0  0  0
    4.9586    2.5142   -0.9874 C   0  0  0  0  0  0  0  0  0  0  0  0
    6.4947    2.6143   -0.9807 C   0  0  0  0  0  0  0  0  0  0  0  0
    6.9269    3.8851   -1.4526 O   0  0  0  0  0  0  0  0  0  0  0  0
    0.5701   -0.7895    0.3985 H   0  0  0  0  0  0  0  0  0  0  0  0
    2.4360   -0.8037   -0.6527 H   0  0  0  0  0  0  0  0  0  0  0  0
    2.6149   -0.2021    1.0415 H   0  0  0  0  0  0  0  0  0  0  0  0
    2.6172    2.1249    0.1332 H   0  0  0  0  0  0  0  0  0  0  0  0
    2.5539    1.5009   -1.5039 H   0  0  0  0  0  0  0  0  0  0  0  0
    6.0485    0.1290   -1.3759 H   0  0  0  0  0  0  0  0  0  0  0  0
    4.5520    0.1266   -2.3337 H   0  0  0  0  0  0  0  0  0  0  0  0
    5.2992   -2.0793   -2.4257 H   0  0  0  0  0  0  0  0  0  0  0  0
    4.5791    3.3279   -0.3519 H   0  0  0  0  0  0  0  0  0  0  0  0
    4.5910    2.7385   -1.9984 H   0  0  0  0  0  0  0  0  0  0  0  0
    6.9531    1.8727   -1.6386 H   0  0  0  0  0  0  0  0  0  0  0  0
    6.8839    2.4635    0.0310 H   0  0  0  0  0  0  0  0  0  0  0  0
    6.6252    3.9712   -2.3730 H   0  0  0  0  0  0  0  0  0  0  0  0
  1  2  1  0  0  0  0
  1 12  1  0  0  0  0
  2  3  1  0  0  0  0
  2 13  1  0  0  0  0
  2 14  1  0  0  0  0
  3  4  1  0  0  0  0
  3 15  1  0  0  0  0
  3 16  1  0  0  0  0
  4  5  1  0  0  0  0
  4  9  1  0  0  0  0
  5  6  1  0  0  0  0
  5 17  1  0  0  0  0
  5 18  1  0  0  0  0
  6  7  2  0  0  0  0
  6  8  1  0  0  0  0
  8 19  1  0  0  0  0
  9 10  1  0  0  0  0
  9 20  1  0  0  0  0
  9 21  1  0  0  0  0
 10 11  1  0  0  0  0
 10 22  1  0  0  0  0
 10 23  1  0  0  0  0
 11 24  1  0  0  0  0
M  END
$$$$
