BD1
 OpenBabel04121316083D

 20 21  0  0  1  0  0  0  0  0999 V2000
    0.9547    0.1439   -0.0756 O   0  0  0  0  0  0  0  0  0  0  0  0
    2.3598    0.1086   -0.0501 C   0  0  2  0  0  0  0  0  0  0  0  0
    2.7023   -0.3757    0.8710 H   0  0  0  0  0  0  0  0  0  0  0  0
    2.8576    1.4448   -0.0853 O   0  0  0  0  0  0  0  0  0  0  0  0
    3.4022    1.5809   -1.4045 C   0  0  2  0  0  0  0  0  0  0  0  0
    2.5643    1.8618   -2.0566 H   0  0  0  0  0  0  0  0  0  0  0  0
    3.8825    0.1804   -1.7205 C   0  0  2  0  0  0  0  0  0  0  0  0
    3.9525    0.0159   -2.8016 H   0  0  0  0  0  0  0  0  0  0  0  0
    2.8410   -0.6344   -1.1719 O   0  0  0  0  0  0  0  0  0  0  0  0
    5.2078   -0.1999   -1.0415 C   0  0  0  0  0  0  0  0  0  0  0  0
    6.1948    0.9199   -0.9466 C   0  0  0  0  0  0  0  0  0  0  0  0
    5.8650    2.2022   -1.1318 C   0  0  0  0  0  0  0  0  0  0  0  0
    4.4759    2.6666   -1.4682 C   0  0  0  0  0  0  0  0  0  0  0  0
    0.7188    0.5949    0.7492 H   0  0  0  0  0  0  0  0  0  0  0  0
    5.6520   -1.0365   -1.5937 H   0  0  0  0  0  0  0  0  0  0  0  0
    5.0319   -0.5821   -0.0282 H   0  0  0  0  0  0  0  0  0  0  0  0
    7.2202    0.6569   -0.6939 H   0  0  0  0  0  0  0  0  0  0  0  0
    6.6312    2.9696   -1.0361 H   0  0  0  0  0  0  0  0  0  0  0  0
    4.5144    3.0691   -2.4873 H   0  0  0  0  0  0  0  0  0  0  0  0
    4.2098    3.4892   -0.7946 H   0  0  0  0  0  0  0  0  0  0  0  0
  1  2  1  0  0  0  0
  1 14  1  0  0  0  0
  2  3  1  1  0  0  0
  2  4  1  0  0  0  0
  2  9  1  0  0  0  0
  4  5  1  0  0  0  0
  5  6  1  6  0  0  0
  5  7  1  0  0  0  0
  5 13  1  0  0  0  0
  7  8  1  6  0  0  0
  7  9  1  0  0  0  0
  7 10  1  0  0  0  0
 10 11  1  0  0  0  0
 10 15  1  0  0  0  0
 10 16  1  0  0  0  0
 11 12  2  0  0  0  0
 11 17  1  0  0  0  0
 12 13  1  0  0  0  0
 12 18  1  0  0  0  0
 13 19  1  0  0  0  0
 13 20  1  0  0  0  0
M  END
$$$$
