BD7
 OpenBabel04121316083D

 82 85  0  0  1  0  0  0  0  0999 V2000
   12.5947   -4.3257   -6.0231 O   0  0  0  0  0  0  0  0  0  0  0  0
   12.9342   -3.5787   -4.8635 N   0  0  0  0  0  0  0  0  0  0  0  0
   13.1981   -4.3876   -3.7660 C   0  0  0  0  0  0  0  0  0  0  0  0
   12.8551   -5.5664   -3.7763 O   0  0  0  0  0  0  0  0  0  0  0  0
   13.9804   -3.6315   -2.5745 C   0  0  2  0  0  0  0  0  0  0  0  0
   14.3617   -2.6752   -2.9433 H   0  0  0  0  0  0  0  0  0  0  0  0
   15.2095   -4.4943   -2.1064 C   0  0  0  0  0  0  0  0  0  0  0  0
   16.2081   -4.7421   -3.1919 C   0  0  0  0  0  0  0  0  0  0  0  0
   16.0155   -4.2565   -4.4855 C   0  0  0  0  0  0  0  0  0  0  0  0
   16.6880   -4.7818   -5.5626 C   0  0  0  0  0  0  0  0  0  0  0  0
   17.7650   -5.5991   -5.3040 C   0  0  0  0  0  0  0  0  0  0  0  0
   18.1240   -5.9218   -3.9981 C   0  0  0  0  0  0  0  0  0  0  0  0
   17.2871   -5.5800   -2.9434 C   0  0  0  0  0  0  0  0  0  0  0  0
   18.5097   -6.0874   -6.3307 O   0  0  0  0  0  0  0  0  0  0  0  0
   13.0971   -3.2412   -1.4641 N   0  0  0  0  0  0  0  0  0  0  0  0
   12.6179   -4.3010   -0.7618 C   0  0  0  0  0  0  0  0  0  0  0  0
   13.1048   -5.3421   -1.1442 O   0  0  0  0  0  0  0  0  0  0  0  0
   11.5779   -4.2829    0.3910 C   0  0  1  0  0  0  0  0  0  0  0  0
   11.9729   -3.5364    1.0820 H   0  0  0  0  0  0  0  0  0  0  0  0
   10.2794   -3.7036   -0.2368 N   0  0  0  0  0  0  0  0  0  0  0  0
    9.0249   -4.2728   -0.5550 C   0  0  0  0  0  0  0  0  0  0  0  0
    8.1374   -3.4878   -0.9516 O   0  0  0  0  0  0  0  0  0  0  0  0
    8.5114   -5.7222   -0.1967 C   0  0  2  0  0  0  0  0  0  0  0  0
    7.5330   -5.8052   -0.6734 H   0  0  0  0  0  0  0  0  0  0  0  0
    7.9545   -5.7183    1.2797 C   0  0  0  0  0  0  0  0  0  0  0  0
    7.1849   -4.4500    1.9036 C   0  0  0  0  0  0  0  0  0  0  0  0
    6.3610   -4.5213    3.0249 C   0  0  0  0  0  0  0  0  0  0  0  0
    6.3300   -3.3507    3.7651 N   0  0  0  0  0  0  0  0  0  0  0  0
    7.1016   -2.5045    3.1237 C   0  0  0  0  0  0  0  0  0  0  0  0
    7.5943   -3.0863    1.9559 N   0  0  0  0  0  0  0  0  0  0  0  0
    8.4501   -2.7113    1.5730 H   0  0  0  0  0  0  0  0  0  0  0  0
    9.1840   -7.0082   -0.8461 N   0  0  0  0  0  0  0  0  0  0  0  0
   10.5100   -7.1055   -1.1787 C   0  0  0  0  0  0  0  0  0  0  0  0
   11.1105   -6.0305   -1.0610 O   0  0  0  0  0  0  0  0  0  0  0  0
   11.2415   -8.1815   -1.5083 O   0  0  0  0  0  0  0  0  0  0  0  0
   12.7034   -7.9100   -1.3445 C   0  0  0  0  0  0  0  0  0  0  0  0
   13.4189   -8.8884   -2.1703 C   0  0  0  0  0  0  0  0  0  0  0  0
   13.8936   -8.5276   -3.4430 C   0  0  0  0  0  0  0  0  0  0  0  0
   13.9353   -9.5105   -4.3939 C   0  0  0  0  0  0  0  0  0  0  0  0
   13.7132  -10.8261   -3.9845 C   0  0  0  0  0  0  0  0  0  0  0  0
   13.4727  -11.1648   -2.6435 C   0  0  0  0  0  0  0  0  0  0  0  0
   13.2728  -10.1781   -1.7268 C   0  0  0  0  0  0  0  0  0  0  0  0
   10.4117   -2.3228   -0.6908 C   0  0  0  0  0  0  0  0  0  0  0  0
   11.4333   -5.6916    1.2679 C   0  0  0  0  0  0  0  0  0  0  0  0
   10.8573   -5.7131    2.6614 C   0  0  0  0  0  0  0  0  0  0  0  0
   10.3883   -6.8949    3.3412 C   0  0  0  0  0  0  0  0  0  0  0  0
    9.3016   -6.8224    4.2408 C   0  0  0  0  0  0  0  0  0  0  0  0
    8.8440   -5.5765    4.5986 C   0  0  0  0  0  0  0  0  0  0  0  0
    9.3708   -4.4540    3.9867 C   0  0  0  0  0  0  0  0  0  0  0  0
   10.2444   -4.5206    2.9380 C   0  0  0  0  0  0  0  0  0  0  0  0
   12.7268   -3.7117   -6.7617 H   0  0  0  0  0  0  0  0  0  0  0  0
   13.4218   -2.7040   -4.9939 H   0  0  0  0  0  0  0  0  0  0  0  0
   14.9450   -5.5138   -1.7857 H   0  0  0  0  0  0  0  0  0  0  0  0
   15.6737   -4.0478   -1.2187 H   0  0  0  0  0  0  0  0  0  0  0  0
   15.2985   -3.4895   -4.7064 H   0  0  0  0  0  0  0  0  0  0  0  0
   16.3620   -4.5142   -6.5605 H   0  0  0  0  0  0  0  0  0  0  0  0
   19.0382   -6.4660   -3.8034 H   0  0  0  0  0  0  0  0  0  0  0  0
   17.4644   -5.9706   -1.9431 H   0  0  0  0  0  0  0  0  0  0  0  0
   18.0486   -5.8683   -7.1577 H   0  0  0  0  0  0  0  0  0  0  0  0
   13.1254   -2.3119   -1.0769 H   0  0  0  0  0  0  0  0  0  0  0  0
    8.7400   -5.7669    1.9725 H   0  0  0  0  0  0  0  0  0  0  0  0
    7.5620   -6.7114    1.5625 H   0  0  0  0  0  0  0  0  0  0  0  0
    6.0584   -5.4584    3.4739 H   0  0  0  0  0  0  0  0  0  0  0  0
    7.5545   -1.6042    3.5596 H   0  0  0  0  0  0  0  0  0  0  0  0
    8.5928   -7.7305   -1.2232 H   0  0  0  0  0  0  0  0  0  0  0  0
   13.0171   -7.9415   -0.2887 H   0  0  0  0  0  0  0  0  0  0  0  0
   13.1331   -7.0412   -1.8030 H   0  0  0  0  0  0  0  0  0  0  0  0
   14.0747   -7.4885   -3.7205 H   0  0  0  0  0  0  0  0  0  0  0  0
   14.0913   -9.2399   -5.4334 H   0  0  0  0  0  0  0  0  0  0  0  0
   13.7167  -11.6083   -4.7274 H   0  0  0  0  0  0  0  0  0  0  0  0
   13.3597  -12.1832   -2.3094 H   0  0  0  0  0  0  0  0  0  0  0  0
   12.8668  -10.3382   -0.7309 H   0  0  0  0  0  0  0  0  0  0  0  0
   11.4101   -1.9394   -0.5134 H   0  0  0  0  0  0  0  0  0  0  0  0
    9.7689   -1.7046   -0.0691 H   0  0  0  0  0  0  0  0  0  0  0  0
   10.1669   -2.2096   -1.7556 H   0  0  0  0  0  0  0  0  0  0  0  0
   12.2565   -6.4038    1.1886 H   0  0  0  0  0  0  0  0  0  0  0  0
   10.5547   -6.1548    0.8624 H   0  0  0  0  0  0  0  0  0  0  0  0
   10.7340   -7.8883    3.0619 H   0  0  0  0  0  0  0  0  0  0  0  0
    8.7070   -7.6731    4.5792 H   0  0  0  0  0  0  0  0  0  0  0  0
    7.9023   -5.4289    5.1229 H   0  0  0  0  0  0  0  0  0  0  0  0
    8.7156   -3.6198    3.9991 H   0  0  0  0  0  0  0  0  0  0  0  0
    9.9823   -3.9127    2.0617 H   0  0  0  0  0  0  0  0  0  0  0  0
  1  2  1  0  0  0  0
  1 51  1  0  0  0  0
  2  3  1  0  0  0  0
  2 52  1  0  0  0  0
  3  4  2  0  0  0  0
  5  7  1  0  0  0  0
  5 15  1  0  0  0  0
  5  6  1  6  0  0  0
  5  3  1  0  0  0  0
  7  8  1  0  0  0  0
  7 53  1  0  0  0  0
  7 54  1  0  0  0  0
  8  9  2  0  0  0  0
  8 13  1  0  0  0  0
  9 10  1  0  0  0  0
  9 55  1  0  0  0  0
 10 11  2  0  0  0  0
 10 56  1  0  0  0  0
 11 12  1  0  0  0  0
 11 14  1  0  0  0  0
 12 13  2  0  0  0  0
 12 57  1  0  0  0  0
 13 58  1  0  0  0  0
 14 59  1  0  0  0  0
 15 16  1  0  0  0  0
 15 60  1  0  0  0  0
 16 17  2  0  0  0  0
 16 18  1  0  0  0  0
 18 19  1  1  0  0  0
 18 20  1  0  0  0  0
 18 44  1  0  0  0  0
 20 21  1  0  0  0  0
 20 43  1  0  0  0  0
 21 22  2  0  0  0  0
 23 25  1  0  0  0  0
 23 32  1  0  0  0  0
 23 24  1  6  0  0  0
 23 21  1  0  0  0  0
 25 26  1  0  0  0  0
 25 61  1  0  0  0  0
 25 62  1  0  0  0  0
 26 27  2  0  0  0  0
 26 30  1  0  0  0  0
 27 28  1  0  0  0  0
 27 63  1  0  0  0  0
 28 29  2  0  0  0  0
 29 30  1  0  0  0  0
 29 64  1  0  0  0  0
 30 31  1  0  0  0  0
 32 33  1  0  0  0  0
 32 65  1  0  0  0  0
 33 34  2  0  0  0  0
 33 35  1  0  0  0  0
 35 36  1  0  0  0  0
 36 37  1  0  0  0  0
 36 66  1  0  0  0  0
 36 67  1  0  0  0  0
 37 38  2  0  0  0  0
 37 42  1  0  0  0  0
 38 39  1  0  0  0  0
 38 68  1  0  0  0  0
 39 40  2  0  0  0  0
 39 69  1  0  0  0  0
 40 41  1  0  0  0  0
 40 70  1  0  0  0  0
 41 42  2  0  0  0  0
 41 71  1  0  0  0  0
 42 72  1  0  0  0  0
 43 73  1  0  0  0  0
 43 74  1  0  0  0  0
 43 75  1  0  0  0  0
 44 45  1  0  0  0  0
 44 76  1  0  0  0  0
 44 77  1  0  0  0  0
 45 46  2  0  0  0  0
 45 50  1  0  0  0  0
 46 47  1  0  0  0  0
 46 78  1  0  0  0  0
 47 48  2  0  0  0  0
 47 79  1  0  0  0  0
 48 49  1  0  0  0  0
 48 80  1  0  0  0  0
 49 50  2  0  0  0  0
 49 81  1  0  0  0  0
 50 82  1  0  0  0  0
M  END
$$$$
