BDR
 OpenBabel04121316083D

 20 20  0  0  1  0  0  0  0  0999 V2000
    1.0565   -0.0355    0.0910 O   0  0  0  0  0  0  0  0  0  0  0  0
    2.4776   -0.0645    0.0672 C   0  0  0  0  0  0  0  0  0  0  0  0
    3.0626   -1.4583   -0.2010 C   0  0  1  0  0  0  0  0  0  0  0  0
    3.6723   -1.3908   -1.1130 H   0  0  0  0  0  0  0  0  0  0  0  0
    3.9676   -1.8121    0.8721 O   0  0  0  0  0  0  0  0  0  0  0  0
    4.1609   -3.2146    0.7435 C   0  0  2  0  0  0  0  0  0  0  0  0
    4.9340   -3.4005   -0.0095 H   0  0  0  0  0  0  0  0  0  0  0  0
    2.8120   -3.8056    0.3206 C   0  0  1  0  0  0  0  0  0  0  0  0
    2.2566   -4.1472    1.2013 H   0  0  0  0  0  0  0  0  0  0  0  0
    2.0781   -2.6255   -0.3255 C   0  0  2  0  0  0  0  0  0  0  0  0
    1.1560   -2.4455    0.2361 H   0  0  0  0  0  0  0  0  0  0  0  0
    1.7255   -2.8692   -1.6854 O   0  0  0  0  0  0  0  0  0  0  0  0
    2.9334   -4.9322   -0.5493 O   0  0  0  0  0  0  0  0  0  0  0  0
    4.6224   -3.7650    1.9653 O   0  0  0  0  0  0  0  0  0  0  0  0
    0.7950    0.8955    0.1998 H   0  0  0  0  0  0  0  0  0  0  0  0
    2.8351    0.3312    1.0237 H   0  0  0  0  0  0  0  0  0  0  0  0
    2.8098    0.6241   -0.7180 H   0  0  0  0  0  0  0  0  0  0  0  0
    1.4134   -3.7939   -1.7192 H   0  0  0  0  0  0  0  0  0  0  0  0
    3.5544   -5.5528   -0.1226 H   0  0  0  0  0  0  0  0  0  0  0  0
    3.9383   -3.5808    2.6253 H   0  0  0  0  0  0  0  0  0  0  0  0
  1  2  1  0  0  0  0
  1 15  1  0  0  0  0
  2  3  1  0  0  0  0
  2 16  1  0  0  0  0
  2 17  1  0  0  0  0
  3  4  1  6  0  0  0
  3  5  1  0  0  0  0
  3 10  1  0  0  0  0
  5  6  1  0  0  0  0
  6  8  1  0  0  0  0
  6 14  1  0  0  0  0
  6  7  1  6  0  0  0
  8  9  1  1  0  0  0
  8 10  1  0  0  0  0
  8 13  1  0  0  0  0
 10 11  1  1  0  0  0
 10 12  1  0  0  0  0
 12 18  1  0  0  0  0
 13 19  1  0  0  0  0
 14 20  1  0  0  0  0
M  END
$$$$
