BDY
 OpenBabel04121316083D

 66 70  0  0  1  0  0  0  0  0999 V2000
    1.4099    0.5225   -0.7971 O   0  0  0  0  0  0  0  0  0  0  0  0
    2.5339    0.2097   -0.4661 C   0  0  0  0  0  0  0  0  0  0  0  0
    3.2871   -0.7434   -1.1308 N   0  0  0  0  0  0  0  0  0  0  0  0
    3.6259   -0.3452   -2.4684 C   0  0  0  0  0  0  0  0  0  0  0  0
    3.1971   -1.4853   -3.3638 C   0  0  0  0  0  0  0  0  0  0  0  0
    3.3218   -2.7248   -2.4971 C   0  0  0  0  0  0  0  0  0  0  0  0
    3.1861   -2.2199   -1.0515 C   0  0  2  0  0  0  0  0  0  0  0  0
    4.1398   -2.5225   -0.5995 H   0  0  0  0  0  0  0  0  0  0  0  0
    2.0500   -2.9452   -0.2571 C   0  0  0  0  0  0  0  0  0  0  0  0
    1.8967   -2.6823    1.1941 N   0  0  0  0  0  0  0  0  0  0  0  0
    3.1576   -2.3496    1.8454 C   0  0  0  0  0  0  0  0  0  0  0  0
    2.7911   -1.4628    3.0143 C   0  0  0  0  0  0  0  0  0  0  0  0
    1.5495   -0.7185    2.5558 C   0  0  0  0  0  0  0  0  0  0  0  0
    0.9529   -1.5884    1.4582 C   0  0  0  0  0  0  0  0  0  0  0  0
    3.2774    1.0502    0.5314 C   0  0  0  0  0  0  0  0  0  0  0  0
    2.7111    2.2887    0.8039 C   0  0  0  0  0  0  0  0  0  0  0  0
    3.2921    3.1149    1.7492 C   0  0  0  0  0  0  0  0  0  0  0  0
    4.3346    2.6724    2.5772 C   0  0  0  0  0  0  0  0  0  0  0  0
    4.7538    1.3548    2.4359 C   0  0  0  0  0  0  0  0  0  0  0  0
    4.3520    0.6213    1.3200 C   0  0  0  0  0  0  0  0  0  0  0  0
    5.0223    3.5840    3.4862 C   0  0  0  0  0  0  0  0  0  0  0  0
    4.8151    4.9603    3.4224 C   0  0  0  0  0  0  0  0  0  0  0  0
    5.4655    5.8632    4.1703 N   0  0  0  0  0  0  0  0  0  0  0  0
    6.3554    5.3403    5.0165 C   0  0  0  0  0  0  0  0  0  0  0  0
    6.6040    3.9388    5.0904 C   0  0  0  0  0  0  0  0  0  0  0  0
    5.9513    3.0553    4.3152 N   0  0  0  0  0  0  0  0  0  0  0  0
    7.4899    3.4752    6.0258 N   0  0  0  0  0  0  0  0  0  0  0  0
    7.9931    2.1417    6.1037 C   0  0  0  0  0  0  0  0  0  0  0  0
    9.0722    2.0263    7.1681 C   0  0  0  0  0  0  0  0  0  0  0  0
    9.7040    3.1053    7.8349 C   0  0  0  0  0  0  0  0  0  0  0  0
    9.5016    4.7952    7.4810 Cl  0  0  0  0  0  0  0  0  0  0  0  0
   10.5474    2.8860    8.9222 C   0  0  0  0  0  0  0  0  0  0  0  0
   10.7000    1.6114    9.4358 C   0  0  0  0  0  0  0  0  0  0  0  0
   10.2194    0.5267    8.7151 C   0  0  0  0  0  0  0  0  0  0  0  0
    9.4531    0.7296    7.5652 C   0  0  0  0  0  0  0  0  0  0  0  0
    9.0020   -0.6789    6.6628 Cl  0  0  0  0  0  0  0  0  0  0  0  0
    6.9092    6.2542    5.8893 N   0  0  0  0  0  0  0  0  0  0  0  0
    4.7109   -0.2194   -2.4531 H   0  0  0  0  0  0  0  0  0  0  0  0
    3.1661    0.6085   -2.7548 H   0  0  0  0  0  0  0  0  0  0  0  0
    3.8207   -1.5358   -4.2598 H   0  0  0  0  0  0  0  0  0  0  0  0
    2.1537   -1.3622   -3.6730 H   0  0  0  0  0  0  0  0  0  0  0  0
    4.3159   -3.1707   -2.6326 H   0  0  0  0  0  0  0  0  0  0  0  0
    2.5888   -3.4923   -2.7649 H   0  0  0  0  0  0  0  0  0  0  0  0
    2.2571   -4.0250   -0.3310 H   0  0  0  0  0  0  0  0  0  0  0  0
    1.0879   -2.8193   -0.7695 H   0  0  0  0  0  0  0  0  0  0  0  0
    3.7735   -1.7899    1.1681 H   0  0  0  0  0  0  0  0  0  0  0  0
    3.7773   -3.2067    2.1203 H   0  0  0  0  0  0  0  0  0  0  0  0
    3.6099   -0.8054    3.3144 H   0  0  0  0  0  0  0  0  0  0  0  0
    2.5579   -2.0668    3.8887 H   0  0  0  0  0  0  0  0  0  0  0  0
    1.7562    0.2815    2.1828 H   0  0  0  0  0  0  0  0  0  0  0  0
    0.8682   -0.5413    3.3875 H   0  0  0  0  0  0  0  0  0  0  0  0
    0.7326   -1.0318    0.5541 H   0  0  0  0  0  0  0  0  0  0  0  0
   -0.0233   -1.9598    1.7737 H   0  0  0  0  0  0  0  0  0  0  0  0
    1.8064    2.6198    0.3032 H   0  0  0  0  0  0  0  0  0  0  0  0
    2.8837    4.1153    1.8181 H   0  0  0  0  0  0  0  0  0  0  0  0
    5.3979    0.8913    3.1874 H   0  0  0  0  0  0  0  0  0  0  0  0
    4.8361   -0.3350    1.1943 H   0  0  0  0  0  0  0  0  0  0  0  0
    4.1158    5.4041    2.7300 H   0  0  0  0  0  0  0  0  0  0  0  0
    7.9982    4.1977    6.5013 H   0  0  0  0  0  0  0  0  0  0  0  0
    8.3855    1.7904    5.1420 H   0  0  0  0  0  0  0  0  0  0  0  0
    7.1495    1.5020    6.3975 H   0  0  0  0  0  0  0  0  0  0  0  0
   11.0601    3.7242    9.3886 H   0  0  0  0  0  0  0  0  0  0  0  0
   11.2082    1.4731   10.3837 H   0  0  0  0  0  0  0  0  0  0  0  0
   10.4458   -0.4798    9.0550 H   0  0  0  0  0  0  0  0  0  0  0  0
    6.6929    7.2126    5.6514 H   0  0  0  0  0  0  0  0  0  0  0  0
    7.7406    6.0543    6.4156 H   0  0  0  0  0  0  0  0  0  0  0  0
  1  2  2  0  0  0  0
  2  3  1  0  0  0  0
  2 15  1  0  0  0  0
  3  4  1  0  0  0  0
  3  7  1  0  0  0  0
  4  5  1  0  0  0  0
  4 38  1  0  0  0  0
  4 39  1  0  0  0  0
  5  6  1  0  0  0  0
  5 40  1  0  0  0  0
  5 41  1  0  0  0  0
  6  7  1  0  0  0  0
  6 42  1  0  0  0  0
  6 43  1  0  0  0  0
  7  8  1  1  0  0  0
  7  9  1  0  0  0  0
  9 10  1  0  0  0  0
  9 44  1  0  0  0  0
  9 45  1  0  0  0  0
 10 11  1  0  0  0  0
 10 14  1  0  0  0  0
 11 12  1  0  0  0  0
 11 46  1  0  0  0  0
 11 47  1  0  0  0  0
 12 13  1  0  0  0  0
 12 48  1  0  0  0  0
 12 49  1  0  0  0  0
 13 14  1  0  0  0  0
 13 50  1  0  0  0  0
 13 51  1  0  0  0  0
 14 52  1  0  0  0  0
 14 53  1  0  0  0  0
 15 16  2  0  0  0  0
 15 20  1  0  0  0  0
 16 17  1  0  0  0  0
 16 54  1  0  0  0  0
 17 18  2  0  0  0  0
 17 55  1  0  0  0  0
 18 19  1  0  0  0  0
 18 21  1  0  0  0  0
 19 20  2  0  0  0  0
 19 56  1  0  0  0  0
 20 57  1  0  0  0  0
 21 22  2  0  0  0  0
 21 26  1  0  0  0  0
 22 23  1  0  0  0  0
 22 58  1  0  0  0  0
 23 24  2  0  0  0  0
 24 25  1  0  0  0  0
 24 37  1  0  0  0  0
 25 26  2  0  0  0  0
 25 27  1  0  0  0  0
 27 28  1  0  0  0  0
 27 59  1  0  0  0  0
 28 29  1  0  0  0  0
 28 60  1  0  0  0  0
 28 61  1  0  0  0  0
 29 30  2  0  0  0  0
 29 35  1  0  0  0  0
 30 31  1  0  0  0  0
 30 32  1  0  0  0  0
 32 33  2  0  0  0  0
 32 62  1  0  0  0  0
 33 34  1  0  0  0  0
 33 63  1  0  0  0  0
 34 35  2  0  0  0  0
 34 64  1  0  0  0  0
 35 36  1  0  0  0  0
 37 65  1  0  0  0  0
 37 66  1  0  0  0  0
M  END
$$$$
