BE9
 OpenBabel04121316083D

 34 35  0  0  0  0  0  0  0  0999 V2000
    1.1947    0.0633    0.0055 N   0  0  0  0  0  0  0  0  0  0  0  0
    2.8800    0.0590    0.0210 S   0  0  0  0  0  0  0  0  0  0  0  0
    3.2398   -1.1483   -0.6955 O   0  0  0  0  0  0  0  0  0  0  0  0
    3.2143    1.3601   -0.5088 O   0  0  0  0  0  0  0  0  0  0  0  0
    3.3380   -0.0407    1.5689 N   0  0  0  0  0  0  0  0  0  0  0  0
    4.6082   -0.0721    1.8223 C   0  0  0  0  0  0  0  0  0  0  0  0
    5.1343   -0.1488    3.1018 N   0  0  0  0  0  0  0  0  0  0  0  0
    5.4134    1.0286    3.9274 C   0  0  0  0  0  0  0  0  0  0  0  0
    4.6004    0.9510    5.2280 C   0  0  0  0  0  0  0  0  0  0  0  0
    4.8764   -0.2656    5.9445 O   0  0  0  0  0  0  0  0  0  0  0  0
    4.5514   -1.4104    5.1348 C   0  0  0  0  0  0  0  0  0  0  0  0
    5.3448   -1.4113    3.8171 C   0  0  0  0  0  0  0  0  0  0  0  0
    5.5327   -0.0141    0.7673 O   0  0  0  0  0  0  0  0  0  0  0  0
    6.9037   -0.0451    1.0425 C   0  0  0  0  0  0  0  0  0  0  0  0
    7.5450   -1.2750    1.1399 C   0  0  0  0  0  0  0  0  0  0  0  0
    8.8578   -1.3038    1.5967 C   0  0  0  0  0  0  0  0  0  0  0  0
    9.5467   -0.1064    1.8081 C   0  0  0  0  0  0  0  0  0  0  0  0
    8.9301    1.1207    1.5479 C   0  0  0  0  0  0  0  0  0  0  0  0
    7.5826    1.1575    1.2074 C   0  0  0  0  0  0  0  0  0  0  0  0
    0.8807    0.0683   -0.9662 H   0  0  0  0  0  0  0  0  0  0  0  0
    0.8507    0.8759    0.5120 H   0  0  0  0  0  0  0  0  0  0  0  0
    5.1956    1.9605    3.3974 H   0  0  0  0  0  0  0  0  0  0  0  0
    6.4817    1.0270    4.1829 H   0  0  0  0  0  0  0  0  0  0  0  0
    3.5258    1.0051    5.0224 H   0  0  0  0  0  0  0  0  0  0  0  0
    4.8636    1.7862    5.8851 H   0  0  0  0  0  0  0  0  0  0  0  0
    3.4723   -1.4155    4.9466 H   0  0  0  0  0  0  0  0  0  0  0  0
    4.7947   -2.3028    5.7217 H   0  0  0  0  0  0  0  0  0  0  0  0
    5.0748   -2.2776    3.2061 H   0  0  0  0  0  0  0  0  0  0  0  0
    6.4131   -1.4922    4.0596 H   0  0  0  0  0  0  0  0  0  0  0  0
    7.0171   -2.1912    0.8953 H   0  0  0  0  0  0  0  0  0  0  0  0
    9.3458   -2.2555    1.7864 H   0  0  0  0  0  0  0  0  0  0  0  0
   10.5732   -0.1306    2.1637 H   0  0  0  0  0  0  0  0  0  0  0  0
    9.4970    2.0442    1.6230 H   0  0  0  0  0  0  0  0  0  0  0  0
    7.0629    2.1026    1.0851 H   0  0  0  0  0  0  0  0  0  0  0  0
  1  2  1  0  0  0  0
  1 20  1  0  0  0  0
  1 21  1  0  0  0  0
  2  3  2  0  0  0  0
  2  4  2  0  0  0  0
  2  5  1  0  0  0  0
  5  6  2  0  0  0  0
  6  7  1  0  0  0  0
  6 13  1  0  0  0  0
  7  8  1  0  0  0  0
  7 12  1  0  0  0  0
  8  9  1  0  0  0  0
  8 22  1  0  0  0  0
  8 23  1  0  0  0  0
  9 10  1  0  0  0  0
  9 24  1  0  0  0  0
  9 25  1  0  0  0  0
 10 11  1  0  0  0  0
 11 12  1  0  0  0  0
 11 26  1  0  0  0  0
 11 27  1  0  0  0  0
 12 28  1  0  0  0  0
 12 29  1  0  0  0  0
 13 14  1  0  0  0  0
 14 15  2  0  0  0  0
 14 19  1  0  0  0  0
 15 16  1  0  0  0  0
 15 30  1  0  0  0  0
 16 17  2  0  0  0  0
 16 31  1  0  0  0  0
 17 18  1  0  0  0  0
 17 32  1  0  0  0  0
 18 19  2  0  0  0  0
 18 33  1  0  0  0  0
 19 34  1  0  0  0  0
M  END
$$$$
