BEA
 OpenBabel04121316083D

 21 23  0  0  0  0  0  0  0  0999 V2000
    0.8748    0.0121   -0.0910 C   0  0  0  0  0  0  0  0  0  0  0  0
    2.3628   -0.0374   -0.0913 C   0  0  0  0  0  0  0  0  0  0  0  0
    3.1117    1.1475   -0.0910 C   0  0  0  0  0  0  0  0  0  0  0  0
    4.5187    1.1235   -0.0910 C   0  0  0  0  0  0  0  0  0  0  0  0
    5.2228   -0.0889   -0.0910 C   0  0  0  0  0  0  0  0  0  0  0  0
    4.4966   -1.2703   -0.0912 C   0  0  0  0  0  0  0  0  0  0  0  0
    3.0866   -1.2136   -0.0916 C   0  0  0  0  0  0  0  0  0  0  0  0
    2.5516   -2.5424   -0.0913 N   0  0  0  0  0  0  0  0  0  0  0  0
    1.3630   -3.2091   -0.0914 C   0  0  0  0  0  0  0  0  0  0  0  0
    1.5122   -4.4929   -0.0894 N   0  0  0  0  0  0  0  0  0  0  0  0
    2.8854   -4.6725   -0.0877 N   0  3  0  0  0  0  0  0  0  0  0  0
    3.3143   -5.5929   -0.0844 H   0  0  0  0  0  0  0  0  0  0  0  0
    3.4763   -3.4879   -0.0900 C   0  0  0  0  0  0  0  0  0  0  0  0
    5.1388   -2.9601   -0.0901 S   0  0  0  0  0  0  0  0  0  0  0  0
    0.5051    1.0412   -0.0909 H   0  0  0  0  0  0  0  0  0  0  0  0
    0.4880   -0.4806    0.8061 H   0  0  0  0  0  0  0  0  0  0  0  0
    0.4876   -0.4805   -0.9880 H   0  0  0  0  0  0  0  0  0  0  0  0
    2.6067    2.1152   -0.0908 H   0  0  0  0  0  0  0  0  0  0  0  0
    5.0610    2.0708   -0.0908 H   0  0  0  0  0  0  0  0  0  0  0  0
    6.3097   -0.0767   -0.0908 H   0  0  0  0  0  0  0  0  0  0  0  0
    0.4254   -2.6755   -0.0925 H   0  0  0  0  0  0  0  0  0  0  0  0
  1  2  1  0  0  0  0
  1 15  1  0  0  0  0
  1 16  1  0  0  0  0
  1 17  1  0  0  0  0
  2  3  2  0  0  0  0
  2  7  1  0  0  0  0
  3  4  1  0  0  0  0
  3 18  1  0  0  0  0
  4  5  2  0  0  0  0
  4 19  1  0  0  0  0
  5  6  1  0  0  0  0
  5 20  1  0  0  0  0
  6  7  2  0  0  0  0
  6 14  1  0  0  0  0
  7  8  1  0  0  0  0
  8  9  1  0  0  0  0
  8 13  1  0  0  0  0
  9 10  2  0  0  0  0
  9 21  1  0  0  0  0
 10 11  1  0  0  0  0
 11 12  1  0  0  0  0
 11 13  2  0  0  0  0
 13 14  1  0  0  0  0
M  CHG  1  11   1
M  END
$$$$
