BEH
 OpenBabel04121316083D

 83 87  0  0  1  0  0  0  0  0999 V2000
    2.5737   -0.5177    3.9357 O   0  0  0  0  0  0  0  0  0  0  0  0
    2.5036   -1.7301    3.7437 C   0  0  0  0  0  0  0  0  0  0  0  0
    3.6312   -2.5532    3.2688 C   0  0  1  0  0  0  0  0  0  0  0  0
    3.8797   -3.2724    4.0095 H   0  0  0  0  0  0  0  0  0  0  0  0
    3.4785   -3.2329    1.8504 C   0  0  1  0  0  0  0  0  0  0  0  0
    3.4699   -2.3966    1.1563 H   0  0  0  0  0  0  0  0  0  0  0  0
    4.4839   -4.3677    1.4193 C   0  0  2  0  0  0  0  0  0  0  0  0
    5.0559   -4.7219    2.2852 H   0  0  0  0  0  0  0  0  0  0  0  0
    5.3717   -3.8347    0.3096 C   0  0  2  0  0  0  0  0  0  0  0  0
    4.8133   -3.1532   -0.3682 H   0  0  0  0  0  0  0  0  0  0  0  0
    6.2140   -4.7815   -0.4577 C   0  0  0  0  0  0  0  0  0  0  0  0
    7.4381   -4.7721   -0.5631 O   0  0  0  0  0  0  0  0  0  0  0  0
    5.4875   -5.7629   -1.0029 N   0  0  0  0  0  0  0  0  0  0  0  0
    6.2173   -6.7600   -1.6777 C   0  0  0  0  0  0  0  0  0  0  0  0
    5.2728   -7.7124   -2.2876 C   0  0  0  0  0  0  0  0  0  0  0  0
    5.4364   -9.0705   -2.0467 C   0  0  0  0  0  0  0  0  0  0  0  0
    4.7839   -9.9811   -2.8552 C   0  0  0  0  0  0  0  0  0  0  0  0
    3.7914   -9.5418   -3.7185 C   0  0  0  0  0  0  0  0  0  0  0  0
    3.4480   -8.1948   -3.7597 C   0  0  0  0  0  0  0  0  0  0  0  0
    4.2606   -7.2646   -3.1369 C   0  0  0  0  0  0  0  0  0  0  0  0
    6.4522   -3.1952    0.8841 O   0  0  0  0  0  0  0  0  0  0  0  0
    7.4623   -3.7904    1.8602 C   0  0  0  0  0  0  0  0  0  0  0  0
    8.5707   -2.6413    2.6410 C   0  0  0  0  0  0  0  0  0  0  0  0
    8.2280   -0.8189    2.4949 C   0  0  0  0  0  0  0  0  0  0  0  0
    8.5445    0.2828    2.6116 C   0  0  0  0  0  0  0  0  0  0  0  0
    9.7706   -1.0316    3.4401 C   0  0  0  0  0  0  0  0  0  0  0  0
   10.3261   -2.3227    3.8208 C   0  0  0  0  0  0  0  0  0  0  0  0
    9.6190   -3.2512    3.2351 C   0  0  0  0  0  0  0  0  0  0  0  0
    3.8283   -5.5355    0.9456 O   0  0  0  0  0  0  0  0  0  0  0  0
    2.2471   -3.8626    1.6214 O   0  0  0  0  0  0  0  0  0  0  0  0
    4.6788   -1.6263    3.4083 O   0  0  0  0  0  0  0  0  0  0  0  0
    5.7351   -2.4587    3.2659 C   0  0  0  0  0  0  0  0  0  0  0  0
    6.7687   -1.6109    2.7735 C   0  0  0  0  0  0  0  0  0  0  0  0
    7.7751   -1.5495    1.0194 C   0  0  0  0  0  0  0  0  0  0  0  0
    9.5415   -0.6533    1.0521 C   0  0  0  0  0  0  0  0  0  0  0  0
   10.2822    0.5265    2.4790 C   0  0  0  0  0  0  0  0  0  0  0  0
    9.1996    0.5817    4.2183 C   0  0  0  0  0  0  0  0  0  0  0  0
    7.5666   -0.5800    4.2789 C   0  0  0  0  0  0  0  0  0  0  0  0
    1.3546   -2.4249    3.9453 N   0  0  0  0  0  0  0  0  0  0  0  0
    1.1574   -3.8744    4.0385 C   0  0  2  0  0  0  0  0  0  0  0  0
    1.6442   -4.4528    3.2849 H   0  0  0  0  0  0  0  0  0  0  0  0
   -0.3456   -4.2979    3.9161 C   0  0  2  0  0  0  0  0  0  0  0  0
   -0.6515   -4.7641    2.9598 H   0  0  0  0  0  0  0  0  0  0  0  0
   -1.2627   -3.2102    4.1273 O   0  0  0  0  0  0  0  0  0  0  0  0
   -0.5001   -5.2984    5.0494 C   0  0  0  0  0  0  0  0  0  0  0  0
    0.8288   -5.4493    5.6932 C   0  0  0  0  0  0  0  0  0  0  0  0
    1.7913   -4.6213    5.1770 C   0  0  0  0  0  0  0  0  0  0  0  0
    3.0959   -4.7845    5.6446 C   0  0  0  0  0  0  0  0  0  0  0  0
    3.3723   -5.6320    6.7121 C   0  0  0  0  0  0  0  0  0  0  0  0
    2.3536   -6.3746    7.2758 C   0  0  0  0  0  0  0  0  0  0  0  0
    1.0796   -6.2985    6.7479 C   0  0  0  0  0  0  0  0  0  0  0  0
    4.4745   -5.6802   -1.0324 H   0  0  0  0  0  0  0  0  0  0  0  0
    6.8707   -7.2438   -0.9401 H   0  0  0  0  0  0  0  0  0  0  0  0
    6.8546   -6.2852   -2.4331 H   0  0  0  0  0  0  0  0  0  0  0  0
    6.1044   -9.4145   -1.2644 H   0  0  0  0  0  0  0  0  0  0  0  0
    5.0380  -11.0327   -2.8110 H   0  0  0  0  0  0  0  0  0  0  0  0
    3.2783  -10.2616   -4.3449 H   0  0  0  0  0  0  0  0  0  0  0  0
    2.5694   -7.8734   -4.3032 H   0  0  0  0  0  0  0  0  0  0  0  0
    4.1117   -6.1997   -3.3084 H   0  0  0  0  0  0  0  0  0  0  0  0
    8.1009   -4.4860    1.3573 H   0  0  0  0  0  0  0  0  0  0  0  0
    6.9186   -4.3166    2.6454 H   0  0  0  0  0  0  0  0  0  0  0  0
    7.0443   -0.1531    2.0384 H   0  0  0  0  0  0  0  0  0  0  0  0
    8.3471    1.3331    2.5508 H   0  0  0  0  0  0  0  0  0  0  0  0
   10.7356   -0.4687    4.0607 H   0  0  0  0  0  0  0  0  0  0  0  0
   11.2204   -2.3923    4.4299 H   0  0  0  0  0  0  0  0  0  0  0  0
    9.7931   -4.2838    3.1364 H   0  0  0  0  0  0  0  0  0  0  0  0
    4.5533   -6.1499    0.7309 H   0  0  0  0  0  0  0  0  0  0  0  0
    1.6002   -3.2201    1.9257 H   0  0  0  0  0  0  0  0  0  0  0  0
    5.4900   -2.9153    2.3842 H   0  0  0  0  0  0  0  0  0  0  0  0
    6.0260   -3.1933    4.0283 H   0  0  0  0  0  0  0  0  0  0  0  0
    7.7442   -2.1604    0.0787 H   0  0  0  0  0  0  0  0  0  0  0  0
   10.2460   -1.2701    0.4364 H   0  0  0  0  0  0  0  0  0  0  0  0
   11.3792    0.4437    2.4168 H   0  0  0  0  0  0  0  0  0  0  0  0
    9.1778    1.4988    4.7685 H   0  0  0  0  0  0  0  0  0  0  0  0
    6.8508   -0.5730    5.1092 H   0  0  0  0  0  0  0  0  0  0  0  0
    0.6116   -1.8153    4.2574 H   0  0  0  0  0  0  0  0  0  0  0  0
   -1.3516   -2.7087    3.2972 H   0  0  0  0  0  0  0  0  0  0  0  0
   -0.7896   -6.2820    4.6776 H   0  0  0  0  0  0  0  0  0  0  0  0
   -1.1451   -4.8877    5.8184 H   0  0  0  0  0  0  0  0  0  0  0  0
    3.9830   -4.3083    5.2779 H   0  0  0  0  0  0  0  0  0  0  0  0
    4.3809   -5.6874    7.1107 H   0  0  0  0  0  0  0  0  0  0  0  0
    2.5392   -7.0154    8.1254 H   0  0  0  0  0  0  0  0  0  0  0  0
    0.2684   -6.8690    7.1721 H   0  0  0  0  0  0  0  0  0  0  0  0
  1  2  2  0  0  0  0
  2  3  1  0  0  0  0
  2 39  1  0  0  0  0
  3  4  1  1  0  0  0
  3  5  1  0  0  0  0
  3 31  1  0  0  0  0
  5  6  1  6  0  0  0
  5 30  1  0  0  0  0
  7 29  1  0  0  0  0
  7  8  1  1  0  0  0
  7  5  1  0  0  0  0
  9 11  1  0  0  0  0
  9 21  1  0  0  0  0
  9 10  1  6  0  0  0
  9  7  1  0  0  0  0
 11 12  2  0  0  0  0
 11 13  1  0  0  0  0
 13 14  1  0  0  0  0
 13 52  1  0  0  0  0
 14 15  1  0  0  0  0
 14 53  1  0  0  0  0
 14 54  1  0  0  0  0
 15 16  2  0  0  0  0
 15 20  1  0  0  0  0
 16 17  1  0  0  0  0
 16 55  1  0  0  0  0
 17 18  2  0  0  0  0
 17 56  1  0  0  0  0
 18 19  1  0  0  0  0
 18 57  1  0  0  0  0
 19 20  2  0  0  0  0
 19 58  1  0  0  0  0
 20 59  1  0  0  0  0
 21 22  1  0  0  0  0
 22 23  1  0  0  0  0
 22 60  1  0  0  0  0
 22 61  1  0  0  0  0
 23 24  2  0  0  0  0
 23 28  1  0  0  0  0
 24 25  1  0  0  0  0
 24 62  1  0  0  0  0
 25 26  2  0  0  0  0
 25 63  1  0  0  0  0
 26 27  1  0  0  0  0
 26 64  1  0  0  0  0
 27 28  2  0  0  0  0
 27 65  1  0  0  0  0
 28 66  1  0  0  0  0
 29 67  1  0  0  0  0
 30 68  1  0  0  0  0
 31 32  1  0  0  0  0
 32 33  1  0  0  0  0
 32 69  1  0  0  0  0
 32 70  1  0  0  0  0
 33 34  2  0  0  0  0
 33 38  1  0  0  0  0
 34 35  1  0  0  0  0
 34 71  1  0  0  0  0
 35 36  2  0  0  0  0
 35 72  1  0  0  0  0
 36 37  1  0  0  0  0
 36 73  1  0  0  0  0
 37 38  2  0  0  0  0
 37 74  1  0  0  0  0
 38 75  1  0  0  0  0
 39 40  1  0  0  0  0
 39 76  1  0  0  0  0
 40 41  1  6  0  0  0
 40 42  1  0  0  0  0
 40 47  1  0  0  0  0
 42 43  1  6  0  0  0
 42 44  1  0  0  0  0
 42 45  1  0  0  0  0
 44 77  1  0  0  0  0
 45 46  1  0  0  0  0
 45 78  1  0  0  0  0
 45 79  1  0  0  0  0
 46 47  2  0  0  0  0
 46 51  1  0  0  0  0
 47 48  1  0  0  0  0
 48 49  2  0  0  0  0
 48 80  1  0  0  0  0
 49 50  1  0  0  0  0
 49 81  1  0  0  0  0
 50 51  2  0  0  0  0
 50 82  1  0  0  0  0
 51 83  1  0  0  0  0
M  END
$$$$
