BEK
 OpenBabel04121316083D

 20 20  0  0  0  0  0  0  0  0999 V2000
    1.0143    0.0359   -0.1059 C   0  0  0  0  0  0  0  0  0  0  0  0
    2.4419    0.0852   -0.1502 O   0  0  0  0  0  0  0  0  0  0  0  0
    3.0086   -0.7693    0.7553 C   0  0  0  0  0  0  0  0  0  0  0  0
    3.8798   -0.2492    1.7090 C   0  0  0  0  0  0  0  0  0  0  0  0
    4.1353    1.0672    1.7396 F   0  0  0  0  0  0  0  0  0  0  0  0
    4.4717   -1.0798    2.6585 C   0  0  0  0  0  0  0  0  0  0  0  0
    5.2757   -0.5188    3.5729 F   0  0  0  0  0  0  0  0  0  0  0  0
    4.2165   -2.4541    2.6578 C   0  0  0  0  0  0  0  0  0  0  0  0
    3.3755   -2.9745    1.6719 C   0  0  0  0  0  0  0  0  0  0  0  0
    2.7910   -2.1434    0.7238 C   0  0  0  0  0  0  0  0  0  0  0  0
    2.0182   -2.6922   -0.2247 F   0  0  0  0  0  0  0  0  0  0  0  0
    3.0974   -4.2871    1.6122 F   0  0  0  0  0  0  0  0  0  0  0  0
    4.8337   -3.3143    3.6915 C   0  0  0  0  0  0  0  0  0  0  0  0
    5.5691   -2.8671    4.5618 O   0  0  0  0  0  0  0  0  0  0  0  0
    4.5560   -4.6500    3.6597 N   0  0  0  0  0  0  0  0  0  0  0  0
    0.6321    0.7417   -0.8477 H   0  0  0  0  0  0  0  0  0  0  0  0
    0.6499    0.3395    0.8818 H   0  0  0  0  0  0  0  0  0  0  0  0
    0.6207   -0.9516   -0.3631 H   0  0  0  0  0  0  0  0  0  0  0  0
    3.9581   -5.0868    2.9678 H   0  0  0  0  0  0  0  0  0  0  0  0
    4.9819   -5.2363    4.3655 H   0  0  0  0  0  0  0  0  0  0  0  0
  1  2  1  0  0  0  0
  1 16  1  0  0  0  0
  1 17  1  0  0  0  0
  1 18  1  0  0  0  0
  2  3  1  0  0  0  0
  3  4  2  0  0  0  0
  3 10  1  0  0  0  0
  4  5  1  0  0  0  0
  4  6  1  0  0  0  0
  6  7  1  0  0  0  0
  6  8  2  0  0  0  0
  8  9  1  0  0  0  0
  8 13  1  0  0  0  0
  9 10  2  0  0  0  0
  9 12  1  0  0  0  0
 10 11  1  0  0  0  0
 13 14  2  0  0  0  0
 13 15  1  0  0  0  0
 15 19  1  0  0  0  0
 15 20  1  0  0  0  0
M  END
$$$$
