BER
 OpenBabel04121316083D

 43 47  0  0  0  0  0  0  0  0999 V2000
    0.8936    0.2082   -0.1204 C   0  0  0  0  0  0  0  0  0  0  0  0
    2.2799   -0.1031    0.0881 O   0  0  0  0  0  0  0  0  0  0  0  0
    2.8854   -0.8595   -0.8919 C   0  0  0  0  0  0  0  0  0  0  0  0
    3.9994   -0.3870   -1.6029 C   0  0  0  0  0  0  0  0  0  0  0  0
    4.6065    0.8353   -1.4998 O   0  0  0  0  0  0  0  0  0  0  0  0
    4.0511    1.7638   -0.5801 C   0  0  0  0  0  0  0  0  0  0  0  0
    4.6215   -1.2287   -2.5432 C   0  0  0  0  0  0  0  0  0  0  0  0
    4.1358   -2.5126   -2.7977 C   0  0  0  0  0  0  0  0  0  0  0  0
    3.0405   -2.9990   -2.0784 C   0  0  0  0  0  0  0  0  0  0  0  0
    2.4635   -2.1828   -1.0852 C   0  0  0  0  0  0  0  0  0  0  0  0
    1.4914   -2.7421   -0.2789 C   0  0  0  0  0  0  0  0  0  0  0  0
    0.9320   -3.9239   -0.5392 N   0  3  0  0  0  0  0  0  0  0  0  0
   -0.2927   -4.2799    0.2218 C   0  0  0  0  0  0  0  0  0  0  0  0
   -1.2135   -5.1111   -0.6553 C   0  0  0  0  0  0  0  0  0  0  0  0
   -0.4226   -6.3049   -1.1137 C   0  0  0  0  0  0  0  0  0  0  0  0
    0.9390   -6.0991   -1.4750 C   0  0  0  0  0  0  0  0  0  0  0  0
    1.4807   -4.7472   -1.4650 C   0  0  0  0  0  0  0  0  0  0  0  0
    2.5328   -4.2865   -2.2637 C   0  0  0  0  0  0  0  0  0  0  0  0
    1.7541   -7.2056   -1.7473 C   0  0  0  0  0  0  0  0  0  0  0  0
    1.1777   -8.4521   -1.7066 C   0  0  0  0  0  0  0  0  0  0  0  0
   -0.1561   -8.6322   -1.4281 C   0  0  0  0  0  0  0  0  0  0  0  0
   -0.9904   -7.5796   -1.1317 C   0  0  0  0  0  0  0  0  0  0  0  0
   -0.5094   -9.9428   -1.4422 O   0  0  0  0  0  0  0  0  0  0  0  0
    0.7854  -10.5662   -1.5835 C   0  0  0  0  0  0  0  0  0  0  0  0
    1.8309   -9.6250   -1.9074 O   0  0  0  0  0  0  0  0  0  0  0  0
    0.6290    1.0086    0.5749 H   0  0  0  0  0  0  0  0  0  0  0  0
    0.2317   -0.6197    0.1475 H   0  0  0  0  0  0  0  0  0  0  0  0
    0.6784    0.5144   -1.1466 H   0  0  0  0  0  0  0  0  0  0  0  0
    4.6317    2.6880   -0.6235 H   0  0  0  0  0  0  0  0  0  0  0  0
    4.1197    1.3835    0.4444 H   0  0  0  0  0  0  0  0  0  0  0  0
    3.0232    2.0147   -0.8606 H   0  0  0  0  0  0  0  0  0  0  0  0
    5.5040   -0.8785   -3.0809 H   0  0  0  0  0  0  0  0  0  0  0  0
    4.6515   -3.1343   -3.5316 H   0  0  0  0  0  0  0  0  0  0  0  0
    1.1315   -2.2569    0.6199 H   0  0  0  0  0  0  0  0  0  0  0  0
   -0.8019   -3.3508    0.5098 H   0  0  0  0  0  0  0  0  0  0  0  0
    0.0464   -4.7992    1.1245 H   0  0  0  0  0  0  0  0  0  0  0  0
   -1.5466   -4.5375   -1.5287 H   0  0  0  0  0  0  0  0  0  0  0  0
   -2.0968   -5.4040   -0.0786 H   0  0  0  0  0  0  0  0  0  0  0  0
    2.9559   -4.9314   -3.0348 H   0  0  0  0  0  0  0  0  0  0  0  0
    2.8191   -7.1149   -1.9408 H   0  0  0  0  0  0  0  0  0  0  0  0
   -2.0319   -7.7533   -0.8822 H   0  0  0  0  0  0  0  0  0  0  0  0
    0.7371  -11.3298   -2.3658 H   0  0  0  0  0  0  0  0  0  0  0  0
    1.0381  -11.0437   -0.6294 H   0  0  0  0  0  0  0  0  0  0  0  0
  1  2  1  0  0  0  0
  1 26  1  0  0  0  0
  1 27  1  0  0  0  0
  1 28  1  0  0  0  0
  2  3  1  0  0  0  0
  3  4  2  0  0  0  0
  3 10  1  0  0  0  0
  4  5  1  0  0  0  0
  4  7  1  0  0  0  0
  5  6  1  0  0  0  0
  6 29  1  0  0  0  0
  6 30  1  0  0  0  0
  6 31  1  0  0  0  0
  7  8  2  0  0  0  0
  7 32  1  0  0  0  0
  8  9  1  0  0  0  0
  8 33  1  0  0  0  0
  9 10  2  0  0  0  0
  9 18  1  0  0  0  0
 10 11  1  0  0  0  0
 11 12  2  0  0  0  0
 11 34  1  0  0  0  0
 12 13  1  0  0  0  0
 12 17  1  0  0  0  0
 13 14  1  0  0  0  0
 13 35  1  0  0  0  0
 13 36  1  0  0  0  0
 14 15  1  0  0  0  0
 14 37  1  0  0  0  0
 14 38  1  0  0  0  0
 15 16  2  0  0  0  0
 15 22  1  0  0  0  0
 16 17  1  0  0  0  0
 16 19  1  0  0  0  0
 17 18  2  0  0  0  0
 18 39  1  0  0  0  0
 19 20  2  0  0  0  0
 19 40  1  0  0  0  0
 20 21  1  0  0  0  0
 20 25  1  0  0  0  0
 21 22  2  0  0  0  0
 21 23  1  0  0  0  0
 22 41  1  0  0  0  0
 23 24  1  0  0  0  0
 24 25  1  0  0  0  0
 24 42  1  0  0  0  0
 24 43  1  0  0  0  0
M  CHG  1  12   1
M  END
$$$$
