BET
 OpenBabel04121316083D

 20 19  0  0  0  0  0  0  0  0999 V2000
    0.8438   -0.0832   -0.1825 O   0  0  0  0  0  0  0  0  0  0  0  0
    2.1763    0.0152   -0.0275 C   0  0  0  0  0  0  0  0  0  0  0  0
    2.6754    1.0483    0.3882 O   0  0  0  0  0  0  0  0  0  0  0  0
    2.9925   -1.2377   -0.4134 C   0  0  0  0  0  0  0  0  0  0  0  0
    4.5488   -1.0435   -0.3467 N   0  3  0  0  0  0  0  0  0  0  0  0
    4.9603    0.0673   -1.3118 C   0  0  0  0  0  0  0  0  0  0  0  0
    4.9606   -0.6865    1.0835 C   0  0  0  0  0  0  0  0  0  0  0  0
    5.2726   -2.3218   -0.7440 C   0  0  0  0  0  0  0  0  0  0  0  0
    0.4667   -0.8473   -0.6542 H   0  0  0  0  0  0  0  0  0  0  0  0
    2.7644   -1.5279   -1.4449 H   0  0  0  0  0  0  0  0  0  0  0  0
    2.7562   -2.0614    0.2694 H   0  0  0  0  0  0  0  0  0  0  0  0
    4.4640    1.0004   -1.0480 H   0  0  0  0  0  0  0  0  0  0  0  0
    4.6666   -0.2390   -2.3210 H   0  0  0  0  0  0  0  0  0  0  0  0
    6.0429    0.1984   -1.2470 H   0  0  0  0  0  0  0  0  0  0  0  0
    4.4755    0.2332    1.4041 H   0  0  0  0  0  0  0  0  0  0  0  0
    6.0437   -0.5455    1.1049 H   0  0  0  0  0  0  0  0  0  0  0  0
    4.6627   -1.5131    1.7362 H   0  0  0  0  0  0  0  0  0  0  0  0
    4.9894   -2.5826   -1.7673 H   0  0  0  0  0  0  0  0  0  0  0  0
    4.9879   -3.1170   -0.0494 H   0  0  0  0  0  0  0  0  0  0  0  0
    6.3505   -2.1354   -0.6848 H   0  0  0  0  0  0  0  0  0  0  0  0
  1  2  1  0  0  0  0
  1  9  1  0  0  0  0
  2  3  2  0  0  0  0
  2  4  1  0  0  0  0
  4  5  1  0  0  0  0
  4 10  1  0  0  0  0
  4 11  1  0  0  0  0
  5  6  1  0  0  0  0
  5  7  1  0  0  0  0
  5  8  1  0  0  0  0
  6 12  1  0  0  0  0
  6 13  1  0  0  0  0
  6 14  1  0  0  0  0
  7 15  1  0  0  0  0
  7 16  1  0  0  0  0
  7 17  1  0  0  0  0
  8 18  1  0  0  0  0
  8 19  1  0  0  0  0
  8 20  1  0  0  0  0
M  CHG  1   5   1
M  END
$$$$
