BEU
 OpenBabel04121316083D

 31 31  0  0  1  0  0  0  0  0999 V2000
    0.9201    0.1102    0.1980 O   0  0  0  0  0  0  0  0  0  0  0  0
    2.3312    0.0766    0.0796 C   0  0  0  0  0  0  0  0  0  0  0  0
    2.8347   -1.3368    0.1540 C   0  0  0  0  0  0  0  0  0  0  0  0
    4.1308   -1.5907    0.3915 C   0  0  0  0  0  0  0  0  0  0  0  0
    4.7158   -2.9513    0.5547 C   0  0  1  0  0  0  0  0  0  0  0  0
    5.5887   -3.0151   -0.1082 H   0  0  0  0  0  0  0  0  0  0  0  0
    5.1972   -3.0411    1.9366 N   0  0  0  0  0  0  0  0  0  0  0  0
    3.7776   -4.1573    0.2839 C   0  0  1  0  0  0  0  0  0  0  0  0
    3.8866   -4.8433    1.1387 H   0  0  0  0  0  0  0  0  0  0  0  0
    2.2701   -3.8614    0.1309 C   0  0  2  0  0  0  0  0  0  0  0  0
    1.8901   -4.3678   -0.7641 H   0  0  0  0  0  0  0  0  0  0  0  0
    1.8190   -2.4142   -0.0493 C   0  0  2  0  0  0  0  0  0  0  0  0
    0.9631   -2.2521    0.6151 H   0  0  0  0  0  0  0  0  0  0  0  0
    1.3621   -2.2672   -1.4083 O   0  0  0  0  0  0  0  0  0  0  0  0
    1.5853   -4.5007    1.2235 O   0  0  0  0  0  0  0  0  0  0  0  0
    4.2330   -4.9720   -0.8455 N   0  0  0  0  0  0  0  0  0  0  0  0
    3.5661   -6.1384   -1.1584 C   0  0  0  0  0  0  0  0  0  0  0  0
    2.6142   -6.5705   -0.5257 O   0  0  0  0  0  0  0  0  0  0  0  0
    4.0641   -6.8139   -2.3930 C   0  0  0  0  0  0  0  0  0  0  0  0
    0.6218    1.0029   -0.0297 H   0  0  0  0  0  0  0  0  0  0  0  0
    2.7329    0.6634    0.9098 H   0  0  0  0  0  0  0  0  0  0  0  0
    2.6288    0.5223   -0.8747 H   0  0  0  0  0  0  0  0  0  0  0  0
    4.8254   -0.7577    0.4955 H   0  0  0  0  0  0  0  0  0  0  0  0
    4.3874   -2.9638    2.5571 H   0  0  0  0  0  0  0  0  0  0  0  0
    5.8122   -2.2641    2.1594 H   0  0  0  0  0  0  0  0  0  0  0  0
    2.1138   -2.4781   -1.9841 H   0  0  0  0  0  0  0  0  0  0  0  0
    1.8236   -5.4497    1.1369 H   0  0  0  0  0  0  0  0  0  0  0  0
    5.0458   -4.6850   -1.3731 H   0  0  0  0  0  0  0  0  0  0  0  0
    4.9541   -6.3226   -2.7912 H   0  0  0  0  0  0  0  0  0  0  0  0
    3.2731   -6.7850   -3.1473 H   0  0  0  0  0  0  0  0  0  0  0  0
    4.3028   -7.8438   -2.1258 H   0  0  0  0  0  0  0  0  0  0  0  0
  1  2  1  0  0  0  0
  1 20  1  0  0  0  0
  2  3  1  0  0  0  0
  2 21  1  0  0  0  0
  2 22  1  0  0  0  0
  3  4  2  0  0  0  0
  3 12  1  0  0  0  0
  4  5  1  0  0  0  0
  4 23  1  0  0  0  0
  5  8  1  0  0  0  0
  5  7  1  0  0  0  0
  5  6  1  6  0  0  0
  7 24  1  0  0  0  0
  7 25  1  0  0  0  0
  8  9  1  1  0  0  0
  8 10  1  0  0  0  0
  8 16  1  0  0  0  0
 10 11  1  6  0  0  0
 10 12  1  0  0  0  0
 10 15  1  0  0  0  0
 12 14  1  0  0  0  0
 12 13  1  1  0  0  0
 14 26  1  0  0  0  0
 15 27  1  0  0  0  0
 16 17  1  0  0  0  0
 16 28  1  0  0  0  0
 17 18  2  0  0  0  0
 17 19  1  0  0  0  0
 19 29  1  0  0  0  0
 19 30  1  0  0  0  0
 19 31  1  0  0  0  0
M  END
$$$$
