BEW
 OpenBabel04121316083D

 14 14  0  0  0  0  0  0  0  0999 V2000
    0.9999   -0.0944    0.1916 S   0  0  0  0  0  0  0  0  0  0  0  0
    2.7769   -0.0428    0.1058 C   0  0  0  0  0  0  0  0  0  0  0  0
    3.4618    1.1808    0.0845 C   0  0  0  0  0  0  0  0  0  0  0  0
    4.8437    1.1988   -0.1063 C   0  0  0  0  0  0  0  0  0  0  0  0
    5.5418    0.0019   -0.1860 C   0  0  0  0  0  0  0  0  0  0  0  0
    4.8489   -1.1956   -0.0671 C   0  0  0  0  0  0  0  0  0  0  0  0
    3.5036   -1.1827    0.0307 N   0  3  0  0  0  0  0  0  0  0  0  0
    2.8088   -2.3935    0.0396 O   0  0  0  0  0  0  0  0  0  0  0  0
    0.7542    1.2241    0.1508 H   0  0  0  0  0  0  0  0  0  0  0  0
    2.9321    2.1238    0.1984 H   0  0  0  0  0  0  0  0  0  0  0  0
    5.3728    2.1487   -0.1902 H   0  0  0  0  0  0  0  0  0  0  0  0
    6.6215    0.0030   -0.3319 H   0  0  0  0  0  0  0  0  0  0  0  0
    5.3568   -2.1523   -0.0539 H   0  0  0  0  0  0  0  0  0  0  0  0
    3.4626   -3.0946   -0.1151 H   0  0  0  0  0  0  0  0  0  0  0  0
  1  2  1  0  0  0  0
  1  9  1  0  0  0  0
  2  3  2  0  0  0  0
  2  7  1  0  0  0  0
  3  4  1  0  0  0  0
  3 10  1  0  0  0  0
  4  5  2  0  0  0  0
  4 11  1  0  0  0  0
  5  6  1  0  0  0  0
  5 12  1  0  0  0  0
  6  7  2  0  0  0  0
  6 13  1  0  0  0  0
  7  8  1  0  0  0  0
  8 14  1  0  0  0  0
M  CHG  1   7   1
M  END
$$$$
