BEY
 OpenBabel04121316083D

 49 50  0  0  1  0  0  0  0  0999 V2000
    2.9284   -4.6443    0.0529 O   0  0  0  0  0  0  0  0  0  0  0  0
    2.2268   -4.7985   -1.0705 C   0  0  0  0  0  0  0  0  0  0  0  0
    2.6871   -5.5282   -1.9547 O   0  0  0  0  0  0  0  0  0  0  0  0
    0.8618   -4.1151   -1.1593 C   0  0  1  0  0  0  0  0  0  0  0  0
    0.0956   -4.7141   -0.6813 H   0  0  0  0  0  0  0  0  0  0  0  0
    0.7971   -2.7391   -0.5570 C   0  0  0  0  0  0  0  0  0  0  0  0
    1.0077   -2.4350    1.2013 P   0  0  2  0  0  0  0  0  0  0  0  0
    2.5260   -2.2625    0.9780 O   0  0  0  0  0  0  0  0  0  0  0  0
    1.2251   -4.0215    2.3509 C   0  0  1  0  0  0  0  0  0  0  0  0
    0.7771   -3.7118    3.3011 H   0  0  0  0  0  0  0  0  0  0  0  0
    0.5342   -5.2699    1.8330 C   0  0  0  0  0  0  0  0  0  0  0  0
   -0.9891   -5.0998    1.6615 C   0  0  0  0  0  0  0  0  0  0  0  0
   -1.6200   -6.2562    0.9816 C   0  0  0  0  0  0  0  0  0  0  0  0
   -1.2963   -7.5197    1.4399 C   0  0  0  0  0  0  0  0  0  0  0  0
   -1.5899   -8.6038    0.6473 C   0  0  0  0  0  0  0  0  0  0  0  0
   -2.3570   -8.4354   -0.5059 C   0  0  0  0  0  0  0  0  0  0  0  0
   -2.8204   -7.1766   -0.8854 C   0  0  0  0  0  0  0  0  0  0  0  0
   -2.4007   -6.0689   -0.1742 C   0  0  0  0  0  0  0  0  0  0  0  0
    2.6689   -4.1707    2.6710 N   0  0  0  0  0  0  0  0  0  0  0  0
   -0.6931   -2.6283    1.4515 O   0  0  0  0  0  0  0  0  0  0  0  0
    0.5110   -4.1364   -2.6497 C   0  0  0  0  0  0  0  0  0  0  0  0
   -0.7889   -3.4798   -3.0119 C   0  0  0  0  0  0  0  0  0  0  0  0
   -1.8260   -4.2121   -3.5826 C   0  0  0  0  0  0  0  0  0  0  0  0
   -2.9735   -3.5451   -4.0045 C   0  0  0  0  0  0  0  0  0  0  0  0
   -3.1699   -2.2014   -3.6793 C   0  0  0  0  0  0  0  0  0  0  0  0
   -2.1976   -1.5053   -2.9863 C   0  0  0  0  0  0  0  0  0  0  0  0
   -0.9678   -2.1055   -2.8086 C   0  0  0  0  0  0  0  0  0  0  0  0
    2.7169   -3.8095    0.5238 H   0  0  0  0  0  0  0  0  0  0  0  0
   -0.1677   -2.2546   -0.6772 H   0  0  0  0  0  0  0  0  0  0  0  0
    1.5157   -2.0939   -1.0887 H   0  0  0  0  0  0  0  0  0  0  0  0
    0.7736   -6.1060    2.4938 H   0  0  0  0  0  0  0  0  0  0  0  0
    0.9430   -5.5880    0.8800 H   0  0  0  0  0  0  0  0  0  0  0  0
   -1.2175   -4.3429    0.9244 H   0  0  0  0  0  0  0  0  0  0  0  0
   -1.4776   -4.8337    2.6031 H   0  0  0  0  0  0  0  0  0  0  0  0
   -0.7349   -7.6334    2.3618 H   0  0  0  0  0  0  0  0  0  0  0  0
   -1.2002   -9.5722    0.9339 H   0  0  0  0  0  0  0  0  0  0  0  0
   -2.5921   -9.3008   -1.1125 H   0  0  0  0  0  0  0  0  0  0  0  0
   -3.4697   -7.0555   -1.7466 H   0  0  0  0  0  0  0  0  0  0  0  0
   -2.6362   -5.0710   -0.5524 H   0  0  0  0  0  0  0  0  0  0  0  0
    3.1113   -3.2455    2.7439 H   0  0  0  0  0  0  0  0  0  0  0  0
    3.2153   -4.6555    1.9469 H   0  0  0  0  0  0  0  0  0  0  0  0
   -0.9774   -2.4339    2.3707 H   0  0  0  0  0  0  0  0  0  0  0  0
    0.4732   -5.1934   -2.9502 H   0  0  0  0  0  0  0  0  0  0  0  0
    1.3201   -3.6720   -3.2239 H   0  0  0  0  0  0  0  0  0  0  0  0
   -1.7304   -5.2847   -3.7395 H   0  0  0  0  0  0  0  0  0  0  0  0
   -3.7206   -4.0735   -4.5865 H   0  0  0  0  0  0  0  0  0  0  0  0
   -4.0696   -1.6830   -3.9886 H   0  0  0  0  0  0  0  0  0  0  0  0
   -2.3579   -0.4939   -2.6276 H   0  0  0  0  0  0  0  0  0  0  0  0
   -0.1531   -1.4781   -2.4614 H   0  0  0  0  0  0  0  0  0  0  0  0
  1  2  1  0  0  0  0
  1 28  1  0  0  0  0
  2  3  2  0  0  0  0
  2  4  1  0  0  0  0
  4  5  1  1  0  0  0
  4  6  1  0  0  0  0
  4 21  1  0  0  0  0
  6 29  1  0  0  0  0
  6 30  1  0  0  0  0
  7  9  1  0  0  0  0
  7 20  1  1  0  0  0
  7  8  2  0  0  0  0
  7  6  1  0  0  0  0
  9 10  1  1  0  0  0
  9 11  1  0  0  0  0
  9 19  1  0  0  0  0
 11 12  1  0  0  0  0
 11 31  1  0  0  0  0
 11 32  1  0  0  0  0
 12 13  1  0  0  0  0
 12 33  1  0  0  0  0
 12 34  1  0  0  0  0
 13 14  2  0  0  0  0
 13 18  1  0  0  0  0
 14 15  1  0  0  0  0
 14 35  1  0  0  0  0
 15 16  2  0  0  0  0
 15 36  1  0  0  0  0
 16 17  1  0  0  0  0
 16 37  1  0  0  0  0
 17 18  2  0  0  0  0
 17 38  1  0  0  0  0
 18 39  1  0  0  0  0
 19 40  1  0  0  0  0
 19 41  1  0  0  0  0
 20 42  1  0  0  0  0
 21 22  1  0  0  0  0
 21 43  1  0  0  0  0
 21 44  1  0  0  0  0
 22 23  2  0  0  0  0
 22 27  1  0  0  0  0
 23 24  1  0  0  0  0
 23 45  1  0  0  0  0
 24 25  2  0  0  0  0
 24 46  1  0  0  0  0
 25 26  1  0  0  0  0
 25 47  1  0  0  0  0
 26 27  2  0  0  0  0
 26 48  1  0  0  0  0
 27 49  1  0  0  0  0
M  END
$$$$
