BFH
 OpenBabel04121316083D

 31 33  0  0  0  0  0  0  0  0999 V2000
    1.0515    0.1172   -0.1180 O   0  0  0  0  0  0  0  0  0  0  0  0
    2.3841    0.0677    0.1010 C   0  0  0  0  0  0  0  0  0  0  0  0
    2.8327    0.4471    1.1698 O   0  0  0  0  0  0  0  0  0  0  0  0
    3.1409   -0.3883   -1.1212 C   0  0  0  0  0  0  0  0  0  0  0  0
    4.5873   -0.3210   -0.9274 N   0  0  0  0  0  0  0  0  0  0  0  0
    5.4201   -1.4374   -0.7875 C   0  0  0  0  0  0  0  0  0  0  0  0
    6.6892   -0.9267   -0.5682 C   0  0  0  0  0  0  0  0  0  0  0  0
    6.6376    0.4863   -0.5762 C   0  0  0  0  0  0  0  0  0  0  0  0
    5.3158    0.8720   -0.8148 C   0  0  0  0  0  0  0  0  0  0  0  0
    4.9632    2.2725   -0.8628 C   0  0  0  0  0  0  0  0  0  0  0  0
    3.6597    2.7719   -1.0872 C   0  0  0  0  0  0  0  0  0  0  0  0
    3.3895    4.1392   -1.1029 C   0  0  0  0  0  0  0  0  0  0  0  0
    4.4153    5.0497   -0.9098 C   0  0  0  0  0  0  0  0  0  0  0  0
    5.7143    4.5945   -0.6939 C   0  0  0  0  0  0  0  0  0  0  0  0
    6.0051    3.2216   -0.6626 C   0  0  0  0  0  0  0  0  0  0  0  0
    7.3154    2.8073   -0.4333 C   0  0  0  0  0  0  0  0  0  0  0  0
    7.6385    1.4545   -0.3873 C   0  0  0  0  0  0  0  0  0  0  0  0
    4.9859   -2.8273   -0.8460 C   0  0  0  0  0  0  0  0  0  0  0  0
    3.8406   -3.2201   -1.0252 O   0  0  0  0  0  0  0  0  0  0  0  0
    5.9898   -3.7196   -0.6820 O   0  0  0  0  0  0  0  0  0  0  0  0
    0.6965    0.5399    0.6937 H   0  0  0  0  0  0  0  0  0  0  0  0
    2.9019    0.2185   -1.9994 H   0  0  0  0  0  0  0  0  0  0  0  0
    2.8175   -1.3937   -1.3665 H   0  0  0  0  0  0  0  0  0  0  0  0
    7.5999   -1.4828   -0.3974 H   0  0  0  0  0  0  0  0  0  0  0  0
    2.8093    2.1315   -1.2525 H   0  0  0  0  0  0  0  0  0  0  0  0
    2.3726    4.4839   -1.2686 H   0  0  0  0  0  0  0  0  0  0  0  0
    4.2041    6.1143   -0.9282 H   0  0  0  0  0  0  0  0  0  0  0  0
    6.5029    5.3294   -0.5471 H   0  0  0  0  0  0  0  0  0  0  0  0
    8.1104    3.5347   -0.2822 H   0  0  0  0  0  0  0  0  0  0  0  0
    8.6644    1.1509   -0.1995 H   0  0  0  0  0  0  0  0  0  0  0  0
    6.8650   -3.3310   -0.5310 H   0  0  0  0  0  0  0  0  0  0  0  0
  1  2  1  0  0  0  0
  1 21  1  0  0  0  0
  2  3  2  0  0  0  0
  2  4  1  0  0  0  0
  4  5  1  0  0  0  0
  4 22  1  0  0  0  0
  4 23  1  0  0  0  0
  5  6  1  0  0  0  0
  5  9  1  0  0  0  0
  6  7  2  0  0  0  0
  6 18  1  0  0  0  0
  7  8  1  0  0  0  0
  7 24  1  0  0  0  0
  8  9  2  0  0  0  0
  8 17  1  0  0  0  0
  9 10  1  0  0  0  0
 10 11  2  0  0  0  0
 10 15  1  0  0  0  0
 11 12  1  0  0  0  0
 11 25  1  0  0  0  0
 12 13  2  0  0  0  0
 12 26  1  0  0  0  0
 13 14  1  0  0  0  0
 13 27  1  0  0  0  0
 14 15  2  0  0  0  0
 14 28  1  0  0  0  0
 15 16  1  0  0  0  0
 16 17  2  0  0  0  0
 16 29  1  0  0  0  0
 17 30  1  0  0  0  0
 18 19  2  0  0  0  0
 18 20  1  0  0  0  0
 20 31  1  0  0  0  0
M  END
$$$$
