BGP
 OpenBabel04121316083D

 29 29  0  0  1  0  0  0  0  0999 V2000
    2.9462    0.1048    1.3516 O   0  0  0  0  0  0  0  0  0  0  0  0
    2.4929   -0.0854    0.0182 C   0  0  2  0  0  0  0  0  0  0  0  0
    1.3991   -0.0639    0.0775 H   0  0  0  0  0  0  0  0  0  0  0  0
    2.8891   -1.3817   -0.4027 O   0  0  0  0  0  0  0  0  0  0  0  0
    2.4478   -1.7145   -1.7353 C   0  0  2  0  0  0  0  0  0  0  0  0
    1.3522   -1.6689   -1.7645 H   0  0  0  0  0  0  0  0  0  0  0  0
    2.8994   -3.1459   -1.9502 C   0  0  0  0  0  0  0  0  0  0  0  0
    2.5345   -3.8114   -3.1557 O   0  0  0  0  0  0  0  0  0  0  0  0
    3.6184   -4.9383   -3.5687 P   0  0  0  0  0  0  0  0  0  0  0  0
    4.8457   -4.3712   -4.2054 O   0  0  0  0  0  0  0  0  0  0  0  0
    3.8720   -5.6841   -2.1815 O   0  0  0  0  0  0  0  0  0  0  0  0
    2.8838   -6.0505   -4.4348 O   0  0  0  0  0  0  0  0  0  0  0  0
    3.0494   -0.7370   -2.7473 C   0  0  1  0  0  0  0  0  0  0  0  0
    2.7538   -0.9906   -3.7702 H   0  0  0  0  0  0  0  0  0  0  0  0
    2.5486    0.6701   -2.3723 C   0  0  1  0  0  0  0  0  0  0  0  0
    1.4531    0.6927   -2.4255 H   0  0  0  0  0  0  0  0  0  0  0  0
    2.9855    1.0286   -0.9363 C   0  0  1  0  0  0  0  0  0  0  0  0
    4.0766    1.1218   -0.8827 H   0  0  0  0  0  0  0  0  0  0  0  0
    2.4606    2.3036   -0.5324 O   0  0  0  0  0  0  0  0  0  0  0  0
    3.0014    1.6496   -3.3087 O   0  0  0  0  0  0  0  0  0  0  0  0
    4.4819   -0.7418   -2.6995 O   0  0  0  0  0  0  0  0  0  0  0  0
    3.8878    0.3373    1.2959 H   0  0  0  0  0  0  0  0  0  0  0  0
    2.4786   -3.7312   -1.1289 H   0  0  0  0  0  0  0  0  0  0  0  0
    3.9884   -3.1840   -1.8429 H   0  0  0  0  0  0  0  0  0  0  0  0
    3.1118   -5.6069   -1.5736 H   0  0  0  0  0  0  0  0  0  0  0  0
    3.5591   -6.5640   -4.9266 H   0  0  0  0  0  0  0  0  0  0  0  0
    1.4958    2.2875   -0.6368 H   0  0  0  0  0  0  0  0  0  0  0  0
    2.8540    1.3003   -4.2036 H   0  0  0  0  0  0  0  0  0  0  0  0
    4.8214   -1.6068   -2.9913 H   0  0  0  0  0  0  0  0  0  0  0  0
  1 22  1  0  0  0  0
  2  4  1  0  0  0  0
  2 17  1  0  0  0  0
  2  3  1  1  0  0  0
  2  1  1  0  0  0  0
  4  5  1  0  0  0  0
  5  6  1  6  0  0  0
  5  7  1  0  0  0  0
  5 13  1  0  0  0  0
  7  8  1  0  0  0  0
  7 23  1  0  0  0  0
  7 24  1  0  0  0  0
  8  9  1  0  0  0  0
  9 10  2  0  0  0  0
  9 11  1  0  0  0  0
  9 12  1  0  0  0  0
 11 25  1  0  0  0  0
 12 26  1  0  0  0  0
 13 14  1  6  0  0  0
 13 15  1  0  0  0  0
 13 21  1  0  0  0  0
 15 16  1  6  0  0  0
 15 17  1  0  0  0  0
 15 20  1  0  0  0  0
 17 19  1  0  0  0  0
 17 18  1  1  0  0  0
 19 27  1  0  0  0  0
 20 28  1  0  0  0  0
 21 29  1  0  0  0  0
M  END
$$$$
