BHB
 OpenBabel04121316083D

 39 40  0  0  0  0  0  0  0  0999 V2000
    0.9212    0.0594   -0.0177 C   0  0  0  0  0  0  0  0  0  0  0  0
    2.3839    0.0780    0.0230 N   0  0  0  0  0  0  0  0  0  0  0  0
    2.8786   -0.0137    1.4105 C   0  0  0  0  0  0  0  0  0  0  0  0
    2.4336    1.1698    2.2945 C   0  0  0  0  0  0  0  0  0  0  0  0
    3.1947    0.9481    3.9176 S   0  0  0  0  0  0  0  0  0  0  0  0
    2.4465    2.3325    4.8843 C   0  0  0  0  0  0  0  0  0  0  0  0
    2.9085    2.2539    6.3299 C   0  0  0  0  0  0  0  0  0  0  0  0
    2.9903    0.9867    6.9618 C   0  0  0  0  0  0  0  0  0  0  0  0
    3.4813    0.8144    8.2530 C   0  0  0  0  0  0  0  0  0  0  0  0
    3.4627   -0.4419    8.8415 N   0  0  0  0  0  0  0  0  0  0  0  0
    3.8011    1.9481    8.9806 C   0  0  0  0  0  0  0  0  0  0  0  0
    3.6798    3.2149    8.3937 C   0  0  0  0  0  0  0  0  0  0  0  0
    3.2342    3.3981    7.0764 C   0  0  0  0  0  0  0  0  0  0  0  0
    3.1131    4.6884    6.5153 N   0  0  0  0  0  0  0  0  0  0  0  0
    3.4332    5.7154    7.2377 C   0  0  0  0  0  0  0  0  0  0  0  0
    3.3348    6.9675    6.7439 N   0  0  0  0  0  0  0  0  0  0  0  0
    3.8803    5.6047    8.5206 N   0  0  0  0  0  0  0  0  0  0  0  0
    4.1210    6.4229    9.0545 H   0  0  0  0  0  0  0  0  0  0  0  0
    4.0289    4.4112    9.1683 C   0  0  0  0  0  0  0  0  0  0  0  0
    4.4322    4.3465   10.3300 O   0  0  0  0  0  0  0  0  0  0  0  0
    2.9061   -1.0453   -0.7634 C   0  0  0  0  0  0  0  0  0  0  0  0
    0.4970    0.9223    0.5038 H   0  0  0  0  0  0  0  0  0  0  0  0
    0.5146   -0.8528    0.4332 H   0  0  0  0  0  0  0  0  0  0  0  0
    0.5647    0.1352   -1.0492 H   0  0  0  0  0  0  0  0  0  0  0  0
    3.9781   -0.0349    1.3853 H   0  0  0  0  0  0  0  0  0  0  0  0
    2.5538   -0.9639    1.8600 H   0  0  0  0  0  0  0  0  0  0  0  0
    1.3469    1.1850    2.4151 H   0  0  0  0  0  0  0  0  0  0  0  0
    2.7648    2.1168    1.8595 H   0  0  0  0  0  0  0  0  0  0  0  0
    1.3505    2.2876    4.8598 H   0  0  0  0  0  0  0  0  0  0  0  0
    2.7712    3.2648    4.4130 H   0  0  0  0  0  0  0  0  0  0  0  0
    2.6993    0.0931    6.4124 H   0  0  0  0  0  0  0  0  0  0  0  0
    3.4091   -1.2506    8.2309 H   0  0  0  0  0  0  0  0  0  0  0  0
    3.9697   -0.5747    9.7082 H   0  0  0  0  0  0  0  0  0  0  0  0
    4.1480    1.8596   10.0059 H   0  0  0  0  0  0  0  0  0  0  0  0
    3.0208    7.0749    5.7882 H   0  0  0  0  0  0  0  0  0  0  0  0
    3.5847    7.7964    7.2605 H   0  0  0  0  0  0  0  0  0  0  0  0
    2.5758   -0.9667   -1.8050 H   0  0  0  0  0  0  0  0  0  0  0  0
    2.5720   -2.0126   -0.3692 H   0  0  0  0  0  0  0  0  0  0  0  0
    4.0018   -1.0403   -0.7790 H   0  0  0  0  0  0  0  0  0  0  0  0
  1  2  1  0  0  0  0
  1 22  1  0  0  0  0
  1 23  1  0  0  0  0
  1 24  1  0  0  0  0
  2  3  1  0  0  0  0
  2 21  1  0  0  0  0
  3  4  1  0  0  0  0
  3 25  1  0  0  0  0
  3 26  1  0  0  0  0
  4  5  1  0  0  0  0
  4 27  1  0  0  0  0
  4 28  1  0  0  0  0
  5  6  1  0  0  0  0
  6  7  1  0  0  0  0
  6 29  1  0  0  0  0
  6 30  1  0  0  0  0
  7  8  2  0  0  0  0
  7 13  1  0  0  0  0
  8  9  1  0  0  0  0
  8 31  1  0  0  0  0
  9 10  1  0  0  0  0
  9 11  2  0  0  0  0
 10 32  1  0  0  0  0
 10 33  1  0  0  0  0
 11 12  1  0  0  0  0
 11 34  1  0  0  0  0
 12 13  2  0  0  0  0
 12 19  1  0  0  0  0
 13 14  1  0  0  0  0
 14 15  2  0  0  0  0
 15 16  1  0  0  0  0
 15 17  1  0  0  0  0
 16 35  1  0  0  0  0
 16 36  1  0  0  0  0
 17 18  1  0  0  0  0
 17 19  1  0  0  0  0
 19 20  2  0  0  0  0
 21 37  1  0  0  0  0
 21 38  1  0  0  0  0
 21 39  1  0  0  0  0
M  END
$$$$
