BHH
 OpenBabel04121316083D

 22 21  0  0  0  0  0  0  0  0999 V2000
    1.0138   -0.0001    0.0942 C   0  0  0  0  0  0  0  0  0  0  0  0
    2.5305    0.0204    0.0990 C   0  0  0  0  0  0  0  0  0  0  0  0
    3.0646    1.4160    0.4282 C   0  0  0  0  0  0  0  0  0  0  0  0
    4.5861    1.3999    0.4244 C   0  0  0  0  0  0  0  0  0  0  0  0
    5.1498    2.6967    0.7303 N   0  0  0  0  0  0  0  0  0  0  0  0
    6.4823    2.9461    0.7891 C   0  0  0  0  0  0  0  0  0  0  0  0
    7.4127    2.0713    0.5828 N   0  0  0  0  0  0  0  0  0  0  0  0
    6.8183    4.2282    1.0915 N   0  0  0  0  0  0  0  0  0  0  0  0
    8.1868    4.4875    1.1526 O   0  0  0  0  0  0  0  0  0  0  0  0
    0.6475   -1.0036   -0.1425 H   0  0  0  0  0  0  0  0  0  0  0  0
    0.6197    0.6942   -0.6542 H   0  0  0  0  0  0  0  0  0  0  0  0
    0.6197    0.2866    1.0739 H   0  0  0  0  0  0  0  0  0  0  0  0
    2.9007   -0.3004   -0.8825 H   0  0  0  0  0  0  0  0  0  0  0  0
    2.9007   -0.7051    0.8337 H   0  0  0  0  0  0  0  0  0  0  0  0
    2.6933    1.7357    1.4095 H   0  0  0  0  0  0  0  0  0  0  0  0
    2.6933    2.1405   -0.3068 H   0  0  0  0  0  0  0  0  0  0  0  0
    4.9393    1.0796   -0.5626 H   0  0  0  0  0  0  0  0  0  0  0  0
    4.9393    0.6723    1.1642 H   0  0  0  0  0  0  0  0  0  0  0  0
    4.5055    3.4551    0.9091 H   0  0  0  0  0  0  0  0  0  0  0  0
    6.9798    1.1718    0.3706 H   0  0  0  0  0  0  0  0  0  0  0  0
    6.1790    4.9873    1.2705 H   0  0  0  0  0  0  0  0  0  0  0  0
    8.5697    3.6021    0.9438 H   0  0  0  0  0  0  0  0  0  0  0  0
  1  2  1  0  0  0  0
  1 10  1  0  0  0  0
  1 11  1  0  0  0  0
  1 12  1  0  0  0  0
  2  3  1  0  0  0  0
  2 13  1  0  0  0  0
  2 14  1  0  0  0  0
  3  4  1  0  0  0  0
  3 15  1  0  0  0  0
  3 16  1  0  0  0  0
  4  5  1  0  0  0  0
  4 17  1  0  0  0  0
  4 18  1  0  0  0  0
  5  6  1  0  0  0  0
  5 19  1  0  0  0  0
  6  7  2  0  0  0  0
  6  8  1  0  0  0  0
  7 20  1  0  0  0  0
  8  9  1  0  0  0  0
  8 21  1  0  0  0  0
  9 22  1  0  0  0  0
M  END
$$$$
