BHM
 OpenBabel04121316083D

 31 31  0  0  1  0  0  0  0  0999 V2000
    1.0912   -0.1041   -0.0407 Br  0  0  0  0  0  0  0  0  0  0  0  0
    3.0458   -0.0419    0.0097 C   0  0  0  0  0  0  0  0  0  0  0  0
    3.5507    0.9561    1.0497 C   0  0  1  0  0  0  0  0  0  0  0  0
    3.0404    2.3925    0.7820 C   0  0  0  0  0  0  0  0  0  0  0  0
    2.3406    2.9804    1.6080 O   0  0  0  0  0  0  0  0  0  0  0  0
    3.3832    2.9355   -0.4475 N   0  0  0  0  0  0  0  0  0  0  0  0
    2.9515    4.2199   -0.7992 C   0  0  0  0  0  0  0  0  0  0  0  0
    2.1357    4.4164   -1.9065 C   0  0  0  0  0  0  0  0  0  0  0  0
    1.7674    5.7168   -2.2574 C   0  0  0  0  0  0  0  0  0  0  0  0
    2.3604    6.8226   -1.6156 C   0  0  0  0  0  0  0  0  0  0  0  0
    3.2113    6.6244   -0.5104 C   0  0  0  0  0  0  0  0  0  0  0  0
    3.4162    5.3066   -0.0611 C   0  0  0  0  0  0  0  0  0  0  0  0
    3.9801    7.7261    0.1689 C   0  0  0  0  0  0  0  0  0  0  0  0
    4.8517    8.3377   -0.6777 F   0  0  0  0  0  0  0  0  0  0  0  0
    3.1860    8.6758    0.7215 F   0  0  0  0  0  0  0  0  0  0  0  0
    4.7613    7.2727    1.1937 F   0  0  0  0  0  0  0  0  0  0  0  0
    2.1034    8.1615   -2.1884 N   0  3  0  0  0  0  0  0  0  0  0  0
    2.6813    9.1344   -1.7130 O   0  0  0  0  0  0  0  0  0  0  0  0
    1.3257    8.2246   -3.1566 O   0  5  0  0  0  0  0  0  0  0  0  0
    3.1417    0.5059    2.3459 O   0  0  0  0  0  0  0  0  0  0  0  0
    5.0813    0.9661    1.0586 C   0  0  0  0  0  0  0  0  0  0  0  0
    3.3646    0.2000   -1.0071 H   0  0  0  0  0  0  0  0  0  0  0  0
    3.3530   -1.0627    0.2554 H   0  0  0  0  0  0  0  0  0  0  0  0
    3.7173    2.3376   -1.1928 H   0  0  0  0  0  0  0  0  0  0  0  0
    1.7253    3.5743   -2.4585 H   0  0  0  0  0  0  0  0  0  0  0  0
    1.0333    5.8553   -3.0515 H   0  0  0  0  0  0  0  0  0  0  0  0
    4.0129    5.1196    0.8331 H   0  0  0  0  0  0  0  0  0  0  0  0
    2.1801    0.6798    2.4024 H   0  0  0  0  0  0  0  0  0  0  0  0
    5.4974    1.2456    0.0851 H   0  0  0  0  0  0  0  0  0  0  0  0
    5.4757   -0.0187    1.3327 H   0  0  0  0  0  0  0  0  0  0  0  0
    5.4615    1.6759    1.8031 H   0  0  0  0  0  0  0  0  0  0  0  0
  1  2  1  0  0  0  0
  2 22  1  0  0  0  0
  2 23  1  0  0  0  0
  3  2  1  6  0  0  0
  3  4  1  0  0  0  0
  3 20  1  0  0  0  0
  3 21  1  0  0  0  0
  4  5  2  0  0  0  0
  4  6  1  0  0  0  0
  6  7  1  0  0  0  0
  6 24  1  0  0  0  0
  7  8  2  0  0  0  0
  7 12  1  0  0  0  0
  8  9  1  0  0  0  0
  8 25  1  0  0  0  0
  9 10  2  0  0  0  0
  9 26  1  0  0  0  0
 10 11  1  0  0  0  0
 10 17  1  0  0  0  0
 11 12  2  0  0  0  0
 11 13  1  0  0  0  0
 12 27  1  0  0  0  0
 13 14  1  0  0  0  0
 13 15  1  0  0  0  0
 13 16  1  0  0  0  0
 17 18  2  0  0  0  0
 17 19  1  0  0  0  0
 20 28  1  0  0  0  0
 21 29  1  0  0  0  0
 21 30  1  0  0  0  0
 21 31  1  0  0  0  0
M  CHG  2  17   1  19  -1
M  END
$$$$
