BHN
 OpenBabel04121316083D

 52 53  0  0  0  0  0  0  0  0999 V2000
    0.6533    0.1661    0.3672 O   0  0  0  0  0  0  0  0  0  0  0  0
    1.9455   -0.1948    0.1713 C   0  0  0  0  0  0  0  0  0  0  0  0
    2.1639   -1.0665   -0.6618 O   0  0  0  0  0  0  0  0  0  0  0  0
    2.9507    0.4101    1.1764 C   0  0  0  0  0  0  0  0  0  0  0  0
    4.4171    0.3066    0.8308 N   0  0  0  0  0  0  0  0  0  0  0  0
    4.8370    1.1713   -0.2639 C   0  0  0  0  0  0  0  0  0  0  0  0
    4.3296    0.6973   -1.5716 C   0  0  0  0  0  0  0  0  0  0  0  0
    4.4251   -0.6667   -1.9073 C   0  0  0  0  0  0  0  0  0  0  0  0
    3.8383   -1.1341   -3.0711 C   0  0  0  0  0  0  0  0  0  0  0  0
    3.1724   -0.2341   -3.8994 C   0  0  0  0  0  0  0  0  0  0  0  0
    3.0673    1.1201   -3.5565 C   0  0  0  0  0  0  0  0  0  0  0  0
    3.6794    1.5880   -2.4092 C   0  0  0  0  0  0  0  0  0  0  0  0
    3.6101    2.8989   -2.0348 O   0  0  0  0  0  0  0  0  0  0  0  0
    5.2123    0.7294    1.9858 C   0  0  0  0  0  0  0  0  0  0  0  0
    6.7613    0.6076    1.9322 C   0  0  0  0  0  0  0  0  0  0  0  0
    7.4643    1.0196    3.1675 N   0  0  0  0  0  0  0  0  0  0  0  0
    7.0936    0.2231    4.3667 C   0  0  0  0  0  0  0  0  0  0  0  0
    5.6445    0.3560    4.8092 C   0  0  0  0  0  0  0  0  0  0  0  0
    4.8705   -0.8197    4.9024 C   0  0  0  0  0  0  0  0  0  0  0  0
    3.4777   -0.7393    4.8569 C   0  0  0  0  0  0  0  0  0  0  0  0
    2.8498    0.5081    4.8599 C   0  0  0  0  0  0  0  0  0  0  0  0
    3.6069    1.6803    4.9292 C   0  0  0  0  0  0  0  0  0  0  0  0
    4.9983    1.6043    4.8802 C   0  0  0  0  0  0  0  0  0  0  0  0
    5.7324    2.7457    4.7177 O   0  0  0  0  0  0  0  0  0  0  0  0
    8.9313    1.0178    2.9488 C   0  0  0  0  0  0  0  0  0  0  0  0
    9.7171    1.5891    4.1466 C   0  0  0  0  0  0  0  0  0  0  0  0
    9.2475    2.0971    5.1534 O   0  0  0  0  0  0  0  0  0  0  0  0
   11.0624    1.4811    4.0062 O   0  0  0  0  0  0  0  0  0  0  0  0
    0.4583    0.5735    1.2257 H   0  0  0  0  0  0  0  0  0  0  0  0
    2.7727   -0.1913    2.0767 H   0  0  0  0  0  0  0  0  0  0  0  0
    2.6814    1.4487    1.4065 H   0  0  0  0  0  0  0  0  0  0  0  0
    5.9226    1.1399   -0.3979 H   0  0  0  0  0  0  0  0  0  0  0  0
    4.5887    2.2133   -0.0296 H   0  0  0  0  0  0  0  0  0  0  0  0
    4.7579   -1.3872   -1.1555 H   0  0  0  0  0  0  0  0  0  0  0  0
    3.7908   -2.2043   -3.2517 H   0  0  0  0  0  0  0  0  0  0  0  0
    2.6780   -0.6064   -4.7886 H   0  0  0  0  0  0  0  0  0  0  0  0
    2.4570    1.7792   -4.1593 H   0  0  0  0  0  0  0  0  0  0  0  0
    3.2692    3.4179   -2.7782 H   0  0  0  0  0  0  0  0  0  0  0  0
    4.8751    0.0220    2.7137 H   0  0  0  0  0  0  0  0  0  0  0  0
    4.9446    1.7569    2.2673 H   0  0  0  0  0  0  0  0  0  0  0  0
    7.1304    1.2674    1.1393 H   0  0  0  0  0  0  0  0  0  0  0  0
    7.0275   -0.4189    1.6562 H   0  0  0  0  0  0  0  0  0  0  0  0
    7.6689    0.4999    5.2491 H   0  0  0  0  0  0  0  0  0  0  0  0
    7.3364   -0.8269    4.1568 H   0  0  0  0  0  0  0  0  0  0  0  0
    5.3476   -1.7958    4.8366 H   0  0  0  0  0  0  0  0  0  0  0  0
    2.8918   -1.6477    4.7345 H   0  0  0  0  0  0  0  0  0  0  0  0
    1.7687    0.5650    4.7707 H   0  0  0  0  0  0  0  0  0  0  0  0
    3.1054    2.6424    4.9452 H   0  0  0  0  0  0  0  0  0  0  0  0
    5.1610    3.4923    4.4836 H   0  0  0  0  0  0  0  0  0  0  0  0
    9.1766    1.6556    2.0879 H   0  0  0  0  0  0  0  0  0  0  0  0
    9.2767   -0.0009    2.7338 H   0  0  0  0  0  0  0  0  0  0  0  0
   11.3644    1.1136    3.1577 H   0  0  0  0  0  0  0  0  0  0  0  0
  1  2  1  0  0  0  0
  1 29  1  0  0  0  0
  2  3  2  0  0  0  0
  2  4  1  0  0  0  0
  4  5  1  0  0  0  0
  4 30  1  0  0  0  0
  4 31  1  0  0  0  0
  5  6  1  0  0  0  0
  5 14  1  0  0  0  0
  6  7  1  0  0  0  0
  6 32  1  0  0  0  0
  6 33  1  0  0  0  0
  7  8  2  0  0  0  0
  7 12  1  0  0  0  0
  8  9  1  0  0  0  0
  8 34  1  0  0  0  0
  9 10  2  0  0  0  0
  9 35  1  0  0  0  0
 10 11  1  0  0  0  0
 10 36  1  0  0  0  0
 11 12  2  0  0  0  0
 11 37  1  0  0  0  0
 12 13  1  0  0  0  0
 13 38  1  0  0  0  0
 14 15  1  0  0  0  0
 14 39  1  0  0  0  0
 14 40  1  0  0  0  0
 15 16  1  0  0  0  0
 15 41  1  0  0  0  0
 15 42  1  0  0  0  0
 16 17  1  0  0  0  0
 16 25  1  0  0  0  0
 17 18  1  0  0  0  0
 17 43  1  0  0  0  0
 17 44  1  0  0  0  0
 18 19  2  0  0  0  0
 18 23  1  0  0  0  0
 19 20  1  0  0  0  0
 19 45  1  0  0  0  0
 20 21  2  0  0  0  0
 20 46  1  0  0  0  0
 21 22  1  0  0  0  0
 21 47  1  0  0  0  0
 22 23  2  0  0  0  0
 22 48  1  0  0  0  0
 23 24  1  0  0  0  0
 24 49  1  0  0  0  0
 25 26  1  0  0  0  0
 25 50  1  0  0  0  0
 25 51  1  0  0  0  0
 26 27  2  0  0  0  0
 26 28  1  0  0  0  0
 28 52  1  0  0  0  0
M  END
$$$$
