BHO
 OpenBabel04121316083D

 17 17  0  0  0  0  0  0  0  0999 V2000
    1.0096    0.0781    0.0235 O   0  0  0  0  0  0  0  0  0  0  0  0
    2.4197    0.0639    0.0306 N   0  0  0  0  0  0  0  0  0  0  0  0
    3.0319    0.4470   -1.1339 C   0  0  0  0  0  0  0  0  0  0  0  0
    2.4737    0.7771   -2.1782 O   0  0  0  0  0  0  0  0  0  0  0  0
    4.5051    0.4519   -1.0898 C   0  0  0  0  0  0  0  0  0  0  0  0
    5.1834    1.6735   -1.1138 C   0  0  0  0  0  0  0  0  0  0  0  0
    6.5654    1.6864   -1.3043 C   0  0  0  0  0  0  0  0  0  0  0  0
    7.2709    0.4841   -1.3775 C   0  0  0  0  0  0  0  0  0  0  0  0
    6.5999   -0.7336   -1.2456 C   0  0  0  0  0  0  0  0  0  0  0  0
    5.2076   -0.7552   -1.1486 C   0  0  0  0  0  0  0  0  0  0  0  0
    0.7602   -0.1571    0.9323 H   0  0  0  0  0  0  0  0  0  0  0  0
    2.9149   -0.1471    0.8894 H   0  0  0  0  0  0  0  0  0  0  0  0
    4.6368    2.6085   -1.0218 H   0  0  0  0  0  0  0  0  0  0  0  0
    7.0905    2.6319   -1.4174 H   0  0  0  0  0  0  0  0  0  0  0  0
    8.3450    0.4964   -1.5503 H   0  0  0  0  0  0  0  0  0  0  0  0
    7.1618   -1.6643   -1.2554 H   0  0  0  0  0  0  0  0  0  0  0  0
    4.6777   -1.7038   -1.1658 H   0  0  0  0  0  0  0  0  0  0  0  0
  1  2  1  0  0  0  0
  1 11  1  0  0  0  0
  2  3  1  0  0  0  0
  2 12  1  0  0  0  0
  3  4  2  0  0  0  0
  3  5  1  0  0  0  0
  5  6  2  0  0  0  0
  5 10  1  0  0  0  0
  6  7  1  0  0  0  0
  6 13  1  0  0  0  0
  7  8  2  0  0  0  0
  7 14  1  0  0  0  0
  8  9  1  0  0  0  0
  8 15  1  0  0  0  0
  9 10  2  0  0  0  0
  9 16  1  0  0  0  0
 10 17  1  0  0  0  0
M  END
$$$$
