BHR
 OpenBabel04121316083D

 53 54  0  0  0  0  0  0  0  0999 V2000
    0.8067   -0.0957   -0.1071 O   0  0  0  0  0  0  0  0  0  0  0  0
    2.1088    0.2727   -0.2321 C   0  0  0  0  0  0  0  0  0  0  0  0
    2.4314    1.4368   -0.0060 O   0  0  0  0  0  0  0  0  0  0  0  0
    3.0123   -0.8137   -0.8330 C   0  0  0  0  0  0  0  0  0  0  0  0
    4.4695   -0.6966   -0.5263 N   0  0  0  0  0  0  0  0  0  0  0  0
    4.8691   -1.0151    0.8389 C   0  0  0  0  0  0  0  0  0  0  0  0
    4.2930   -0.0696    1.8298 C   0  0  0  0  0  0  0  0  0  0  0  0
    3.2403   -0.5145    2.6362 C   0  0  0  0  0  0  0  0  0  0  0  0
    2.4788    0.4150    3.3257 C   0  0  0  0  0  0  0  0  0  0  0  0
    2.8300    1.7668    3.2887 C   0  0  0  0  0  0  0  0  0  0  0  0
    3.9460    2.2013    2.5689 C   0  0  0  0  0  0  0  0  0  0  0  0
    4.6562    1.2848    1.8116 C   0  0  0  0  0  0  0  0  0  0  0  0
    5.6341    1.7138    0.9531 O   0  0  0  0  0  0  0  0  0  0  0  0
    5.2448   -1.5770   -1.3979 C   0  0  0  0  0  0  0  0  0  0  0  0
    6.7729   -1.3481   -1.4888 C   0  0  0  0  0  0  0  0  0  0  0  0
    7.4595   -2.2097   -2.4891 N   0  0  0  0  0  0  0  0  0  0  0  0
    7.1300   -1.8458   -3.9057 C   0  0  0  0  0  0  0  0  0  0  0  0
    5.6828   -2.0580   -4.3060 C   0  0  0  0  0  0  0  0  0  0  0  0
    5.1351   -3.3543   -4.2532 C   0  0  0  0  0  0  0  0  0  0  0  0
    3.7539   -3.5242   -4.1173 C   0  0  0  0  0  0  0  0  0  0  0  0
    2.8951   -2.4284   -4.2369 C   0  0  0  0  0  0  0  0  0  0  0  0
    3.4307   -1.1549   -4.4322 C   0  0  0  0  0  0  0  0  0  0  0  0
    4.8149   -0.9617   -4.4380 C   0  0  0  0  0  0  0  0  0  0  0  0
    5.3106    0.3042   -4.2177 O   0  0  0  0  0  0  0  0  0  0  0  0
    2.6335   -0.0427   -4.4068 O   0  0  0  0  0  0  0  0  0  0  0  0
    8.9321   -2.0845   -2.2800 C   0  0  0  0  0  0  0  0  0  0  0  0
    9.7301   -3.0694   -3.1519 C   0  0  0  0  0  0  0  0  0  0  0  0
    9.2591   -3.9413   -3.8686 O   0  0  0  0  0  0  0  0  0  0  0  0
   11.0732   -2.9040   -3.0643 O   0  0  0  0  0  0  0  0  0  0  0  0
    0.5787   -0.9695   -0.4681 H   0  0  0  0  0  0  0  0  0  0  0  0
    2.8537   -0.6411   -1.9019 H   0  0  0  0  0  0  0  0  0  0  0  0
    2.6436   -1.8215   -0.6121 H   0  0  0  0  0  0  0  0  0  0  0  0
    5.9529   -0.9177    0.9485 H   0  0  0  0  0  0  0  0  0  0  0  0
    4.6251   -2.0598    1.0658 H   0  0  0  0  0  0  0  0  0  0  0  0
    2.9574   -1.5643    2.6374 H   0  0  0  0  0  0  0  0  0  0  0  0
    1.5800    0.0941    3.8420 H   0  0  0  0  0  0  0  0  0  0  0  0
    2.1992    2.4952    3.7860 H   0  0  0  0  0  0  0  0  0  0  0  0
    4.1988    3.2545    2.5418 H   0  0  0  0  0  0  0  0  0  0  0  0
    5.4244    2.6311    0.7051 H   0  0  0  0  0  0  0  0  0  0  0  0
    4.8412   -1.3014   -2.3306 H   0  0  0  0  0  0  0  0  0  0  0  0
    5.0124   -2.6378   -1.2435 H   0  0  0  0  0  0  0  0  0  0  0  0
    7.1962   -1.5888   -0.5063 H   0  0  0  0  0  0  0  0  0  0  0  0
    6.9880   -0.2876   -1.6746 H   0  0  0  0  0  0  0  0  0  0  0  0
    7.6887   -2.4712   -4.6041 H   0  0  0  0  0  0  0  0  0  0  0  0
    7.4520   -0.8180   -4.1006 H   0  0  0  0  0  0  0  0  0  0  0  0
    5.7940   -4.2200   -4.1948 H   0  0  0  0  0  0  0  0  0  0  0  0
    3.3608   -4.5045   -3.8527 H   0  0  0  0  0  0  0  0  0  0  0  0
    1.8280   -2.5796   -4.1126 H   0  0  0  0  0  0  0  0  0  0  0  0
    4.5747    0.8092   -3.8147 H   0  0  0  0  0  0  0  0  0  0  0  0
    1.7123   -0.3259   -4.5268 H   0  0  0  0  0  0  0  0  0  0  0  0
    9.1837   -2.3221   -1.2369 H   0  0  0  0  0  0  0  0  0  0  0  0
    9.2585   -1.0566   -2.4860 H   0  0  0  0  0  0  0  0  0  0  0  0
   11.3703   -2.2214   -2.4367 H   0  0  0  0  0  0  0  0  0  0  0  0
  1  2  1  0  0  0  0
  1 30  1  0  0  0  0
  2  3  2  0  0  0  0
  2  4  1  0  0  0  0
  4  5  1  0  0  0  0
  4 31  1  0  0  0  0
  4 32  1  0  0  0  0
  5  6  1  0  0  0  0
  5 14  1  0  0  0  0
  6  7  1  0  0  0  0
  6 33  1  0  0  0  0
  6 34  1  0  0  0  0
  7  8  2  0  0  0  0
  7 12  1  0  0  0  0
  8  9  1  0  0  0  0
  8 35  1  0  0  0  0
  9 10  2  0  0  0  0
  9 36  1  0  0  0  0
 10 11  1  0  0  0  0
 10 37  1  0  0  0  0
 11 12  2  0  0  0  0
 11 38  1  0  0  0  0
 12 13  1  0  0  0  0
 13 39  1  0  0  0  0
 14 15  1  0  0  0  0
 14 40  1  0  0  0  0
 14 41  1  0  0  0  0
 15 16  1  0  0  0  0
 15 42  1  0  0  0  0
 15 43  1  0  0  0  0
 16 17  1  0  0  0  0
 16 26  1  0  0  0  0
 17 18  1  0  0  0  0
 17 44  1  0  0  0  0
 17 45  1  0  0  0  0
 18 19  2  0  0  0  0
 18 23  1  0  0  0  0
 19 20  1  0  0  0  0
 19 46  1  0  0  0  0
 20 21  2  0  0  0  0
 20 47  1  0  0  0  0
 21 22  1  0  0  0  0
 21 48  1  0  0  0  0
 22 23  2  0  0  0  0
 22 25  1  0  0  0  0
 23 24  1  0  0  0  0
 24 49  1  0  0  0  0
 25 50  1  0  0  0  0
 26 27  1  0  0  0  0
 26 51  1  0  0  0  0
 26 52  1  0  0  0  0
 27 28  2  0  0  0  0
 27 29  1  0  0  0  0
 29 53  1  0  0  0  0
M  END
$$$$
