BHZ
 OpenBabel04121316083D

 51 52  0  0  0  0  0  0  0  0999 V2000
    0.6145   -0.3986    0.2332 O   0  0  0  0  0  0  0  0  0  0  0  0
    1.8344    0.1387    0.1717 C   0  0  0  0  0  0  0  0  0  0  0  0
    1.8169    1.2796   -0.2886 O   0  0  0  0  0  0  0  0  0  0  0  0
    2.9316   -0.6066    0.9104 C   0  0  0  0  0  0  0  0  0  0  0  0
    4.3761   -0.4456    0.4418 N   0  0  0  0  0  0  0  0  0  0  0  0
    4.8302    0.9392    0.5511 C   0  0  0  0  0  0  0  0  0  0  0  0
    4.4171    1.6624   -0.6771 C   0  0  0  0  0  0  0  0  0  0  0  0
    3.9776    0.9251   -1.8037 C   0  0  0  0  0  0  0  0  0  0  0  0
    3.3276    1.5590   -2.8330 C   0  0  0  0  0  0  0  0  0  0  0  0
    3.2333    2.9422   -2.7964 C   0  0  0  0  0  0  0  0  0  0  0  0
    3.7139    3.6800   -1.7028 C   0  0  0  0  0  0  0  0  0  0  0  0
    4.3219    3.0452   -0.6348 C   0  0  0  0  0  0  0  0  0  0  0  0
    5.2358   -1.2740    1.2703 C   0  0  0  0  0  0  0  0  0  0  0  0
    6.7933   -1.1167    1.4169 C   0  0  0  0  0  0  0  0  0  0  0  0
    7.4758   -1.7655    2.5740 N   0  0  0  0  0  0  0  0  0  0  0  0
    7.0703   -3.1606    2.8066 C   0  0  0  0  0  0  0  0  0  0  0  0
    5.6634   -3.3456    3.3538 C   0  0  0  0  0  0  0  0  0  0  0  0
    5.0914   -4.6144    3.1868 C   0  0  0  0  0  0  0  0  0  0  0  0
    3.7093   -4.7579    3.1288 C   0  0  0  0  0  0  0  0  0  0  0  0
    2.8989   -3.6357    3.2555 C   0  0  0  0  0  0  0  0  0  0  0  0
    3.4604   -2.4248    3.6648 C   0  0  0  0  0  0  0  0  0  0  0  0
    4.8437   -2.3137    3.8321 C   0  0  0  0  0  0  0  0  0  0  0  0
    5.3851   -1.1296    4.2790 O   0  0  0  0  0  0  0  0  0  0  0  0
    8.9518   -1.6154    2.4786 C   0  0  0  0  0  0  0  0  0  0  0  0
    9.7197   -2.2283    3.6754 C   0  0  0  0  0  0  0  0  0  0  0  0
    9.2336   -2.7182    4.6836 O   0  0  0  0  0  0  0  0  0  0  0  0
   11.0679   -2.1992    3.5274 O   0  0  0  0  0  0  0  0  0  0  0  0
    0.1755    0.3962   -0.1616 H   0  0  0  0  0  0  0  0  0  0  0  0
    2.6865   -1.6770    0.8910 H   0  0  0  0  0  0  0  0  0  0  0  0
    2.8193   -0.2404    1.9385 H   0  0  0  0  0  0  0  0  0  0  0  0
    5.9161    1.0414    0.5287 H   0  0  0  0  0  0  0  0  0  0  0  0
    4.4994    1.4002    1.4966 H   0  0  0  0  0  0  0  0  0  0  0  0
    3.9265   -0.1652   -1.7738 H   0  0  0  0  0  0  0  0  0  0  0  0
    2.8169    0.9585   -3.5779 H   0  0  0  0  0  0  0  0  0  0  0  0
    2.7412    3.4459   -3.6162 H   0  0  0  0  0  0  0  0  0  0  0  0
    3.5596    4.7507   -1.6583 H   0  0  0  0  0  0  0  0  0  0  0  0
    4.6414    3.5942    0.2484 H   0  0  0  0  0  0  0  0  0  0  0  0
    4.9878   -2.3203    1.0804 H   0  0  0  0  0  0  0  0  0  0  0  0
    4.8207   -0.9402    2.1853 H   0  0  0  0  0  0  0  0  0  0  0  0
    7.0411   -0.0599    1.5529 H   0  0  0  0  0  0  0  0  0  0  0  0
    7.2259   -1.4523    0.4735 H   0  0  0  0  0  0  0  0  0  0  0  0
    7.6993   -3.7067    3.5065 H   0  0  0  0  0  0  0  0  0  0  0  0
    7.1929   -3.6891    1.8466 H   0  0  0  0  0  0  0  0  0  0  0  0
    5.7322   -5.4841    3.0641 H   0  0  0  0  0  0  0  0  0  0  0  0
    3.2714   -5.7345    2.9461 H   0  0  0  0  0  0  0  0  0  0  0  0
    1.8308   -3.7159    3.0733 H   0  0  0  0  0  0  0  0  0  0  0  0
    2.8223   -1.5519    3.7603 H   0  0  0  0  0  0  0  0  0  0  0  0
    5.1516   -0.3589    3.7319 H   0  0  0  0  0  0  0  0  0  0  0  0
    9.2026   -0.5461    2.4679 H   0  0  0  0  0  0  0  0  0  0  0  0
    9.3130   -2.0703    1.5483 H   0  0  0  0  0  0  0  0  0  0  0  0
   11.3973   -1.7478    2.7319 H   0  0  0  0  0  0  0  0  0  0  0  0
  1  2  1  0  0  0  0
  1 28  1  0  0  0  0
  2  3  2  0  0  0  0
  2  4  1  0  0  0  0
  4  5  1  0  0  0  0
  4 29  1  0  0  0  0
  4 30  1  0  0  0  0
  5  6  1  0  0  0  0
  5 13  1  0  0  0  0
  6  7  1  0  0  0  0
  6 31  1  0  0  0  0
  6 32  1  0  0  0  0
  7  8  2  0  0  0  0
  7 12  1  0  0  0  0
  8  9  1  0  0  0  0
  8 33  1  0  0  0  0
  9 10  2  0  0  0  0
  9 34  1  0  0  0  0
 10 11  1  0  0  0  0
 10 35  1  0  0  0  0
 11 12  2  0  0  0  0
 11 36  1  0  0  0  0
 12 37  1  0  0  0  0
 13 14  1  0  0  0  0
 13 38  1  0  0  0  0
 13 39  1  0  0  0  0
 14 15  1  0  0  0  0
 14 40  1  0  0  0  0
 14 41  1  0  0  0  0
 15 16  1  0  0  0  0
 15 24  1  0  0  0  0
 16 17  1  0  0  0  0
 16 42  1  0  0  0  0
 16 43  1  0  0  0  0
 17 18  2  0  0  0  0
 17 22  1  0  0  0  0
 18 19  1  0  0  0  0
 18 44  1  0  0  0  0
 19 20  2  0  0  0  0
 19 45  1  0  0  0  0
 20 21  1  0  0  0  0
 20 46  1  0  0  0  0
 21 22  2  0  0  0  0
 21 47  1  0  0  0  0
 22 23  1  0  0  0  0
 23 48  1  0  0  0  0
 24 25  1  0  0  0  0
 24 49  1  0  0  0  0
 24 50  1  0  0  0  0
 25 26  2  0  0  0  0
 25 27  1  0  0  0  0
 27 51  1  0  0  0  0
M  END
$$$$
