BI3
 OpenBabel04121316083D

 49 53  0  0  0  0  0  0  0  0999 V2000
    1.0834    0.1859   -0.3969 N   0  0  0  0  0  0  0  0  0  0  0  0
    2.5667    0.2118   -0.4392 C   0  0  0  0  0  0  0  0  0  0  0  0
    3.2283   -0.8639    0.4413 C   0  0  0  0  0  0  0  0  0  0  0  0
    4.7561   -1.0902    0.5942 C   0  0  0  0  0  0  0  0  0  0  0  0
    5.2192   -2.2437    1.4283 N   0  0  0  0  0  0  0  0  0  0  0  0
    5.0523   -3.5816    1.0871 C   0  0  0  0  0  0  0  0  0  0  0  0
    5.3856   -4.3842    2.1737 C   0  0  0  0  0  0  0  0  0  0  0  0
    5.9569   -3.5255    3.1663 C   0  0  0  0  0  0  0  0  0  0  0  0
    5.8488   -2.2002    2.6816 C   0  0  0  0  0  0  0  0  0  0  0  0
    6.2668   -1.1222    3.4849 C   0  0  0  0  0  0  0  0  0  0  0  0
    6.8247   -1.3877    4.7473 C   0  0  0  0  0  0  0  0  0  0  0  0
    6.8887   -2.6788    5.2537 C   0  0  0  0  0  0  0  0  0  0  0  0
    6.4116   -3.7441    4.4933 C   0  0  0  0  0  0  0  0  0  0  0  0
    4.9714   -5.7522    2.3425 C   0  0  0  0  0  0  0  0  0  0  0  0
    3.7583   -6.3339    2.1692 C   0  0  0  0  0  0  0  0  0  0  0  0
    3.9609   -7.7951    2.3612 C   0  0  0  0  0  0  0  0  0  0  0  0
    3.1098   -8.6482    2.4556 O   0  0  0  0  0  0  0  0  0  0  0  0
    5.2935   -7.9991    2.4649 N   0  0  0  0  0  0  0  0  0  0  0  0
    5.8957   -6.8304    2.7845 C   0  0  0  0  0  0  0  0  0  0  0  0
    6.9396   -6.7155    3.3732 O   0  0  0  0  0  0  0  0  0  0  0  0
    2.4997   -5.7563    1.7983 C   0  0  0  0  0  0  0  0  0  0  0  0
    1.3784   -6.3721    1.2795 C   0  0  0  0  0  0  0  0  0  0  0  0
    0.4809   -5.3961    0.9013 N   0  0  0  0  0  0  0  0  0  0  0  0
   -0.4472   -5.5524    0.5342 H   0  0  0  0  0  0  0  0  0  0  0  0
    0.9312   -4.1686    1.3113 C   0  0  0  0  0  0  0  0  0  0  0  0
    2.0974   -4.4174    2.0239 C   0  0  0  0  0  0  0  0  0  0  0  0
    2.6373   -3.3827    2.7809 C   0  0  0  0  0  0  0  0  0  0  0  0
    2.1097   -2.1237    2.7400 C   0  0  0  0  0  0  0  0  0  0  0  0
    0.9827   -1.8906    1.9681 C   0  0  0  0  0  0  0  0  0  0  0  0
    0.3796   -2.8917    1.1996 C   0  0  0  0  0  0  0  0  0  0  0  0
    0.6860    0.8973   -1.0101 H   0  0  0  0  0  0  0  0  0  0  0  0
    0.7289    0.4454    0.5242 H   0  0  0  0  0  0  0  0  0  0  0  0
    2.8671    1.1951   -0.0711 H   0  0  0  0  0  0  0  0  0  0  0  0
    2.8653    0.0733   -1.4747 H   0  0  0  0  0  0  0  0  0  0  0  0
    2.7823   -1.8246    0.1685 H   0  0  0  0  0  0  0  0  0  0  0  0
    2.9417   -0.4785    1.4130 H   0  0  0  0  0  0  0  0  0  0  0  0
    5.1748   -0.1941    1.0575 H   0  0  0  0  0  0  0  0  0  0  0  0
    5.1943   -1.2459   -0.3911 H   0  0  0  0  0  0  0  0  0  0  0  0
    4.5030   -3.8412    0.1927 H   0  0  0  0  0  0  0  0  0  0  0  0
    6.1720   -0.0960    3.1493 H   0  0  0  0  0  0  0  0  0  0  0  0
    7.2083   -0.5675    5.3501 H   0  0  0  0  0  0  0  0  0  0  0  0
    7.3105   -2.8681    6.2391 H   0  0  0  0  0  0  0  0  0  0  0  0
    6.4035   -4.7410    4.9324 H   0  0  0  0  0  0  0  0  0  0  0  0
    5.6979   -8.8951    2.6634 H   0  0  0  0  0  0  0  0  0  0  0  0
    1.1229   -7.4149    1.1536 H   0  0  0  0  0  0  0  0  0  0  0  0
    3.5280   -3.5182    3.3640 H   0  0  0  0  0  0  0  0  0  0  0  0
    2.7286   -1.3297    3.1580 H   0  0  0  0  0  0  0  0  0  0  0  0
    0.6522   -0.8686    1.8717 H   0  0  0  0  0  0  0  0  0  0  0  0
   -0.4535   -2.6584    0.5450 H   0  0  0  0  0  0  0  0  0  0  0  0
  1  2  1  0  0  0  0
  1 31  1  0  0  0  0
  1 32  1  0  0  0  0
  2  3  1  0  0  0  0
  2 33  1  0  0  0  0
  2 34  1  0  0  0  0
  3  4  1  0  0  0  0
  3 35  1  0  0  0  0
  3 36  1  0  0  0  0
  4  5  1  0  0  0  0
  4 37  1  0  0  0  0
  4 38  1  0  0  0  0
  5  6  1  0  0  0  0
  5  9  1  0  0  0  0
  6  7  2  0  0  0  0
  6 39  1  0  0  0  0
  7  8  1  0  0  0  0
  7 14  1  0  0  0  0
  8  9  2  0  0  0  0
  8 13  1  0  0  0  0
  9 10  1  0  0  0  0
 10 11  2  0  0  0  0
 10 40  1  0  0  0  0
 11 12  1  0  0  0  0
 11 41  1  0  0  0  0
 12 13  2  0  0  0  0
 12 42  1  0  0  0  0
 13 43  1  0  0  0  0
 14 15  2  0  0  0  0
 14 19  1  0  0  0  0
 15 16  1  0  0  0  0
 15 21  1  0  0  0  0
 16 17  2  0  0  0  0
 16 18  1  0  0  0  0
 18 19  1  0  0  0  0
 18 44  1  0  0  0  0
 19 20  2  0  0  0  0
 21 22  2  0  0  0  0
 21 26  1  0  0  0  0
 22 23  1  0  0  0  0
 22 45  1  0  0  0  0
 23 24  1  0  0  0  0
 23 25  1  0  0  0  0
 25 26  2  0  0  0  0
 25 30  1  0  0  0  0
 26 27  1  0  0  0  0
 27 28  2  0  0  0  0
 27 46  1  0  0  0  0
 28 29  1  0  0  0  0
 28 47  1  0  0  0  0
 29 30  2  0  0  0  0
 29 48  1  0  0  0  0
 30 49  1  0  0  0  0
M  END
$$$$
