BI7
 OpenBabel04121316083D

 59 63  0  0  1  0  0  0  0  0999 V2000
    1.0353    0.0866   -0.1584 O   0  0  0  0  0  0  0  0  0  0  0  0
    2.2494    0.2018   -0.2649 C   0  0  0  0  0  0  0  0  0  0  0  0
    3.0494    1.2336    0.2114 N   0  0  0  0  0  0  0  0  0  0  0  0
    2.7517    2.0544    1.4133 C   0  0  0  0  0  0  0  0  0  0  0  0
    1.3818    1.7661    2.0304 C   0  0  0  0  0  0  0  0  0  0  0  0
    1.0662    2.4922    3.3207 C   0  0  0  0  0  0  0  0  0  0  0  0
   -0.3885    2.1833    3.7711 N   0  0  0  0  0  0  0  0  0  0  0  0
   -1.3757    2.5254    2.6562 C   0  0  0  0  0  0  0  0  0  0  0  0
   -0.5633    0.7125    4.1659 C   0  0  0  0  0  0  0  0  0  0  0  0
   -0.7107    3.0451    4.9839 C   0  0  0  0  0  0  0  0  0  0  0  0
    4.3372    1.0546   -0.2206 C   0  0  0  0  0  0  0  0  0  0  0  0
    5.3330    1.6585    0.1786 O   0  0  0  0  0  0  0  0  0  0  0  0
    4.3285   -0.0411   -1.2550 C   0  0  2  0  0  0  0  0  0  0  0  0
    4.2039    0.4158   -2.2423 H   0  0  0  0  0  0  0  0  0  0  0  0
    3.1355   -0.8787   -0.8463 C   0  0  1  0  0  0  0  0  0  0  0  0
    2.6651   -1.3555   -1.7127 H   0  0  0  0  0  0  0  0  0  0  0  0
    3.7178   -1.9593    0.1179 C   0  0  2  0  0  0  0  0  0  0  0  0
    3.1186   -2.8784    0.0974 H   0  0  0  0  0  0  0  0  0  0  0  0
    3.7778   -1.5407    1.5664 C   0  0  0  0  0  0  0  0  0  0  0  0
    2.8697   -0.6919    2.0255 N   0  0  0  0  0  0  0  0  0  0  0  0
    3.2924   -0.2246    3.2201 O   0  0  0  0  0  0  0  0  0  0  0  0
    4.2559   -1.0434    3.6676 C   0  0  0  0  0  0  0  0  0  0  0  0
    4.5597   -1.9436    2.6580 C   0  0  0  0  0  0  0  0  0  0  0  0
    4.6694   -0.9779    5.0135 C   0  0  0  0  0  0  0  0  0  0  0  0
    4.3906   -0.0094    5.9622 C   0  0  0  0  0  0  0  0  0  0  0  0
    4.8979   -0.4068    7.2386 C   0  0  0  0  0  0  0  0  0  0  0  0
    5.5156   -1.6299    7.1648 C   0  0  0  0  0  0  0  0  0  0  0  0
    5.5179   -2.3077    5.6366 S   0  0  0  0  0  0  0  0  0  0  0  0
    6.2657   -2.5333    8.4031 Cl  0  0  0  0  0  0  0  0  0  0  0  0
    5.1062   -2.1602   -0.3508 N   0  0  3  0  0  0  0  0  0  0  0  0
    5.4944   -0.9806   -1.1733 C   0  0  1  0  0  0  0  0  0  0  0  0
    6.3834   -0.5311   -0.7182 H   0  0  0  0  0  0  0  0  0  0  0  0
    5.8559   -1.5694   -2.5338 C   0  0  0  0  0  0  0  0  0  0  0  0
    6.5198   -2.8472   -2.0786 C   0  0  0  0  0  0  0  0  0  0  0  0
    5.3843   -3.3546   -1.1758 C   0  0  0  0  0  0  0  0  0  0  0  0
    2.8407    3.1126    1.1533 H   0  0  0  0  0  0  0  0  0  0  0  0
    3.5495    1.8909    2.1539 H   0  0  0  0  0  0  0  0  0  0  0  0
    1.2404    0.7106    2.2482 H   0  0  0  0  0  0  0  0  0  0  0  0
    0.6565    1.9979    1.2560 H   0  0  0  0  0  0  0  0  0  0  0  0
    1.1365    3.5732    3.1730 H   0  0  0  0  0  0  0  0  0  0  0  0
    1.7234    2.1939    4.1482 H   0  0  0  0  0  0  0  0  0  0  0  0
   -1.2146    1.8561    1.8081 H   0  0  0  0  0  0  0  0  0  0  0  0
   -1.2089    3.5678    2.3693 H   0  0  0  0  0  0  0  0  0  0  0  0
   -2.3904    2.3727    3.0274 H   0  0  0  0  0  0  0  0  0  0  0  0
   -0.3844    0.0730    3.2992 H   0  0  0  0  0  0  0  0  0  0  0  0
   -1.5940    0.5704    4.5052 H   0  0  0  0  0  0  0  0  0  0  0  0
    0.1414    0.4837    4.9708 H   0  0  0  0  0  0  0  0  0  0  0  0
   -0.5861    4.0942    4.7017 H   0  0  0  0  0  0  0  0  0  0  0  0
   -0.0220    2.7790    5.7910 H   0  0  0  0  0  0  0  0  0  0  0  0
   -1.7450    2.8487    5.2809 H   0  0  0  0  0  0  0  0  0  0  0  0
    5.2352   -2.7805    2.7110 H   0  0  0  0  0  0  0  0  0  0  0  0
    3.8482    0.9164    5.7789 H   0  0  0  0  0  0  0  0  0  0  0  0
    4.8099    0.1687    8.1499 H   0  0  0  0  0  0  0  0  0  0  0  0
    6.4666   -0.9006   -3.1412 H   0  0  0  0  0  0  0  0  0  0  0  0
    4.9632   -1.8335   -3.1241 H   0  0  0  0  0  0  0  0  0  0  0  0
    7.4291   -2.6058   -1.5051 H   0  0  0  0  0  0  0  0  0  0  0  0
    6.8131   -3.4887   -2.9128 H   0  0  0  0  0  0  0  0  0  0  0  0
    5.6487   -4.2306   -0.5773 H   0  0  0  0  0  0  0  0  0  0  0  0
    4.5121   -3.6173   -1.7920 H   0  0  0  0  0  0  0  0  0  0  0  0
  1  2  2  0  0  0  0
  2  3  1  0  0  0  0
  2 15  1  0  0  0  0
  3  4  1  0  0  0  0
  3 11  1  0  0  0  0
  4  5  1  0  0  0  0
  4 36  1  0  0  0  0
  4 37  1  0  0  0  0
  5  6  1  0  0  0  0
  5 38  1  0  0  0  0
  5 39  1  0  0  0  0
  6  7  1  0  0  0  0
  6 40  1  0  0  0  0
  6 41  1  0  0  0  0
  7  8  1  0  0  0  0
  7  9  1  0  0  0  0
  7 10  1  0  0  0  0
  8 42  1  0  0  0  0
  8 43  1  0  0  0  0
  8 44  1  0  0  0  0
  9 45  1  0  0  0  0
  9 46  1  0  0  0  0
  9 47  1  0  0  0  0
 10 48  1  0  0  0  0
 10 49  1  0  0  0  0
 10 50  1  0  0  0  0
 11 12  2  0  0  0  0
 11 13  1  0  0  0  0
 13 14  1  6  0  0  0
 13 15  1  0  0  0  0
 13 31  1  0  0  0  0
 15 16  1  6  0  0  0
 15 17  1  0  0  0  0
 17 30  1  0  0  0  0
 17 19  1  0  0  0  0
 17 18  1  6  0  0  0
 19 20  2  0  0  0  0
 19 23  1  0  0  0  0
 20 21  1  0  0  0  0
 21 22  1  0  0  0  0
 22 23  2  0  0  0  0
 22 24  1  0  0  0  0
 23 51  1  0  0  0  0
 24 25  2  0  0  0  0
 24 28  1  0  0  0  0
 25 26  1  0  0  0  0
 25 52  1  0  0  0  0
 26 27  2  0  0  0  0
 26 53  1  0  0  0  0
 27 28  1  0  0  0  0
 27 29  1  0  0  0  0
 30 31  1  0  0  0  0
 30 35  1  0  0  0  0
 31 32  1  1  0  0  0
 31 33  1  0  0  0  0
 33 34  1  0  0  0  0
 33 54  1  0  0  0  0
 33 55  1  0  0  0  0
 34 35  1  0  0  0  0
 34 56  1  0  0  0  0
 34 57  1  0  0  0  0
 35 58  1  0  0  0  0
 35 59  1  0  0  0  0
M  END
$$$$
