BIA
 OpenBabel04121316083D

 51 53  0  0  0  0  0  0  0  0999 V2000
    0.9719    0.0215    0.3157 O   0  0  0  0  0  0  0  0  0  0  0  0
    2.1841    0.0063    0.3055 C   0  0  0  0  0  0  0  0  0  0  0  0
    2.9206   -0.2453    1.5131 C   0  0  0  0  0  0  0  0  0  0  0  0
    3.5016    0.8358    2.1584 C   0  0  0  0  0  0  0  0  0  0  0  0
    4.2305    0.5601    3.2898 C   0  0  0  0  0  0  0  0  0  0  0  0
    4.8262    1.5667    3.9954 O   0  0  0  0  0  0  0  0  0  0  0  0
    4.3716   -0.7586    3.7522 C   0  0  0  0  0  0  0  0  0  0  0  0
    3.8124   -1.8296    3.0417 C   0  0  0  0  0  0  0  0  0  0  0  0
    3.0897   -1.5724    1.8827 C   0  0  0  0  0  0  0  0  0  0  0  0
    3.9319   -3.2240    3.4729 N   0  3  0  0  0  0  0  0  0  0  0  0
    4.5143   -3.4825    4.5303 O   0  0  0  0  0  0  0  0  0  0  0  0
    3.4253   -4.0852    2.7351 O   0  5  0  0  0  0  0  0  0  0  0  0
    5.0646   -0.9291    4.9141 O   0  0  0  0  0  0  0  0  0  0  0  0
    3.0004    0.1138   -0.9254 C   0  0  0  0  0  0  0  0  0  0  0  0
    4.5294    0.2605   -0.8782 C   0  0  0  0  0  0  0  0  0  0  0  0
    5.2261    0.5644   -2.1386 N   0  0  0  0  0  0  0  0  0  0  0  0
    4.8122   -0.3258   -3.2365 C   0  0  0  0  0  0  0  0  0  0  0  0
    3.3903   -0.0946   -3.7698 C   0  0  0  0  0  0  0  0  0  0  0  0
    3.1298    1.3251   -4.0354 N   0  0  0  0  0  0  0  0  0  0  0  0
    3.6419    2.3309   -3.0699 C   0  0  0  0  0  0  0  0  0  0  0  0
    5.0498    1.9647   -2.5737 C   0  0  0  0  0  0  0  0  0  0  0  0
    2.5596    1.6683   -5.2408 C   0  0  0  0  0  0  0  0  0  0  0  0
    2.1241    0.7146   -6.1766 C   0  0  0  0  0  0  0  0  0  0  0  0
    1.7155    1.0640   -7.4562 C   0  0  0  0  0  0  0  0  0  0  0  0
    1.8216    2.3823   -7.8574 C   0  0  0  0  0  0  0  0  0  0  0  0
    2.1909    3.3612   -6.9354 C   0  0  0  0  0  0  0  0  0  0  0  0
    2.4418    2.9995   -5.6155 C   0  0  0  0  0  0  0  0  0  0  0  0
    2.3952    4.7835   -7.3532 C   0  0  0  0  0  0  0  0  0  0  0  0
    3.3725    4.8990   -8.2937 F   0  0  0  0  0  0  0  0  0  0  0  0
    1.2751    5.3309   -7.8892 F   0  0  0  0  0  0  0  0  0  0  0  0
    2.7698    5.6069   -6.3319 F   0  0  0  0  0  0  0  0  0  0  0  0
    3.3958    1.8394    1.7550 H   0  0  0  0  0  0  0  0  0  0  0  0
    4.6348    2.4173    3.5581 H   0  0  0  0  0  0  0  0  0  0  0  0
    2.6612   -2.3628    1.2653 H   0  0  0  0  0  0  0  0  0  0  0  0
    5.3118   -0.0345    5.2199 H   0  0  0  0  0  0  0  0  0  0  0  0
    2.5186    0.9530   -1.4034 H   0  0  0  0  0  0  0  0  0  0  0  0
    2.7666   -0.8313   -1.4114 H   0  0  0  0  0  0  0  0  0  0  0  0
    4.9386   -0.6950   -0.5237 H   0  0  0  0  0  0  0  0  0  0  0  0
    4.8528    1.0004   -0.1400 H   0  0  0  0  0  0  0  0  0  0  0  0
    4.9347   -1.3745   -2.9410 H   0  0  0  0  0  0  0  0  0  0  0  0
    5.5041   -0.1816   -4.0799 H   0  0  0  0  0  0  0  0  0  0  0  0
    2.5737   -0.4415   -3.1461 H   0  0  0  0  0  0  0  0  0  0  0  0
    3.3074   -0.7787   -4.6133 H   0  0  0  0  0  0  0  0  0  0  0  0
    2.9505    2.4687   -2.2352 H   0  0  0  0  0  0  0  0  0  0  0  0
    3.7113    3.3485   -3.4557 H   0  0  0  0  0  0  0  0  0  0  0  0
    5.3506    2.6486   -1.7700 H   0  0  0  0  0  0  0  0  0  0  0  0
    5.7474    2.1675   -3.3993 H   0  0  0  0  0  0  0  0  0  0  0  0
    2.1008   -0.3476   -5.9607 H   0  0  0  0  0  0  0  0  0  0  0  0
    1.3635    0.2925   -8.1331 H   0  0  0  0  0  0  0  0  0  0  0  0
    1.6167    2.6497   -8.8881 H   0  0  0  0  0  0  0  0  0  0  0  0
    2.6061    3.8006   -4.9044 H   0  0  0  0  0  0  0  0  0  0  0  0
  1  2  2  0  0  0  0
  2  3  1  0  0  0  0
  2 14  1  0  0  0  0
  3  4  2  0  0  0  0
  3  9  1  0  0  0  0
  4  5  1  0  0  0  0
  4 32  1  0  0  0  0
  5  6  1  0  0  0  0
  5  7  2  0  0  0  0
  6 33  1  0  0  0  0
  7  8  1  0  0  0  0
  7 13  1  0  0  0  0
  8  9  2  0  0  0  0
  8 10  1  0  0  0  0
  9 34  1  0  0  0  0
 10 11  2  0  0  0  0
 10 12  1  0  0  0  0
 13 35  1  0  0  0  0
 14 15  1  0  0  0  0
 14 36  1  0  0  0  0
 14 37  1  0  0  0  0
 15 16  1  0  0  0  0
 15 38  1  0  0  0  0
 15 39  1  0  0  0  0
 16 17  1  0  0  0  0
 16 21  1  0  0  0  0
 17 18  1  0  0  0  0
 17 40  1  0  0  0  0
 17 41  1  0  0  0  0
 18 19  1  0  0  0  0
 18 42  1  0  0  0  0
 18 43  1  0  0  0  0
 19 20  1  0  0  0  0
 19 22  1  0  0  0  0
 20 21  1  0  0  0  0
 20 44  1  0  0  0  0
 20 45  1  0  0  0  0
 21 46  1  0  0  0  0
 21 47  1  0  0  0  0
 22 23  2  0  0  0  0
 22 27  1  0  0  0  0
 23 24  1  0  0  0  0
 23 48  1  0  0  0  0
 24 25  2  0  0  0  0
 24 49  1  0  0  0  0
 25 26  1  0  0  0  0
 25 50  1  0  0  0  0
 26 27  2  0  0  0  0
 26 28  1  0  0  0  0
 27 51  1  0  0  0  0
 28 29  1  0  0  0  0
 28 30  1  0  0  0  0
 28 31  1  0  0  0  0
M  CHG  2  10   1  12  -1
M  END
$$$$
