BIR
 OpenBabel04121316083D

 56 57  0  0  1  0  0  0  0  0999 V2000
    0.9898    0.0706    0.0767 C   0  0  0  0  0  0  0  0  0  0  0  0
    2.5164    0.0136    0.0759 C   0  0  1  0  0  0  0  0  0  0  0  0
    2.9237    0.3912    1.0216 H   0  0  0  0  0  0  0  0  0  0  0  0
    2.9813   -1.4370   -0.1512 C   0  0  0  0  0  0  0  0  0  0  0  0
    3.5755   -1.8228   -1.1656 O   0  0  0  0  0  0  0  0  0  0  0  0
    2.6403   -2.2985    0.8287 O   0  0  0  0  0  0  0  0  0  0  0  0
    3.0301    0.8601   -1.0051 N   0  0  0  0  0  0  0  0  0  0  0  0
    4.4004    1.0395   -1.1278 C   0  0  0  0  0  0  0  0  0  0  0  0
    5.1758    0.5830   -0.2905 O   0  0  0  0  0  0  0  0  0  0  0  0
    4.8789    1.8647   -2.3368 C   0  0  1  0  0  0  0  0  0  0  0  0
    4.4854    1.3977   -3.2487 H   0  0  0  0  0  0  0  0  0  0  0  0
    4.3356    3.2924   -2.1995 C   0  0  0  0  0  0  0  0  0  0  0  0
    2.5056    3.2924   -2.1995 P   0  0  1  0  0  0  0  0  0  0  0  0
    2.4768    4.4188   -1.1632 O   0  0  0  0  0  0  0  0  0  0  0  0
    2.4664    3.9730   -4.0341 C   0  0  1  0  0  0  0  0  0  0  0  0
    1.8907    3.2184   -4.5785 H   0  0  0  0  0  0  0  0  0  0  0  0
    1.7551    5.2491   -3.9784 N   0  0  0  0  0  0  0  0  0  0  0  0
    3.7822    4.1973   -4.7354 C   0  0  0  0  0  0  0  0  0  0  0  0
    0.7756    3.2924   -2.1995 O   0  0  0  0  0  0  0  0  0  0  0  0
    6.4283    1.8694   -2.3470 C   0  0  0  0  0  0  0  0  0  0  0  0
    6.9757    2.7151   -3.4707 C   0  0  0  0  0  0  0  0  0  0  0  0
    7.0364    4.1089   -3.3285 C   0  0  0  0  0  0  0  0  0  0  0  0
    7.0540    4.9139   -4.4611 C   0  0  0  0  0  0  0  0  0  0  0  0
    7.2234    4.3441   -5.7266 C   0  0  0  0  0  0  0  0  0  0  0  0
    7.4214    2.9617   -5.8267 C   0  0  0  0  0  0  0  0  0  0  0  0
    7.2290    2.1430   -4.7172 C   0  0  0  0  0  0  0  0  0  0  0  0
    7.1957    5.1906   -6.9127 C   0  0  0  0  0  0  0  0  0  0  0  0
    8.3810    5.4411   -7.6051 C   0  0  0  0  0  0  0  0  0  0  0  0
    8.4102    6.3915   -8.6201 C   0  0  0  0  0  0  0  0  0  0  0  0
    7.2309    7.0074   -9.0360 C   0  0  0  0  0  0  0  0  0  0  0  0
    6.0194    6.6700   -8.4416 C   0  0  0  0  0  0  0  0  0  0  0  0
    6.0120    5.8081   -7.3481 C   0  0  0  0  0  0  0  0  0  0  0  0
    0.5649   -0.5224    0.8924 H   0  0  0  0  0  0  0  0  0  0  0  0
    0.5866   -0.3282   -0.8624 H   0  0  0  0  0  0  0  0  0  0  0  0
    0.6256    1.0988    0.1790 H   0  0  0  0  0  0  0  0  0  0  0  0
    2.1672   -1.9032    1.5852 H   0  0  0  0  0  0  0  0  0  0  0  0
    2.4354    0.9158   -1.8186 H   0  0  0  0  0  0  0  0  0  0  0  0
    4.8014    4.0818   -2.7471 H   0  0  0  0  0  0  0  0  0  0  0  0
    4.6110    3.5836   -1.1710 H   0  0  0  0  0  0  0  0  0  0  0  0
    0.8306    5.0787   -3.5792 H   0  0  0  0  0  0  0  0  0  0  0  0
    1.6404    5.6183   -4.9175 H   0  0  0  0  0  0  0  0  0  0  0  0
    4.3853    3.2867   -4.7096 H   0  0  0  0  0  0  0  0  0  0  0  0
    4.3201    5.0323   -4.2704 H   0  0  0  0  0  0  0  0  0  0  0  0
    3.6561    4.4642   -5.7802 H   0  0  0  0  0  0  0  0  0  0  0  0
    0.4656    3.2316   -1.2735 H   0  0  0  0  0  0  0  0  0  0  0  0
    6.7969    0.8406   -2.4433 H   0  0  0  0  0  0  0  0  0  0  0  0
    6.8149    2.2466   -1.3920 H   0  0  0  0  0  0  0  0  0  0  0  0
    6.8773    4.5790   -2.3580 H   0  0  0  0  0  0  0  0  0  0  0  0
    6.8594    5.9812   -4.3580 H   0  0  0  0  0  0  0  0  0  0  0  0
    7.6601    2.5131   -6.7869 H   0  0  0  0  0  0  0  0  0  0  0  0
    7.2238    1.0635   -4.8421 H   0  0  0  0  0  0  0  0  0  0  0  0
    9.2921    4.9216   -7.3183 H   0  0  0  0  0  0  0  0  0  0  0  0
    9.3586    6.6546   -9.0767 H   0  0  0  0  0  0  0  0  0  0  0  0
    7.2581    7.7528   -9.8245 H   0  0  0  0  0  0  0  0  0  0  0  0
    5.0879    7.0929   -8.8078 H   0  0  0  0  0  0  0  0  0  0  0  0
    5.0738    5.6345   -6.8327 H   0  0  0  0  0  0  0  0  0  0  0  0
  1  2  1  0  0  0  0
  1 33  1  0  0  0  0
  1 34  1  0  0  0  0
  1 35  1  0  0  0  0
  2  3  1  1  0  0  0
  2  4  1  0  0  0  0
  2  7  1  0  0  0  0
  4  5  2  0  0  0  0
  4  6  1  0  0  0  0
  6 36  1  0  0  0  0
  7  8  1  0  0  0  0
  7 37  1  0  0  0  0
  8  9  2  0  0  0  0
  8 10  1  0  0  0  0
 10 11  1  6  0  0  0
 10 12  1  0  0  0  0
 10 20  1  0  0  0  0
 12 38  1  0  0  0  0
 12 39  1  0  0  0  0
 13 12  1  1  0  0  0
 13 14  2  0  0  0  0
 13 15  1  0  0  0  0
 13 19  1  0  0  0  0
 15 16  1  6  0  0  0
 15 17  1  0  0  0  0
 15 18  1  0  0  0  0
 17 40  1  0  0  0  0
 17 41  1  0  0  0  0
 18 42  1  0  0  0  0
 18 43  1  0  0  0  0
 18 44  1  0  0  0  0
 19 45  1  0  0  0  0
 20 21  1  0  0  0  0
 20 46  1  0  0  0  0
 20 47  1  0  0  0  0
 21 22  2  0  0  0  0
 21 26  1  0  0  0  0
 22 23  1  0  0  0  0
 22 48  1  0  0  0  0
 23 24  2  0  0  0  0
 23 49  1  0  0  0  0
 24 25  1  0  0  0  0
 24 27  1  0  0  0  0
 25 26  2  0  0  0  0
 25 50  1  0  0  0  0
 26 51  1  0  0  0  0
 27 28  2  0  0  0  0
 27 32  1  0  0  0  0
 28 29  1  0  0  0  0
 28 52  1  0  0  0  0
 29 30  2  0  0  0  0
 29 53  1  0  0  0  0
 30 31  1  0  0  0  0
 30 54  1  0  0  0  0
 31 32  2  0  0  0  0
 31 55  1  0  0  0  0
 32 56  1  0  0  0  0
M  END
$$$$
