BIX
 OpenBabel04121316083D

 38 37  0  0  1  0  0  0  0  0999 V2000
   11.6684    8.7003    0.4595 O   0  0  0  0  0  0  0  0  0  0  0  0
   10.6967    7.8144    0.7353 C   0  0  0  0  0  0  0  0  0  0  0  0
    9.5677    8.1700    1.0568 O   0  0  0  0  0  0  0  0  0  0  0  0
   11.1847    6.4283    0.4826 C   0  0  0  0  0  0  0  0  0  0  0  0
   10.1425    5.3748    0.8072 C   0  0  0  0  0  0  0  0  0  0  0  0
   10.5140    3.9920    0.1856 C   0  0  1  0  0  0  0  0  0  0  0  0
   10.8726    4.0679   -0.8524 H   0  0  0  0  0  0  0  0  0  0  0  0
   11.6107    3.3590    1.0144 C   0  0  0  0  0  0  0  0  0  0  0  0
   11.4558    2.3874    1.7377 O   0  0  0  0  0  0  0  0  0  0  0  0
   12.8115    3.9661    0.9033 O   0  0  0  0  0  0  0  0  0  0  0  0
    9.3155    3.0338    0.1582 C   0  0  0  0  0  0  0  0  0  0  0  0
    7.8421    3.5518   -0.8305 P   0  0  2  0  0  0  0  0  0  0  0  0
    7.0700    2.2533   -0.5106 O   0  0  0  0  0  0  0  0  0  0  0  0
    7.9327    3.1004   -2.5976 C   0  0  0  0  0  0  0  0  0  0  0  0
    7.1866    1.7923   -2.9244 C   0  0  0  0  0  0  0  0  0  0  0  0
    7.1522    1.4362   -4.3931 C   0  0  1  0  0  0  0  0  0  0  0  0
    6.6541    2.2223   -4.9685 H   0  0  0  0  0  0  0  0  0  0  0  0
    8.5819    1.2107   -4.9320 C   0  0  0  0  0  0  0  0  0  0  0  0
    9.0304    0.1264   -5.2762 O   0  0  0  0  0  0  0  0  0  0  0  0
    9.3605    2.3204   -4.9810 O   0  0  0  0  0  0  0  0  0  0  0  0
    6.3556    0.1956   -4.5370 N   0  0  0  0  0  0  0  0  0  0  0  0
    8.7071    5.0066   -1.1889 O   0  0  0  0  0  0  0  0  0  0  0  0
   11.2273    9.5727    0.4605 H   0  0  0  0  0  0  0  0  0  0  0  0
   12.0617    6.2790    1.1099 H   0  0  0  0  0  0  0  0  0  0  0  0
   11.4561    6.3779   -0.5827 H   0  0  0  0  0  0  0  0  0  0  0  0
    9.1928    5.8074    0.4860 H   0  0  0  0  0  0  0  0  0  0  0  0
    9.9543    5.2793    1.8774 H   0  0  0  0  0  0  0  0  0  0  0  0
   12.8661    4.6905    0.2547 H   0  0  0  0  0  0  0  0  0  0  0  0
    8.9237    2.9592    1.1844 H   0  0  0  0  0  0  0  0  0  0  0  0
    9.5984    2.0172   -0.1391 H   0  0  0  0  0  0  0  0  0  0  0  0
    8.9954    3.0446   -2.8031 H   0  0  0  0  0  0  0  0  0  0  0  0
    7.4509    3.9127   -3.1571 H   0  0  0  0  0  0  0  0  0  0  0  0
    6.1441    1.8745   -2.5681 H   0  0  0  0  0  0  0  0  0  0  0  0
    7.6476    0.9726   -2.3549 H   0  0  0  0  0  0  0  0  0  0  0  0
    8.9331    3.1586   -4.7365 H   0  0  0  0  0  0  0  0  0  0  0  0
    5.4538    0.2751   -4.0686 H   0  0  0  0  0  0  0  0  0  0  0  0
    6.8506   -0.5575   -4.0463 H   0  0  0  0  0  0  0  0  0  0  0  0
    8.1830    5.6332   -1.7319 H   0  0  0  0  0  0  0  0  0  0  0  0
  1  2  1  0  0  0  0
  1 23  1  0  0  0  0
  2  3  2  0  0  0  0
  2  4  1  0  0  0  0
  4  5  1  0  0  0  0
  4 24  1  0  0  0  0
  4 25  1  0  0  0  0
  5  6  1  0  0  0  0
  5 26  1  0  0  0  0
  5 27  1  0  0  0  0
  6  7  1  6  0  0  0
  6  8  1  0  0  0  0
  6 11  1  0  0  0  0
  8  9  2  0  0  0  0
  8 10  1  0  0  0  0
 10 28  1  0  0  0  0
 11 29  1  0  0  0  0
 11 30  1  0  0  0  0
 12 14  1  6  0  0  0
 12 22  1  0  0  0  0
 12 13  2  0  0  0  0
 12 11  1  0  0  0  0
 14 15  1  0  0  0  0
 14 31  1  0  0  0  0
 14 32  1  0  0  0  0
 15 16  1  0  0  0  0
 15 33  1  0  0  0  0
 15 34  1  0  0  0  0
 16 17  1  6  0  0  0
 16 18  1  0  0  0  0
 16 21  1  0  0  0  0
 18 19  2  0  0  0  0
 18 20  1  0  0  0  0
 20 35  1  0  0  0  0
 21 36  1  0  0  0  0
 21 37  1  0  0  0  0
 22 38  1  0  0  0  0
M  END
$$$$
