BJZ
 OpenBabel04121316083D

 56 60  0  0  1  0  0  0  0  0999 V2000
    0.8624   -0.0659    0.0805 N   0  0  0  0  0  0  0  0  0  0  0  0
    2.0146   -0.0452    0.1035 C   0  0  0  0  0  0  0  0  0  0  0  0
    3.4452   -0.0338    0.0668 C   0  0  0  0  0  0  0  0  0  0  0  0
    4.1361    1.1729    0.0363 C   0  0  0  0  0  0  0  0  0  0  0  0
    5.4906    1.1698   -0.2748 C   0  0  0  0  0  0  0  0  0  0  0  0
    6.2203   -0.0298   -0.2888 C   0  0  0  0  0  0  0  0  0  0  0  0
    5.5236   -1.2214   -0.0598 C   0  0  0  0  0  0  0  0  0  0  0  0
    4.1399   -1.2353    0.0063 C   0  0  0  0  0  0  0  0  0  0  0  0
    7.7259   -0.0156   -0.5337 C   0  0  2  0  0  0  0  0  0  0  0  0
    7.8662    0.4293   -1.5321 H   0  0  0  0  0  0  0  0  0  0  0  0
    8.3620   -1.4313   -0.5092 C   0  0  0  0  0  0  0  0  0  0  0  0
    8.6640   -1.6119    0.9054 N   0  0  0  0  0  0  0  0  0  0  0  0
    9.0890   -0.3687    1.5130 C   0  0  0  0  0  0  0  0  0  0  0  0
    8.5793    0.7123    0.5544 C   0  0  2  0  0  0  0  0  0  0  0  0
    7.7883    1.7238    1.3638 C   0  0  0  0  0  0  0  0  0  0  0  0
    7.0150    1.4081    2.2608 O   0  0  0  0  0  0  0  0  0  0  0  0
    8.0260    2.9827    0.8604 N   0  0  0  0  0  0  0  0  0  0  0  0
    9.0352    2.9101   -0.0891 C   0  0  0  0  0  0  0  0  0  0  0  0
    9.4459    3.7756   -0.8461 O   0  0  0  0  0  0  0  0  0  0  0  0
    9.5492    1.6161   -0.0518 N   0  0  0  0  0  0  0  0  0  0  0  0
   10.8676    1.2274   -0.5304 C   0  0  0  0  0  0  0  0  0  0  0  0
    7.4120    4.1655    1.3612 C   0  0  0  0  0  0  0  0  0  0  0  0
    6.3337    4.1221    2.2688 C   0  0  0  0  0  0  0  0  0  0  0  0
    5.8111    5.2887    2.8268 C   0  0  0  0  0  0  0  0  0  0  0  0
    4.5110    5.1918    3.9509 Cl  0  0  0  0  0  0  0  0  0  0  0  0
    6.3391    6.5241    2.4895 C   0  0  0  0  0  0  0  0  0  0  0  0
    7.3843    6.5834    1.5777 C   0  0  0  0  0  0  0  0  0  0  0  0
    7.9114    5.4229    1.0128 C   0  0  0  0  0  0  0  0  0  0  0  0
    8.0633    8.1042    1.1515 Cl  0  0  0  0  0  0  0  0  0  0  0  0
    8.5584   -2.7665    1.6278 C   0  0  0  0  0  0  0  0  0  0  0  0
    9.4851   -3.7706    1.4187 C   0  0  0  0  0  0  0  0  0  0  0  0
    9.3104   -5.0235    2.0061 C   0  0  0  0  0  0  0  0  0  0  0  0
    8.2633   -5.2441    2.8972 C   0  0  0  0  0  0  0  0  0  0  0  0
    7.4796   -4.1408    3.1904 C   0  0  0  0  0  0  0  0  0  0  0  0
    7.5832   -2.9293    2.5531 N   0  0  0  0  0  0  0  0  0  0  0  0
    8.0945   -6.6191    3.4414 C   0  0  0  0  0  0  0  0  0  0  0  0
    8.8307   -7.5317    3.0944 O   0  0  0  0  0  0  0  0  0  0  0  0
    7.0834   -6.8290    4.3052 O   0  0  0  0  0  0  0  0  0  0  0  0
    3.6315    2.1172    0.2255 H   0  0  0  0  0  0  0  0  0  0  0  0
    5.9707    2.1302   -0.4366 H   0  0  0  0  0  0  0  0  0  0  0  0
    6.0269   -2.1735    0.0760 H   0  0  0  0  0  0  0  0  0  0  0  0
    3.6279   -2.1930    0.0269 H   0  0  0  0  0  0  0  0  0  0  0  0
    9.2909   -1.4356   -1.0894 H   0  0  0  0  0  0  0  0  0  0  0  0
    7.7277   -2.2048   -0.9543 H   0  0  0  0  0  0  0  0  0  0  0  0
   10.1798   -0.3629    1.5527 H   0  0  0  0  0  0  0  0  0  0  0  0
    8.7177   -0.2471    2.5336 H   0  0  0  0  0  0  0  0  0  0  0  0
   11.4138    2.0852   -0.9345 H   0  0  0  0  0  0  0  0  0  0  0  0
   10.7844    0.4485   -1.2903 H   0  0  0  0  0  0  0  0  0  0  0  0
   11.4477    0.8435    0.3150 H   0  0  0  0  0  0  0  0  0  0  0  0
    5.8679    3.1906    2.5802 H   0  0  0  0  0  0  0  0  0  0  0  0
    5.9415    7.4299    2.9335 H   0  0  0  0  0  0  0  0  0  0  0  0
    8.7450    5.5303    0.3263 H   0  0  0  0  0  0  0  0  0  0  0  0
   10.3566   -3.5706    0.8081 H   0  0  0  0  0  0  0  0  0  0  0  0
   10.0042   -5.8231    1.7596 H   0  0  0  0  0  0  0  0  0  0  0  0
    6.7285   -4.1598    3.9742 H   0  0  0  0  0  0  0  0  0  0  0  0
    6.4962   -6.0936    4.5407 H   0  0  0  0  0  0  0  0  0  0  0  0
  1  2  3  0  0  0  0
  2  3  1  0  0  0  0
  3  4  2  0  0  0  0
  3  8  1  0  0  0  0
  4  5  1  0  0  0  0
  4 39  1  0  0  0  0
  5  6  2  0  0  0  0
  5 40  1  0  0  0  0
  6  7  1  0  0  0  0
  6  9  1  0  0  0  0
  7  8  2  0  0  0  0
  7 41  1  0  0  0  0
  8 42  1  0  0  0  0
  9 10  1  6  0  0  0
  9 11  1  0  0  0  0
  9 14  1  0  0  0  0
 11 12  1  0  0  0  0
 11 43  1  0  0  0  0
 11 44  1  0  0  0  0
 12 13  1  0  0  0  0
 12 30  1  0  0  0  0
 13 45  1  0  0  0  0
 13 46  1  0  0  0  0
 14 13  1  1  0  0  0
 14 15  1  0  0  0  0
 14 20  1  0  0  0  0
 15 16  2  0  0  0  0
 15 17  1  0  0  0  0
 17 18  1  0  0  0  0
 17 22  1  0  0  0  0
 18 19  2  0  0  0  0
 18 20  1  0  0  0  0
 20 21  1  0  0  0  0
 21 47  1  0  0  0  0
 21 48  1  0  0  0  0
 21 49  1  0  0  0  0
 22 23  2  0  0  0  0
 22 28  1  0  0  0  0
 23 24  1  0  0  0  0
 23 50  1  0  0  0  0
 24 25  1  0  0  0  0
 24 26  2  0  0  0  0
 26 27  1  0  0  0  0
 26 51  1  0  0  0  0
 27 28  2  0  0  0  0
 27 29  1  0  0  0  0
 28 52  1  0  0  0  0
 30 31  2  0  0  0  0
 30 35  1  0  0  0  0
 31 32  1  0  0  0  0
 31 53  1  0  0  0  0
 32 33  2  0  0  0  0
 32 54  1  0  0  0  0
 33 34  1  0  0  0  0
 33 36  1  0  0  0  0
 34 35  2  0  0  0  0
 34 55  1  0  0  0  0
 36 37  2  0  0  0  0
 36 38  1  0  0  0  0
 38 56  1  0  0  0  0
M  END
$$$$
