BK1
 OpenBabel04121316083D

 43 46  0  0  0  0  0  0  0  0999 V2000
    1.0461    0.0875   -0.1206 N   0  0  0  0  0  0  0  0  0  0  0  0
    2.4200    0.0478   -0.0729 C   0  0  0  0  0  0  0  0  0  0  0  0
    3.0913    1.2128   -0.1282 N   0  0  0  0  0  0  0  0  0  0  0  0
    4.4388    1.1706   -0.1166 C   0  0  0  0  0  0  0  0  0  0  0  0
    5.2368    0.0920   -0.0905 N   0  0  0  0  0  0  0  0  0  0  0  0
    4.5328   -1.0455    0.0269 C   0  0  0  0  0  0  0  0  0  0  0  0
    3.1539   -1.1317    0.0665 C   0  0  0  0  0  0  0  0  0  0  0  0
    2.8746   -2.5063    0.2152 C   0  0  0  0  0  0  0  0  0  0  0  0
    1.4998   -3.0946    0.0446 C   0  0  0  0  0  0  0  0  0  0  0  0
    1.5267   -4.5981   -0.0531 C   0  0  0  0  0  0  0  0  0  0  0  0
    0.5562   -5.3005    0.6826 C   0  0  0  0  0  0  0  0  0  0  0  0
    0.5557   -6.6892    0.7018 C   0  0  0  0  0  0  0  0  0  0  0  0
    1.5382   -7.3855    0.0043 C   0  0  0  0  0  0  0  0  0  0  0  0
    2.4567   -6.7172   -0.8170 C   0  0  0  0  0  0  0  0  0  0  0  0
    2.4099   -5.3074   -0.9099 C   0  0  0  0  0  0  0  0  0  0  0  0
    3.2585   -4.6905   -1.8576 C   0  0  0  0  0  0  0  0  0  0  0  0
    4.1341   -5.4068   -2.6584 C   0  0  0  0  0  0  0  0  0  0  0  0
    4.1841   -6.7832   -2.5396 C   0  0  0  0  0  0  0  0  0  0  0  0
    3.3914   -7.4246   -1.5885 C   0  0  0  0  0  0  0  0  0  0  0  0
    4.0051   -3.1974    0.4647 N   0  0  0  0  0  0  0  0  0  0  0  0
    4.9994   -2.3386    0.1196 N   0  0  0  0  0  0  0  0  0  0  0  0
    6.3719   -2.8390   -0.0003 C   0  0  0  0  0  0  0  0  0  0  0  0
    6.6289   -3.7268   -1.2271 C   0  0  0  0  0  0  0  0  0  0  0  0
    7.4173   -1.7288   -0.0180 C   0  0  0  0  0  0  0  0  0  0  0  0
    0.6140    0.9977   -0.0762 H   0  0  0  0  0  0  0  0  0  0  0  0
    0.4793   -0.7362   -0.0251 H   0  0  0  0  0  0  0  0  0  0  0  0
    4.9462    2.1296   -0.1201 H   0  0  0  0  0  0  0  0  0  0  0  0
    1.0361   -2.7177   -0.8772 H   0  0  0  0  0  0  0  0  0  0  0  0
    0.8779   -2.7646    0.8857 H   0  0  0  0  0  0  0  0  0  0  0  0
   -0.2108   -4.7658    1.2396 H   0  0  0  0  0  0  0  0  0  0  0  0
   -0.2055   -7.2236    1.2617 H   0  0  0  0  0  0  0  0  0  0  0  0
    1.5428   -8.4726    0.0537 H   0  0  0  0  0  0  0  0  0  0  0  0
    3.2847   -3.6094   -1.9694 H   0  0  0  0  0  0  0  0  0  0  0  0
    4.8067   -4.8732   -3.3224 H   0  0  0  0  0  0  0  0  0  0  0  0
    4.8317   -7.3502   -3.1974 H   0  0  0  0  0  0  0  0  0  0  0  0
    3.4968   -8.5001   -1.4642 H   0  0  0  0  0  0  0  0  0  0  0  0
    6.5323   -3.4579    0.8915 H   0  0  0  0  0  0  0  0  0  0  0  0
    6.3892   -3.2153   -2.1666 H   0  0  0  0  0  0  0  0  0  0  0  0
    6.0585   -4.6527   -1.1645 H   0  0  0  0  0  0  0  0  0  0  0  0
    7.6823   -4.0332   -1.2810 H   0  0  0  0  0  0  0  0  0  0  0  0
    7.3070   -1.1114   -0.9180 H   0  0  0  0  0  0  0  0  0  0  0  0
    8.4319   -2.1358   -0.0276 H   0  0  0  0  0  0  0  0  0  0  0  0
    7.3166   -1.0943    0.8662 H   0  0  0  0  0  0  0  0  0  0  0  0
  1  2  1  0  0  0  0
  1 25  1  0  0  0  0
  1 26  1  0  0  0  0
  2  3  2  0  0  0  0
  2  7  1  0  0  0  0
  3  4  1  0  0  0  0
  4  5  2  0  0  0  0
  4 27  1  0  0  0  0
  5  6  1  0  0  0  0
  6  7  2  0  0  0  0
  6 21  1  0  0  0  0
  7  8  1  0  0  0  0
  8  9  1  0  0  0  0
  8 20  2  0  0  0  0
  9 10  1  0  0  0  0
  9 28  1  0  0  0  0
  9 29  1  0  0  0  0
 10 11  2  0  0  0  0
 10 15  1  0  0  0  0
 11 12  1  0  0  0  0
 11 30  1  0  0  0  0
 12 13  2  0  0  0  0
 12 31  1  0  0  0  0
 13 14  1  0  0  0  0
 13 32  1  0  0  0  0
 14 15  2  0  0  0  0
 14 19  1  0  0  0  0
 15 16  1  0  0  0  0
 16 17  2  0  0  0  0
 16 33  1  0  0  0  0
 17 18  1  0  0  0  0
 17 34  1  0  0  0  0
 18 19  2  0  0  0  0
 18 35  1  0  0  0  0
 19 36  1  0  0  0  0
 20 21  1  0  0  0  0
 21 22  1  0  0  0  0
 22 23  1  0  0  0  0
 22 24  1  0  0  0  0
 22 37  1  0  0  0  0
 23 38  1  0  0  0  0
 23 39  1  0  0  0  0
 23 40  1  0  0  0  0
 24 41  1  0  0  0  0
 24 42  1  0  0  0  0
 24 43  1  0  0  0  0
M  END
$$$$
