BL0
 OpenBabel04121316083D

 23 23  0  0  0  0  0  0  0  0999 V2000
    0.8789    0.1545    0.0055 C   0  0  0  0  0  0  0  0  0  0  0  0
    2.3036    0.2865    0.2248 N   0  0  0  0  0  0  0  0  0  0  0  0
    2.9712    1.2477   -0.4775 C   0  0  0  0  0  0  0  0  0  0  0  0
    2.7591    2.5492   -0.5840 N   0  0  0  0  0  0  0  0  0  0  0  0
    3.7162    3.1968   -1.4058 N   0  0  0  0  0  0  0  0  0  0  0  0
    4.5624    2.3337   -1.9425 C   0  0  0  0  0  0  0  0  0  0  0  0
    4.2642    0.7517   -1.4257 S   0  0  0  0  0  0  0  0  0  0  0  0
    5.6847    2.5985   -2.9028 C   0  0  0  0  0  0  0  0  0  0  0  0
    6.4458    0.9932   -3.3756 S   0  0  0  0  0  0  0  0  0  0  0  0
    7.1288    0.4202   -2.2423 O   0  0  0  0  0  0  0  0  0  0  0  0
    5.5020    0.2279   -4.1746 O   0  0  0  0  0  0  0  0  0  0  0  0
    7.6404    1.4074   -4.4196 N   0  0  0  0  0  0  0  0  0  0  0  0
    3.0214   -0.9455    0.5935 C   0  0  0  0  0  0  0  0  0  0  0  0
    0.4429    1.0163   -0.5094 H   0  0  0  0  0  0  0  0  0  0  0  0
    0.3990    0.0499    0.9809 H   0  0  0  0  0  0  0  0  0  0  0  0
    0.6477   -0.7407   -0.5875 H   0  0  0  0  0  0  0  0  0  0  0  0
    6.4730    3.2056   -2.4467 H   0  0  0  0  0  0  0  0  0  0  0  0
    5.3237    3.0687   -3.8226 H   0  0  0  0  0  0  0  0  0  0  0  0
    8.5249    1.6897   -4.0135 H   0  0  0  0  0  0  0  0  0  0  0  0
    7.3835    1.5558   -5.3868 H   0  0  0  0  0  0  0  0  0  0  0  0
    2.3432   -1.7119    0.9731 H   0  0  0  0  0  0  0  0  0  0  0  0
    3.7480   -0.7065    1.3773 H   0  0  0  0  0  0  0  0  0  0  0  0
    3.5697   -1.4245   -0.2329 H   0  0  0  0  0  0  0  0  0  0  0  0
  1  2  1  0  0  0  0
  1 14  1  0  0  0  0
  1 15  1  0  0  0  0
  1 16  1  0  0  0  0
  2  3  1  0  0  0  0
  2 13  1  0  0  0  0
  3  4  2  0  0  0  0
  3  7  1  0  0  0  0
  4  5  1  0  0  0  0
  5  6  2  0  0  0  0
  6  7  1  0  0  0  0
  6  8  1  0  0  0  0
  8  9  1  0  0  0  0
  8 17  1  0  0  0  0
  8 18  1  0  0  0  0
  9 10  2  0  0  0  0
  9 11  2  0  0  0  0
  9 12  1  0  0  0  0
 12 19  1  0  0  0  0
 12 20  1  0  0  0  0
 13 21  1  0  0  0  0
 13 22  1  0  0  0  0
 13 23  1  0  0  0  0
M  END
$$$$
