BLE
 OpenBabel04121316083D

 23 22  0  0  1  0  0  0  0  0999 V2000
    4.6640    0.2411    1.9573 O   0  0  0  0  0  0  0  0  0  0  0  0
    4.1304    1.4409    1.3236 B   0  0  0  0  0  0  0  0  0  0  0  0
    3.2347    1.3197    0.0546 C   0  0  2  0  0  0  0  0  0  0  0  0
    2.6997    0.3935    0.0828 H   0  0  0  0  0  0  0  0  0  0  0  0
    4.1086    1.3624   -1.1883 C   0  0  0  0  0  0  0  0  0  0  0  0
    5.0963    0.2076   -1.1532 C   0  0  0  0  0  0  0  0  0  0  0  0
    4.3363   -1.1082   -1.1131 C   0  0  0  0  0  0  0  0  0  0  0  0
    5.9702    0.2503   -2.3961 C   0  0  0  0  0  0  0  0  0  0  0  0
    2.2794    2.4365    0.0206 N   0  0  0  0  0  0  0  0  0  0  0  0
    4.4300    2.7544    1.8809 O   0  0  0  0  0  0  0  0  0  0  0  0
    5.1962    0.4922    2.7285 H   0  0  0  0  0  0  0  0  0  0  0  0
    4.6436    2.2886   -1.2166 H   0  0  0  0  0  0  0  0  0  0  0  0
    3.4934    1.2791   -2.0599 H   0  0  0  0  0  0  0  0  0  0  0  0
    5.7115    0.2908   -0.2816 H   0  0  0  0  0  0  0  0  0  0  0  0
    3.7211   -1.1914   -1.9846 H   0  0  0  0  0  0  0  0  0  0  0  0
    3.7211   -1.1382   -0.2381 H   0  0  0  0  0  0  0  0  0  0  0  0
    5.0316   -1.9211   -1.0883 H   0  0  0  0  0  0  0  0  0  0  0  0
    5.3550    0.1670   -3.2676 H   0  0  0  0  0  0  0  0  0  0  0  0
    6.6655   -0.5626   -2.3714 H   0  0  0  0  0  0  0  0  0  0  0  0
    6.5052    1.1765   -2.4243 H   0  0  0  0  0  0  0  0  0  0  0  0
    1.6930    2.3571   -0.8102 H   0  0  0  0  0  0  0  0  0  0  0  0
    2.7894    3.3194   -0.0063 H   0  0  0  0  0  0  0  0  0  0  0  0
    4.9950    2.6527    2.6628 H   0  0  0  0  0  0  0  0  0  0  0  0
  1  2  1  0  0  0  0
  1 11  1  0  0  0  0
  2 10  1  0  0  0  0
  3  5  1  0  0  0  0
  3  9  1  0  0  0  0
  3  4  1  1  0  0  0
  3  2  1  0  0  0  0
  5  6  1  0  0  0  0
  5 12  1  0  0  0  0
  5 13  1  0  0  0  0
  6  7  1  0  0  0  0
  6  8  1  0  0  0  0
  6 14  1  0  0  0  0
  7 15  1  0  0  0  0
  7 16  1  0  0  0  0
  7 17  1  0  0  0  0
  8 18  1  0  0  0  0
  8 19  1  0  0  0  0
  8 20  1  0  0  0  0
  9 21  1  0  0  0  0
  9 22  1  0  0  0  0
 10 23  1  0  0  0  0
M  END
$$$$
