BMA
 OpenBabel04121316083D

 24 24  0  0  1  0  0  0  0  0999 V2000
    0.6835    0.3432    0.0216 O   0  0  0  0  0  0  0  0  0  0  0  0
    2.0070    0.0908    0.4414 C   0  0  0  0  0  0  0  0  0  0  0  0
    2.9996    1.2683    0.3844 C   0  0  1  0  0  0  0  0  0  0  0  0
    3.0375    1.6964    1.3974 H   0  0  0  0  0  0  0  0  0  0  0  0
    4.2855    0.6549    0.1361 O   0  0  0  0  0  0  0  0  0  0  0  0
    4.5179    0.2458   -1.2208 C   0  0  1  0  0  0  0  0  0  0  0  0
    5.5308   -0.1500   -1.2426 H   0  0  0  0  0  0  0  0  0  0  0  0
    3.7014   -0.8476   -1.6773 O   0  0  0  0  0  0  0  0  0  0  0  0
    4.3799    1.4145   -2.2016 C   0  0  2  0  0  0  0  0  0  0  0  0
    5.1748    2.1398   -1.9965 H   0  0  0  0  0  0  0  0  0  0  0  0
    3.0021    2.0764   -2.0299 C   0  0  2  0  0  0  0  0  0  0  0  0
    2.9633    2.9552   -2.6849 H   0  0  0  0  0  0  0  0  0  0  0  0
    2.7852    2.4784   -0.5663 C   0  0  2  0  0  0  0  0  0  0  0  0
    1.7936    2.9244   -0.4256 H   0  0  0  0  0  0  0  0  0  0  0  0
    3.7469    3.5014   -0.2178 O   0  0  0  0  0  0  0  0  0  0  0  0
    1.9785    1.1573   -2.4690 O   0  0  0  0  0  0  0  0  0  0  0  0
    4.5301    0.9580   -3.5525 O   0  0  0  0  0  0  0  0  0  0  0  0
    0.3107   -0.5576   -0.1139 H   0  0  0  0  0  0  0  0  0  0  0  0
    2.3274   -0.7258   -0.1852 H   0  0  0  0  0  0  0  0  0  0  0  0
    2.0389   -0.3790    1.4323 H   0  0  0  0  0  0  0  0  0  0  0  0
    2.9186   -0.4701   -2.1022 H   0  0  0  0  0  0  0  0  0  0  0  0
    3.7056    4.2240   -0.8629 H   0  0  0  0  0  0  0  0  0  0  0  0
    1.2725    1.1296   -1.7962 H   0  0  0  0  0  0  0  0  0  0  0  0
    3.8515    0.2646   -3.6833 H   0  0  0  0  0  0  0  0  0  0  0  0
  1  2  1  0  0  0  0
  1 18  1  0  0  0  0
  2  3  1  0  0  0  0
  2 19  1  0  0  0  0
  2 20  1  0  0  0  0
  3  4  1  1  0  0  0
  3  5  1  0  0  0  0
  3 13  1  0  0  0  0
  5  6  1  0  0  0  0
  6  9  1  0  0  0  0
  6  8  1  0  0  0  0
  6  7  1  6  0  0  0
  8 21  1  0  0  0  0
  9 11  1  0  0  0  0
  9 17  1  0  0  0  0
  9 10  1  1  0  0  0
 11 13  1  0  0  0  0
 11 16  1  0  0  0  0
 11 12  1  6  0  0  0
 13 14  1  1  0  0  0
 13 15  1  0  0  0  0
 15 22  1  0  0  0  0
 16 23  1  0  0  0  0
 17 24  1  0  0  0  0
M  END
$$$$
