BMU
 OpenBabel04121316083D

 40 41  0  0  0  0  0  0  0  0999 V2000
    1.1060    0.4751   -0.1875 O   0  0  0  0  0  0  0  0  0  0  0  0
    2.2816    0.2249   -0.0577 C   0  0  0  0  0  0  0  0  0  0  0  0
    2.8118   -1.0807    0.1439 N   0  0  0  0  0  0  0  0  0  0  0  0
    2.1420   -2.2801    0.0800 C   0  0  0  0  0  0  0  0  0  0  0  0
    2.7855   -3.4942    0.0142 C   0  0  0  0  0  0  0  0  0  0  0  0
    1.7508   -4.4531    0.1085 C   0  0  0  0  0  0  0  0  0  0  0  0
    0.5504   -3.8682    0.2186 N   0  0  0  0  0  0  0  0  0  0  0  0
    0.8144   -2.5589    0.1571 N   0  0  0  0  0  0  0  0  0  0  0  0
   -0.2443   -1.6031    0.2996 C   0  0  0  0  0  0  0  0  0  0  0  0
    1.8590   -5.9572    0.1079 C   0  0  0  0  0  0  0  0  0  0  0  0
    1.3052   -6.5130    1.4309 C   0  0  0  0  0  0  0  0  0  0  0  0
    1.0495   -6.5216   -1.0713 C   0  0  0  0  0  0  0  0  0  0  0  0
    3.3239   -6.4120   -0.0395 C   0  0  0  0  0  0  0  0  0  0  0  0
    3.1586    1.2546   -0.0689 N   0  0  0  0  0  0  0  0  0  0  0  0
    4.5420    1.2929   -0.1251 C   0  0  0  0  0  0  0  0  0  0  0  0
    5.1597    2.5380   -0.0705 C   0  0  0  0  0  0  0  0  0  0  0  0
    6.5359    2.6096   -0.2895 C   0  0  0  0  0  0  0  0  0  0  0  0
    7.2980    1.4413   -0.3582 C   0  0  0  0  0  0  0  0  0  0  0  0
    6.6986    0.2064   -0.2471 C   0  0  0  0  0  0  0  0  0  0  0  0
    5.3264    0.1564   -0.3044 C   0  0  0  0  0  0  0  0  0  0  0  0
    8.9696    1.4889   -0.7237 Cl  0  0  0  0  0  0  0  0  0  0  0  0
    3.7484   -1.2043    0.4648 H   0  0  0  0  0  0  0  0  0  0  0  0
    3.8455   -3.6939   -0.0805 H   0  0  0  0  0  0  0  0  0  0  0  0
   -1.2011   -2.0813    0.4701 H   0  0  0  0  0  0  0  0  0  0  0  0
   -0.2896   -1.0645   -0.6497 H   0  0  0  0  0  0  0  0  0  0  0  0
    0.0076   -0.9712    1.1597 H   0  0  0  0  0  0  0  0  0  0  0  0
    0.2559   -6.2298    1.5757 H   0  0  0  0  0  0  0  0  0  0  0  0
    1.8683   -6.1210    2.2868 H   0  0  0  0  0  0  0  0  0  0  0  0
    1.3627   -7.6056    1.4557 H   0  0  0  0  0  0  0  0  0  0  0  0
   -0.0075   -6.2380   -1.0017 H   0  0  0  0  0  0  0  0  0  0  0  0
    1.1016   -7.6139   -1.1008 H   0  0  0  0  0  0  0  0  0  0  0  0
    1.4274   -6.1333   -2.0250 H   0  0  0  0  0  0  0  0  0  0  0  0
    3.9412   -6.0353    0.7857 H   0  0  0  0  0  0  0  0  0  0  0  0
    3.7620   -6.0397   -0.9739 H   0  0  0  0  0  0  0  0  0  0  0  0
    3.4063   -7.5032   -0.0450 H   0  0  0  0  0  0  0  0  0  0  0  0
    2.6453    2.1295   -0.1183 H   0  0  0  0  0  0  0  0  0  0  0  0
    4.5888    3.4545    0.0759 H   0  0  0  0  0  0  0  0  0  0  0  0
    7.0099    3.5762   -0.4218 H   0  0  0  0  0  0  0  0  0  0  0  0
    7.2538   -0.7257   -0.2472 H   0  0  0  0  0  0  0  0  0  0  0  0
    4.9558   -0.8037   -0.6244 H   0  0  0  0  0  0  0  0  0  0  0  0
  1  2  2  0  0  0  0
  2  3  1  0  0  0  0
  2 14  1  0  0  0  0
  3  4  1  0  0  0  0
  3 22  1  0  0  0  0
  4  5  2  0  0  0  0
  4  8  1  0  0  0  0
  5  6  1  0  0  0  0
  5 23  1  0  0  0  0
  6  7  2  0  0  0  0
  6 10  1  0  0  0  0
  7  8  1  0  0  0  0
  8  9  1  0  0  0  0
  9 24  1  0  0  0  0
  9 25  1  0  0  0  0
  9 26  1  0  0  0  0
 10 11  1  0  0  0  0
 10 12  1  0  0  0  0
 10 13  1  0  0  0  0
 11 27  1  0  0  0  0
 11 28  1  0  0  0  0
 11 29  1  0  0  0  0
 12 30  1  0  0  0  0
 12 31  1  0  0  0  0
 12 32  1  0  0  0  0
 13 33  1  0  0  0  0
 13 34  1  0  0  0  0
 13 35  1  0  0  0  0
 14 15  1  0  0  0  0
 14 36  1  0  0  0  0
 15 16  2  0  0  0  0
 15 20  1  0  0  0  0
 16 17  1  0  0  0  0
 16 37  1  0  0  0  0
 17 18  2  0  0  0  0
 17 38  1  0  0  0  0
 18 19  1  0  0  0  0
 18 21  1  0  0  0  0
 19 20  2  0  0  0  0
 19 39  1  0  0  0  0
 20 40  1  0  0  0  0
M  END
$$$$
