BMW
 OpenBabel04121316083D

 53 58  0  0  0  0  0  0  0  0999 V2000
    0.9995   -0.1243    0.1683 O   0  0  0  0  0  0  0  0  0  0  0  0
    2.3610   -0.0672    0.1075 C   0  0  0  0  0  0  0  0  0  0  0  0
    3.0105    1.1605    0.0458 C   0  0  0  0  0  0  0  0  0  0  0  0
    4.3900    1.1801    0.0066 C   0  0  0  0  0  0  0  0  0  0  0  0
    5.0865   -0.0236   -0.0652 C   0  0  0  0  0  0  0  0  0  0  0  0
    4.4586   -1.2863   -0.1053 C   0  0  0  0  0  0  0  0  0  0  0  0
    3.0671   -1.2741    0.0794 C   0  0  0  0  0  0  0  0  0  0  0  0
    5.2038   -2.5508   -0.3704 C   0  0  0  0  0  0  0  0  0  0  0  0
    4.5232   -3.7094   -0.1936 N   0  0  0  0  0  0  0  0  0  0  0  0
    5.1389   -4.9029   -0.3761 C   0  0  0  0  0  0  0  0  0  0  0  0
    6.4365   -4.9911   -0.7380 N   0  0  0  0  0  0  0  0  0  0  0  0
    7.0833   -3.8353   -1.0019 C   0  0  0  0  0  0  0  0  0  0  0  0
    6.4944   -2.5951   -0.8370 C   0  0  0  0  0  0  0  0  0  0  0  0
    7.4750   -1.5157   -1.1249 C   0  0  0  0  0  0  0  0  0  0  0  0
    8.5791   -2.2585   -1.8454 C   0  0  0  0  0  0  0  0  0  0  0  0
    8.4607   -3.6550   -1.4245 N   0  0  0  0  0  0  0  0  0  0  0  0
    9.5314   -4.5412   -1.5173 C   0  0  0  0  0  0  0  0  0  0  0  0
    9.2966   -5.9208   -1.5037 C   0  0  0  0  0  0  0  0  0  0  0  0
   10.3174   -6.8743   -1.5326 C   0  0  0  0  0  0  0  0  0  0  0  0
   11.6175   -6.3862   -1.5700 C   0  0  0  0  0  0  0  0  0  0  0  0
   11.9232   -5.0361   -1.5897 C   0  0  0  0  0  0  0  0  0  0  0  0
   10.8746   -4.1001   -1.5731 C   0  0  0  0  0  0  0  0  0  0  0  0
   13.2876   -4.8452   -1.6156 N   0  0  0  0  0  0  0  0  0  0  0  0
   13.8012   -6.0516   -1.6193 C   0  0  0  0  0  0  0  0  0  0  0  0
   12.8331   -7.0176   -1.5945 N   0  0  0  0  0  0  0  0  0  0  0  0
   12.9784   -8.0119   -1.5935 H   0  0  0  0  0  0  0  0  0  0  0  0
    4.3608   -6.0327   -0.3053 N   0  0  0  0  0  0  0  0  0  0  0  0
    2.9607   -5.9644   -0.7230 C   0  0  0  0  0  0  0  0  0  0  0  0
    2.6845   -7.1674   -1.6435 C   0  0  0  0  0  0  0  0  0  0  0  0
    2.9392   -8.4113   -0.9660 O   0  0  0  0  0  0  0  0  0  0  0  0
    4.3180   -8.4827   -0.5474 C   0  0  0  0  0  0  0  0  0  0  0  0
    4.7157   -7.2909    0.3569 C   0  0  0  0  0  0  0  0  0  0  0  0
    0.6548    0.7755    0.0451 H   0  0  0  0  0  0  0  0  0  0  0  0
    2.4715    2.1006    0.0475 H   0  0  0  0  0  0  0  0  0  0  0  0
    4.9440    2.1147    0.0173 H   0  0  0  0  0  0  0  0  0  0  0  0
    6.1587    0.0895   -0.0881 H   0  0  0  0  0  0  0  0  0  0  0  0
    2.5157   -2.2070    0.1764 H   0  0  0  0  0  0  0  0  0  0  0  0
    7.8688   -1.1100   -0.1845 H   0  0  0  0  0  0  0  0  0  0  0  0
    7.0935   -0.7187   -1.7691 H   0  0  0  0  0  0  0  0  0  0  0  0
    9.5316   -1.7745   -1.6038 H   0  0  0  0  0  0  0  0  0  0  0  0
    8.4383   -2.1703   -2.9323 H   0  0  0  0  0  0  0  0  0  0  0  0
    8.2739   -6.2868   -1.4798 H   0  0  0  0  0  0  0  0  0  0  0  0
   10.0852   -7.9302   -1.5186 H   0  0  0  0  0  0  0  0  0  0  0  0
   11.1550   -3.0548   -1.5613 H   0  0  0  0  0  0  0  0  0  0  0  0
   14.8559   -6.2983   -1.6407 H   0  0  0  0  0  0  0  0  0  0  0  0
    2.7220   -5.0467   -1.2690 H   0  0  0  0  0  0  0  0  0  0  0  0
    2.3119   -6.0227    0.1602 H   0  0  0  0  0  0  0  0  0  0  0  0
    3.3103   -7.1232   -2.5437 H   0  0  0  0  0  0  0  0  0  0  0  0
    1.6376   -7.1668   -1.9616 H   0  0  0  0  0  0  0  0  0  0  0  0
    4.9528   -8.5282   -1.4388 H   0  0  0  0  0  0  0  0  0  0  0  0
    4.4338   -9.4302   -0.0081 H   0  0  0  0  0  0  0  0  0  0  0  0
    5.7685   -7.3599    0.6440 H   0  0  0  0  0  0  0  0  0  0  0  0
    4.1181   -7.3739    1.2778 H   0  0  0  0  0  0  0  0  0  0  0  0
  1  2  1  0  0  0  0
  1 33  1  0  0  0  0
  2  3  2  0  0  0  0
  2  7  1  0  0  0  0
  3  4  1  0  0  0  0
  3 34  1  0  0  0  0
  4  5  2  0  0  0  0
  4 35  1  0  0  0  0
  5  6  1  0  0  0  0
  5 36  1  0  0  0  0
  6  7  2  0  0  0  0
  6  8  1  0  0  0  0
  7 37  1  0  0  0  0
  8  9  2  0  0  0  0
  8 13  1  0  0  0  0
  9 10  1  0  0  0  0
 10 11  2  0  0  0  0
 10 27  1  0  0  0  0
 11 12  1  0  0  0  0
 12 13  2  0  0  0  0
 12 16  1  0  0  0  0
 13 14  1  0  0  0  0
 14 15  1  0  0  0  0
 14 38  1  0  0  0  0
 14 39  1  0  0  0  0
 15 16  1  0  0  0  0
 15 40  1  0  0  0  0
 15 41  1  0  0  0  0
 16 17  1  0  0  0  0
 17 18  2  0  0  0  0
 17 22  1  0  0  0  0
 18 19  1  0  0  0  0
 18 42  1  0  0  0  0
 19 20  2  0  0  0  0
 19 43  1  0  0  0  0
 20 21  1  0  0  0  0
 20 25  1  0  0  0  0
 21 22  2  0  0  0  0
 21 23  1  0  0  0  0
 22 44  1  0  0  0  0
 23 24  2  0  0  0  0
 24 25  1  0  0  0  0
 24 45  1  0  0  0  0
 25 26  1  0  0  0  0
 27 28  1  0  0  0  0
 27 32  1  0  0  0  0
 28 29  1  0  0  0  0
 28 46  1  0  0  0  0
 28 47  1  0  0  0  0
 29 30  1  0  0  0  0
 29 48  1  0  0  0  0
 29 49  1  0  0  0  0
 30 31  1  0  0  0  0
 31 32  1  0  0  0  0
 31 50  1  0  0  0  0
 31 51  1  0  0  0  0
 32 52  1  0  0  0  0
 32 53  1  0  0  0  0
M  END
$$$$
