BMZ
 OpenBabel04121316083D

 32 34  0  0  0  0  0  0  0  0999 V2000
    1.0105    0.0058    0.2079 O   0  0  0  0  0  0  0  0  0  0  0  0
    2.3757   -0.0124    0.1022 C   0  0  0  0  0  0  0  0  0  0  0  0
    3.0613    1.2047    0.0860 C   0  0  0  0  0  0  0  0  0  0  0  0
    4.4403    1.2228   -0.1114 C   0  0  0  0  0  0  0  0  0  0  0  0
    5.1460    0.0274   -0.1831 C   0  0  0  0  0  0  0  0  0  0  0  0
    4.4699   -1.1889   -0.0653 C   0  0  0  0  0  0  0  0  0  0  0  0
    3.0641   -1.2348    0.0131 C   0  0  0  0  0  0  0  0  0  0  0  0
    2.3490   -2.5202   -0.0494 C   0  0  0  0  0  0  0  0  0  0  0  0
    1.0481   -2.7061   -0.2109 N   0  0  0  0  0  0  0  0  0  0  0  0
    0.8441   -4.0513   -0.2387 C   0  0  0  0  0  0  0  0  0  0  0  0
    2.0365   -4.7326   -0.1083 C   0  0  0  0  0  0  0  0  0  0  0  0
    2.9767   -3.7459    0.0046 N   0  0  0  0  0  0  0  0  0  0  0  0
    3.9675   -3.8940    0.1102 H   0  0  0  0  0  0  0  0  0  0  0  0
    2.1285   -6.1156   -0.1049 C   0  0  0  0  0  0  0  0  0  0  0  0
    0.9215   -6.8154   -0.2373 C   0  0  0  0  0  0  0  0  0  0  0  0
   -0.3320   -6.1771   -0.3763 C   0  0  0  0  0  0  0  0  0  0  0  0
   -0.3540   -4.7660   -0.3762 C   0  0  0  0  0  0  0  0  0  0  0  0
   -1.5873   -6.9598   -0.5195 C   0  0  0  0  0  0  0  0  0  0  0  0
   -2.7507   -6.3617   -0.6511 N   0  3  0  0  0  0  0  0  0  0  0  0
   -3.6181   -6.8709   -0.7511 H   0  0  0  0  0  0  0  0  0  0  0  0
   -2.8316   -5.3512   -0.6586 H   0  0  0  0  0  0  0  0  0  0  0  0
   -1.5636   -8.2816   -0.5197 N   0  0  0  0  0  0  0  0  0  0  0  0
    0.6840    0.9134    0.1180 H   0  0  0  0  0  0  0  0  0  0  0  0
    2.5343    2.1447    0.2167 H   0  0  0  0  0  0  0  0  0  0  0  0
    4.9666    2.1695   -0.2017 H   0  0  0  0  0  0  0  0  0  0  0  0
    6.2233    0.0389   -0.3332 H   0  0  0  0  0  0  0  0  0  0  0  0
    5.0743   -2.0905   -0.0622 H   0  0  0  0  0  0  0  0  0  0  0  0
    3.0788   -6.6284   -0.0016 H   0  0  0  0  0  0  0  0  0  0  0  0
    1.0151   -7.8970   -0.2248 H   0  0  0  0  0  0  0  0  0  0  0  0
   -1.2509   -4.1688   -0.4739 H   0  0  0  0  0  0  0  0  0  0  0  0
   -0.7036   -8.8009   -0.4232 H   0  0  0  0  0  0  0  0  0  0  0  0
   -2.4020   -8.8354   -0.6168 H   0  0  0  0  0  0  0  0  0  0  0  0
  1  2  1  0  0  0  0
  1 23  1  0  0  0  0
  2  3  2  0  0  0  0
  2  7  1  0  0  0  0
  3  4  1  0  0  0  0
  3 24  1  0  0  0  0
  4  5  2  0  0  0  0
  4 25  1  0  0  0  0
  5  6  1  0  0  0  0
  5 26  1  0  0  0  0
  6  7  2  0  0  0  0
  6 27  1  0  0  0  0
  7  8  1  0  0  0  0
  8  9  2  0  0  0  0
  8 12  1  0  0  0  0
  9 10  1  0  0  0  0
 10 11  2  0  0  0  0
 10 17  1  0  0  0  0
 11 12  1  0  0  0  0
 11 14  1  0  0  0  0
 12 13  1  0  0  0  0
 14 15  2  0  0  0  0
 14 28  1  0  0  0  0
 15 16  1  0  0  0  0
 15 29  1  0  0  0  0
 16 17  2  0  0  0  0
 16 18  1  0  0  0  0
 17 30  1  0  0  0  0
 18 19  2  0  0  0  0
 18 22  1  0  0  0  0
 19 20  1  0  0  0  0
 19 21  1  0  0  0  0
 22 31  1  0  0  0  0
 22 32  1  0  0  0  0
M  CHG  1  19   1
M  END
$$$$
