BNL
 OpenBabel04121316083D

 22 23  0  0  0  0  0  0  0  0999 V2000
   -1.4689   -0.0802   -0.0010 C   0  0  0  0  0  0  0  0  0  0  0  0
   -0.8512    1.1626    0.0458 C   0  0  0  0  0  0  0  0  0  0  0  0
    0.5436    1.2472    0.0100 C   0  0  0  0  0  0  0  0  0  0  0  0
    1.3655    0.1053    0.0063 C   0  0  0  0  0  0  0  0  0  0  0  0
    0.7003   -1.1368    0.0763 C   0  0  0  0  0  0  0  0  0  0  0  0
   -0.6947   -1.2292    0.0183 C   0  0  0  0  0  0  0  0  0  0  0  0
    2.8471    0.1993   -0.1600 C   0  0  0  0  0  0  0  0  0  0  0  0
    3.5079    1.4433   -0.2403 C   0  0  0  0  0  0  0  0  0  0  0  0
    4.8548    1.5409   -0.6049 C   0  0  0  0  0  0  0  0  0  0  0  0
    5.6093    0.3947   -0.7929 C   0  0  0  0  0  0  0  0  0  0  0  0
    5.0210   -0.8504   -0.6099 C   0  0  0  0  0  0  0  0  0  0  0  0
    3.6523   -0.9403   -0.3376 C   0  0  0  0  0  0  0  0  0  0  0  0
   -2.5513   -0.1483   -0.0507 H   0  0  0  0  0  0  0  0  0  0  0  0
   -1.4432    2.0711    0.0816 H   0  0  0  0  0  0  0  0  0  0  0  0
    0.9616    2.2483   -0.0456 H   0  0  0  0  0  0  0  0  0  0  0  0
    1.2462   -2.0704    0.1488 H   0  0  0  0  0  0  0  0  0  0  0  0
   -1.1651   -2.2090   -0.0205 H   0  0  0  0  0  0  0  0  0  0  0  0
    2.9892    2.3758   -0.0504 H   0  0  0  0  0  0  0  0  0  0  0  0
    5.3005    2.5226   -0.7472 H   0  0  0  0  0  0  0  0  0  0  0  0
    6.6539    0.4669   -1.0796 H   0  0  0  0  0  0  0  0  0  0  0  0
    5.6110   -1.7560   -0.7040 H   0  0  0  0  0  0  0  0  0  0  0  0
    3.2347   -1.9426   -0.2994 H   0  0  0  0  0  0  0  0  0  0  0  0
  1  2  2  0  0  0  0
  1  6  1  0  0  0  0
  1 13  1  0  0  0  0
  2  3  1  0  0  0  0
  2 14  1  0  0  0  0
  3  4  2  0  0  0  0
  3 15  1  0  0  0  0
  4  5  1  0  0  0  0
  4  7  1  0  0  0  0
  5  6  2  0  0  0  0
  5 16  1  0  0  0  0
  6 17  1  0  0  0  0
  7  8  2  0  0  0  0
  7 12  1  0  0  0  0
  8  9  1  0  0  0  0
  8 18  1  0  0  0  0
  9 10  2  0  0  0  0
  9 19  1  0  0  0  0
 10 11  1  0  0  0  0
 10 20  1  0  0  0  0
 11 12  2  0  0  0  0
 11 21  1  0  0  0  0
 12 22  1  0  0  0  0
M  END
$$$$
