BOB
 OpenBabel04121316083D

 66 65  0  0  1  0  0  0  0  0999 V2000
    0.8611   -0.0610   -0.1952 O   0  0  0  0  0  0  0  0  0  0  0  0
    2.2725   -0.0445   -0.0434 C   0  0  0  0  0  0  0  0  0  0  0  0
    2.9051   -1.3619   -0.4896 C   0  0  0  0  0  0  0  0  0  0  0  0
    4.4789   -1.3943   -0.4533 C   0  0  1  0  0  0  0  0  0  0  0  0
    4.8393   -0.6140   -1.1334 H   0  0  0  0  0  0  0  0  0  0  0  0
    4.9740   -1.0946    1.0342 C   0  0  1  0  0  0  0  0  0  0  0  0
    4.5384   -1.8553    1.6969 H   0  0  0  0  0  0  0  0  0  0  0  0
    6.4797   -0.9755    1.3253 C   0  0  0  0  0  0  0  0  0  0  0  0
    7.1053   -2.3001    1.1237 C   0  0  0  0  0  0  0  0  0  0  0  0
    8.6044   -2.3352    0.9416 C   0  0  0  0  0  0  0  0  0  0  0  0
    9.1220   -3.7203    0.6161 C   0  0  0  0  0  0  0  0  0  0  0  0
   10.5999   -3.7121    0.3580 C   0  0  0  0  0  0  0  0  0  0  0  0
    4.5329    0.1989    1.4467 O   0  0  0  0  0  0  0  0  0  0  0  0
    4.8564   -3.0897   -1.2755 S   0  0  0  0  0  0  0  0  0  0  0  0
    6.6873   -3.1331   -1.7716 C   0  0  0  0  0  0  0  0  0  0  0  0
    7.3344   -4.4463   -2.2139 C   0  0  1  0  0  0  0  0  0  0  0  0
    7.0783   -5.2345   -1.4827 H   0  0  0  0  0  0  0  0  0  0  0  0
    6.8248   -4.7343   -3.5679 C   0  0  0  0  0  0  0  0  0  0  0  0
    7.4987   -4.7121   -4.5689 O   0  0  0  0  0  0  0  0  0  0  0  0
    5.4658   -4.9001   -3.5443 N   0  0  0  0  0  0  0  0  0  0  0  0
    4.8711   -4.8374   -4.8184 C   0  0  0  0  0  0  0  0  0  0  0  0
    3.3764   -4.7715   -4.6560 C   0  0  0  0  0  0  0  0  0  0  0  0
    2.7930   -4.5943   -3.6034 O   0  0  0  0  0  0  0  0  0  0  0  0
    2.7507   -4.8989   -5.8469 O   0  0  0  0  0  0  0  0  0  0  0  0
    8.7923   -4.4290   -2.3556 N   0  0  0  0  0  0  0  0  0  0  0  0
    9.4267   -5.6474   -2.4088 C   0  0  0  0  0  0  0  0  0  0  0  0
    8.8208   -6.7163   -2.3966 O   0  0  0  0  0  0  0  0  0  0  0  0
   10.9187   -5.5670   -2.3681 C   0  0  0  0  0  0  0  0  0  0  0  0
   11.5600   -6.8638   -2.7678 C   0  0  0  0  0  0  0  0  0  0  0  0
   13.0800   -6.7865   -2.6480 C   0  0  1  0  0  0  0  0  0  0  0  0
   13.4754   -5.9546   -3.2404 H   0  0  0  0  0  0  0  0  0  0  0  0
   13.6243   -6.6515   -1.1868 C   0  0  0  0  0  0  0  0  0  0  0  0
   14.2220   -7.5402   -0.5900 O   0  0  0  0  0  0  0  0  0  0  0  0
   13.4161   -5.4591   -0.5774 O   0  0  0  0  0  0  0  0  0  0  0  0
   13.5785   -8.0494   -3.2282 N   0  0  0  0  0  0  0  0  0  0  0  0
    0.5378    0.7165    0.2975 H   0  0  0  0  0  0  0  0  0  0  0  0
    2.4043    0.1201    1.0196 H   0  0  0  0  0  0  0  0  0  0  0  0
    2.6831    0.7966   -0.6082 H   0  0  0  0  0  0  0  0  0  0  0  0
    2.5382   -1.5734   -1.5039 H   0  0  0  0  0  0  0  0  0  0  0  0
    2.5014   -2.1685    0.1409 H   0  0  0  0  0  0  0  0  0  0  0  0
    6.7113   -0.6165    2.3252 H   0  0  0  0  0  0  0  0  0  0  0  0
    6.8973   -0.2554    0.6020 H   0  0  0  0  0  0  0  0  0  0  0  0
    6.6940   -2.2701    0.1651 H   0  0  0  0  0  0  0  0  0  0  0  0
    6.6520   -3.1898    1.5764 H   0  0  0  0  0  0  0  0  0  0  0  0
    9.0915   -1.9739    1.8400 H   0  0  0  0  0  0  0  0  0  0  0  0
    8.8645   -1.6768    0.0968 H   0  0  0  0  0  0  0  0  0  0  0  0
    8.6899   -4.0334   -0.3001 H   0  0  0  0  0  0  0  0  0  0  0  0
    8.7951   -4.5300    1.2727 H   0  0  0  0  0  0  0  0  0  0  0  0
   10.8646   -3.0929   -0.5129 H   0  0  0  0  0  0  0  0  0  0  0  0
   10.8661   -4.7399    0.1716 H   0  0  0  0  0  0  0  0  0  0  0  0
   11.1817   -3.4145    1.2219 H   0  0  0  0  0  0  0  0  0  0  0  0
    3.8738    0.0537    2.1461 H   0  0  0  0  0  0  0  0  0  0  0  0
    7.1647   -3.2707   -0.8531 H   0  0  0  0  0  0  0  0  0  0  0  0
    7.0702   -2.2000   -2.1974 H   0  0  0  0  0  0  0  0  0  0  0  0
    4.9145   -4.5802   -2.7381 H   0  0  0  0  0  0  0  0  0  0  0  0
    5.1925   -5.7534   -5.3121 H   0  0  0  0  0  0  0  0  0  0  0  0
    5.2433   -3.9451   -5.3351 H   0  0  0  0  0  0  0  0  0  0  0  0
    3.3797   -5.0265   -6.5835 H   0  0  0  0  0  0  0  0  0  0  0  0
    9.3194   -3.5831   -2.1732 H   0  0  0  0  0  0  0  0  0  0  0  0
   11.1750   -5.5003   -1.3322 H   0  0  0  0  0  0  0  0  0  0  0  0
   11.3120   -4.6865   -2.8856 H   0  0  0  0  0  0  0  0  0  0  0  0
   11.2345   -7.0995   -3.7886 H   0  0  0  0  0  0  0  0  0  0  0  0
   11.1762   -7.6599   -2.1131 H   0  0  0  0  0  0  0  0  0  0  0  0
   12.9866   -4.7552   -1.0911 H   0  0  0  0  0  0  0  0  0  0  0  0
   13.1290   -8.2288   -4.1243 H   0  0  0  0  0  0  0  0  0  0  0  0
   13.2762   -8.8101   -2.6094 H   0  0  0  0  0  0  0  0  0  0  0  0
  1  2  1  0  0  0  0
  1 36  1  0  0  0  0
  2  3  1  0  0  0  0
  2 37  1  0  0  0  0
  2 38  1  0  0  0  0
  3  4  1  0  0  0  0
  3 39  1  0  0  0  0
  3 40  1  0  0  0  0
  4  5  1  6  0  0  0
  4  6  1  0  0  0  0
  4 14  1  0  0  0  0
  6  7  1  1  0  0  0
  6  8  1  0  0  0  0
  6 13  1  0  0  0  0
  8  9  1  0  0  0  0
  8 41  1  0  0  0  0
  8 42  1  0  0  0  0
  9 10  1  0  0  0  0
  9 43  1  0  0  0  0
  9 44  1  0  0  0  0
 10 11  1  0  0  0  0
 10 45  1  0  0  0  0
 10 46  1  0  0  0  0
 11 12  1  0  0  0  0
 11 47  1  0  0  0  0
 11 48  1  0  0  0  0
 12 49  1  0  0  0  0
 12 50  1  0  0  0  0
 12 51  1  0  0  0  0
 13 52  1  0  0  0  0
 14 15  1  0  0  0  0
 15 16  1  0  0  0  0
 15 53  1  0  0  0  0
 15 54  1  0  0  0  0
 16 17  1  1  0  0  0
 16 18  1  0  0  0  0
 16 25  1  0  0  0  0
 18 19  2  0  0  0  0
 18 20  1  0  0  0  0
 20 21  1  0  0  0  0
 20 55  1  0  0  0  0
 21 22  1  0  0  0  0
 21 56  1  0  0  0  0
 21 57  1  0  0  0  0
 22 23  2  0  0  0  0
 22 24  1  0  0  0  0
 24 58  1  0  0  0  0
 25 26  1  0  0  0  0
 25 59  1  0  0  0  0
 26 27  2  0  0  0  0
 26 28  1  0  0  0  0
 28 29  1  0  0  0  0
 28 60  1  0  0  0  0
 28 61  1  0  0  0  0
 29 30  1  0  0  0  0
 29 62  1  0  0  0  0
 29 63  1  0  0  0  0
 30 31  1  6  0  0  0
 30 32  1  0  0  0  0
 30 35  1  0  0  0  0
 32 33  2  0  0  0  0
 32 34  1  0  0  0  0
 34 64  1  0  0  0  0
 35 65  1  0  0  0  0
 35 66  1  0  0  0  0
M  END
$$$$
