BOG
 OpenBabel04121316083D

 48 48  0  0  1  0  0  0  0  0999 V2000
   12.8384  -14.4064    7.5132 C   0  0  0  0  0  0  0  0  0  0  0  0
   12.4933  -13.7635    6.1832 C   0  0  0  0  0  0  0  0  0  0  0  0
   12.3800  -12.2523    6.3337 C   0  0  0  0  0  0  0  0  0  0  0  0
   12.0334  -11.6011    5.0034 C   0  0  0  0  0  0  0  0  0  0  0  0
   11.9224  -10.0923    5.1718 C   0  0  0  0  0  0  0  0  0  0  0  0
   11.5736   -9.4444    3.8455 C   0  0  0  0  0  0  0  0  0  0  0  0
   11.4576   -7.9352    3.9922 C   0  0  0  0  0  0  0  0  0  0  0  0
   11.1148   -7.3424    2.6420 C   0  0  0  0  0  0  0  0  0  0  0  0
   11.0874   -5.9278    2.7336 O   0  0  0  0  0  0  0  0  0  0  0  0
   10.5912   -5.3307    1.5325 C   0  0  2  0  0  0  0  0  0  0  0  0
    9.4951   -5.3821    1.5798 H   0  0  0  0  0  0  0  0  0  0  0  0
   11.0487   -6.0447    0.3799 O   0  0  0  0  0  0  0  0  0  0  0  0
   10.5972   -5.5086   -0.8611 C   0  0  2  0  0  0  0  0  0  0  0  0
    9.4993   -5.5221   -0.8824 H   0  0  0  0  0  0  0  0  0  0  0  0
   11.0948   -6.4339   -1.9831 C   0  0  0  0  0  0  0  0  0  0  0  0
   10.6803   -6.0174   -3.2775 O   0  0  0  0  0  0  0  0  0  0  0  0
   11.0990   -4.0667   -1.0167 C   0  0  2  0  0  0  0  0  0  0  0  0
   12.1956   -4.0506   -1.0513 H   0  0  0  0  0  0  0  0  0  0  0  0
   10.6182   -3.2333    0.1758 C   0  0  1  0  0  0  0  0  0  0  0  0
    9.5243   -3.1518    0.1510 H   0  0  0  0  0  0  0  0  0  0  0  0
   11.0554   -3.8580    1.5028 C   0  0  1  0  0  0  0  0  0  0  0  0
   12.1468   -3.8108    1.5965 H   0  0  0  0  0  0  0  0  0  0  0  0
   10.5235   -3.1121    2.6110 O   0  0  0  0  0  0  0  0  0  0  0  0
   11.0987   -1.8929    0.0385 O   0  0  0  0  0  0  0  0  0  0  0  0
   10.6239   -3.4177   -2.2009 O   0  0  0  0  0  0  0  0  0  0  0  0
   12.9187  -15.4909    7.4007 H   0  0  0  0  0  0  0  0  0  0  0  0
   12.0659  -14.1933    8.2590 H   0  0  0  0  0  0  0  0  0  0  0  0
   13.7934  -14.0273    7.8909 H   0  0  0  0  0  0  0  0  0  0  0  0
   11.5469  -14.1737    5.8119 H   0  0  0  0  0  0  0  0  0  0  0  0
   13.2663  -14.0084    5.4455 H   0  0  0  0  0  0  0  0  0  0  0  0
   13.3267  -11.8430    6.7072 H   0  0  0  0  0  0  0  0  0  0  0  0
   11.6080  -12.0084    7.0738 H   0  0  0  0  0  0  0  0  0  0  0  0
   11.0854  -12.0037    4.6254 H   0  0  0  0  0  0  0  0  0  0  0  0
   12.8043  -11.8369    4.2592 H   0  0  0  0  0  0  0  0  0  0  0  0
   12.8711   -9.6870    5.5439 H   0  0  0  0  0  0  0  0  0  0  0  0
   11.1513   -9.8541    5.9140 H   0  0  0  0  0  0  0  0  0  0  0  0
   10.6282   -9.8537    3.4677 H   0  0  0  0  0  0  0  0  0  0  0  0
   12.3454   -9.6855    3.1029 H   0  0  0  0  0  0  0  0  0  0  0  0
   12.3973   -7.5074    4.3627 H   0  0  0  0  0  0  0  0  0  0  0  0
   10.6879   -7.6697    4.7268 H   0  0  0  0  0  0  0  0  0  0  0  0
   10.1448   -7.7209    2.2981 H   0  0  0  0  0  0  0  0  0  0  0  0
   11.8926   -7.6337    1.9266 H   0  0  0  0  0  0  0  0  0  0  0  0
   10.7246   -7.4531   -1.8219 H   0  0  0  0  0  0  0  0  0  0  0  0
   12.1878   -6.4980   -1.9717 H   0  0  0  0  0  0  0  0  0  0  0  0
    9.7276   -5.8569   -3.2686 H   0  0  0  0  0  0  0  0  0  0  0  0
    9.5618   -3.0625    2.5260 H   0  0  0  0  0  0  0  0  0  0  0  0
   10.9787   -1.6602   -0.9037 H   0  0  0  0  0  0  0  0  0  0  0  0
    9.6853   -3.6254   -2.3222 H   0  0  0  0  0  0  0  0  0  0  0  0
  1  2  1  0  0  0  0
  1 26  1  0  0  0  0
  1 27  1  0  0  0  0
  1 28  1  0  0  0  0
  2  3  1  0  0  0  0
  2 29  1  0  0  0  0
  2 30  1  0  0  0  0
  3  4  1  0  0  0  0
  3 31  1  0  0  0  0
  3 32  1  0  0  0  0
  4  5  1  0  0  0  0
  4 33  1  0  0  0  0
  4 34  1  0  0  0  0
  5  6  1  0  0  0  0
  5 35  1  0  0  0  0
  5 36  1  0  0  0  0
  6  7  1  0  0  0  0
  6 37  1  0  0  0  0
  6 38  1  0  0  0  0
  7  8  1  0  0  0  0
  7 39  1  0  0  0  0
  7 40  1  0  0  0  0
  8  9  1  0  0  0  0
  8 41  1  0  0  0  0
  8 42  1  0  0  0  0
 10 12  1  0  0  0  0
 10 21  1  0  0  0  0
 10 11  1  1  0  0  0
 10  9  1  0  0  0  0
 12 13  1  0  0  0  0
 13 14  1  6  0  0  0
 13 15  1  0  0  0  0
 13 17  1  0  0  0  0
 15 16  1  0  0  0  0
 15 43  1  0  0  0  0
 15 44  1  0  0  0  0
 16 45  1  0  0  0  0
 17 19  1  0  0  0  0
 17 25  1  0  0  0  0
 17 18  1  6  0  0  0
 19 20  1  6  0  0  0
 19 21  1  0  0  0  0
 19 24  1  0  0  0  0
 21 23  1  0  0  0  0
 21 22  1  1  0  0  0
 23 46  1  0  0  0  0
 24 47  1  0  0  0  0
 25 48  1  0  0  0  0
M  END
$$$$
