BOU
 OpenBabel04121316083D

 53 55  0  0  1  0  0  0  0  0999 V2000
   -0.8628    2.1844    1.4141 O   0  0  0  0  0  0  0  0  0  0  0  0
    0.2950    2.2458    1.0151 C   0  0  0  0  0  0  0  0  0  0  0  0
    1.6977    1.6004    1.5834 C   0  0  2  0  0  0  0  0  0  0  0  0
    1.6268    1.7886    2.6686 H   0  0  0  0  0  0  0  0  0  0  0  0
    2.9429    2.3240    1.0425 C   0  0  2  0  0  0  0  0  0  0  0  0
    3.3603    1.7737    0.1983 H   0  0  0  0  0  0  0  0  0  0  0  0
    4.0379    2.4408    2.0484 N   0  0  0  0  0  0  0  0  0  0  0  0
    3.7525    3.6889    2.8241 C   0  0  2  0  0  0  0  0  0  0  0  0
    3.0700    3.4038    3.6402 H   0  0  0  0  0  0  0  0  0  0  0  0
    3.1060    4.7611    1.9027 C   0  0  0  0  0  0  0  0  0  0  0  0
    2.5532    3.9222    0.4144 S   0  0  0  0  0  0  0  0  0  0  0  0
    4.0410    5.7173    1.1857 C   0  0  0  0  0  0  0  0  0  0  0  0
    1.9116    5.4203    2.5905 C   0  0  0  0  0  0  0  0  0  0  0  0
    5.0256    4.1956    3.5354 C   0  0  0  0  0  0  0  0  0  0  0  0
    5.3529    5.3664    3.6442 O   0  0  0  0  0  0  0  0  0  0  0  0
    5.7636    3.2135    4.1068 O   0  0  0  0  0  0  0  0  0  0  0  0
    2.0609    0.1537    1.5128 N   0  0  0  0  0  0  0  0  0  0  0  0
    2.1070   -0.5171    0.3140 C   0  0  0  0  0  0  0  0  0  0  0  0
    2.0131    0.1085   -0.7384 O   0  0  0  0  0  0  0  0  0  0  0  0
    1.9961   -2.0353    0.2898 C   0  0  0  0  0  0  0  0  0  0  0  0
    1.8883   -2.5448   -1.0304 C   0  0  0  0  0  0  0  0  0  0  0  0
    1.4869   -3.8545   -1.2859 C   0  0  0  0  0  0  0  0  0  0  0  0
    1.3213   -4.7307   -0.2310 C   0  0  0  0  0  0  0  0  0  0  0  0
    1.4466   -4.2675    1.0755 C   0  0  0  0  0  0  0  0  0  0  0  0
    1.6446   -2.8982    1.3750 C   0  0  0  0  0  0  0  0  0  0  0  0
    1.2790   -2.4739    2.7556 C   0  0  0  0  0  0  0  0  0  0  0  0
    1.5679   -3.2590    3.8961 C   0  0  0  0  0  0  0  0  0  0  0  0
    1.2324   -2.8450    5.2009 C   0  0  0  0  0  0  0  0  0  0  0  0
    0.8714   -1.5377    5.4303 C   0  0  0  0  0  0  0  0  0  0  0  0
    0.6645   -0.7472    4.3328 C   0  0  0  0  0  0  0  0  0  0  0  0
    0.5618   -1.3222    3.0459 C   0  0  0  0  0  0  0  0  0  0  0  0
   -0.3810   -0.5365    2.2017 C   0  0  0  0  0  0  0  0  0  0  0  0
   -0.9251    0.3405    2.7873 O   0  0  0  0  0  0  0  0  0  0  0  0
   -0.6450   -0.7778    0.8916 O   0  0  0  0  0  0  0  0  0  0  0  0
    0.3845    2.9066    0.1516 H   0  0  0  0  0  0  0  0  0  0  0  0
    4.8846    2.5977    1.4949 H   0  0  0  0  0  0  0  0  0  0  0  0
    4.8693    5.1647    0.7157 H   0  0  0  0  0  0  0  0  0  0  0  0
    4.4519    6.4624    1.8568 H   0  0  0  0  0  0  0  0  0  0  0  0
    3.5187    6.2809    0.3990 H   0  0  0  0  0  0  0  0  0  0  0  0
    1.2119    4.6841    3.0152 H   0  0  0  0  0  0  0  0  0  0  0  0
    1.3365    6.0507    1.9045 H   0  0  0  0  0  0  0  0  0  0  0  0
    2.2571    6.0470    3.4178 H   0  0  0  0  0  0  0  0  0  0  0  0
    5.3609    2.3314    3.9873 H   0  0  0  0  0  0  0  0  0  0  0  0
    2.5049   -0.2561    2.3304 H   0  0  0  0  0  0  0  0  0  0  0  0
    2.0023   -1.8822   -1.8914 H   0  0  0  0  0  0  0  0  0  0  0  0
    1.2805   -4.1791   -2.3035 H   0  0  0  0  0  0  0  0  0  0  0  0
    1.0294   -5.7626   -0.4100 H   0  0  0  0  0  0  0  0  0  0  0  0
    1.2652   -4.9901    1.8690 H   0  0  0  0  0  0  0  0  0  0  0  0
    2.0267   -4.2396    3.8001 H   0  0  0  0  0  0  0  0  0  0  0  0
    1.2949   -3.5264    6.0421 H   0  0  0  0  0  0  0  0  0  0  0  0
    0.6829   -1.1233    6.4153 H   0  0  0  0  0  0  0  0  0  0  0  0
    0.4476    0.3096    4.4888 H   0  0  0  0  0  0  0  0  0  0  0  0
   -0.1134   -1.3214    0.3005 H   0  0  0  0  0  0  0  0  0  0  0  0
  1  2  2  0  0  0  0
  2 35  1  0  0  0  0
  3 17  1  0  0  0  0
  3  4  1  1  0  0  0
  3  2  1  0  0  0  0
  5  7  1  0  0  0  0
  5 11  1  0  0  0  0
  5  6  1  6  0  0  0
  5  3  1  0  0  0  0
  7  8  1  0  0  0  0
  7 36  1  0  0  0  0
  8 10  1  0  0  0  0
  8 14  1  0  0  0  0
  8  9  1  1  0  0  0
 10 11  1  0  0  0  0
 10 12  1  0  0  0  0
 10 13  1  0  0  0  0
 12 37  1  0  0  0  0
 12 38  1  0  0  0  0
 12 39  1  0  0  0  0
 13 40  1  0  0  0  0
 13 41  1  0  0  0  0
 13 42  1  0  0  0  0
 14 15  2  0  0  0  0
 14 16  1  0  0  0  0
 16 43  1  0  0  0  0
 17 18  1  0  0  0  0
 17 44  1  0  0  0  0
 18 19  2  0  0  0  0
 18 20  1  0  0  0  0
 20 21  2  0  0  0  0
 20 25  1  0  0  0  0
 21 22  1  0  0  0  0
 21 45  1  0  0  0  0
 22 23  2  0  0  0  0
 22 46  1  0  0  0  0
 23 24  1  0  0  0  0
 23 47  1  0  0  0  0
 24 25  2  0  0  0  0
 24 48  1  0  0  0  0
 25 26  1  0  0  0  0
 26 27  2  0  0  0  0
 26 31  1  0  0  0  0
 27 28  1  0  0  0  0
 27 49  1  0  0  0  0
 28 29  2  0  0  0  0
 28 50  1  0  0  0  0
 29 30  1  0  0  0  0
 29 51  1  0  0  0  0
 30 31  2  0  0  0  0
 30 52  1  0  0  0  0
 31 32  1  0  0  0  0
 32 33  2  0  0  0  0
 32 34  1  0  0  0  0
 34 53  1  0  0  0  0
M  END
$$$$
