BOW
 OpenBabel04121316083D

 32 31  0  0  0  0  0  0  0  0999 V2000
    0.9180   -0.0002    0.0618 C   0  0  0  0  0  0  0  0  0  0  0  0
    2.4351   -0.0025    0.0703 C   0  0  0  0  0  0  0  0  0  0  0  0
    2.9604   -0.3802    1.4496 C   0  0  0  0  0  0  0  0  0  0  0  0
    4.4829   -0.3849    1.4667 C   0  0  0  0  0  0  0  0  0  0  0  0
    4.9962   -0.7641    2.8517 C   0  0  0  0  0  0  0  0  0  0  0  0
    6.5170   -0.7703    2.8743 C   0  0  0  0  0  0  0  0  0  0  0  0
    7.0560   -1.1482    4.2542 C   0  0  0  0  0  0  0  0  0  0  0  0
    8.5770   -1.1377    4.2161 C   0  0  0  0  0  0  0  0  0  0  0  0
    9.1527   -1.4812    5.4705 O   0  0  0  0  0  0  0  0  0  0  0  0
   10.7812   -1.4854    5.4810 S   0  0  0  0  0  0  0  0  0  0  0  0
   11.2278   -2.5641    4.6355 O   0  0  0  0  0  0  0  0  0  0  0  0
   11.2281   -0.1228    5.3035 O   0  0  0  0  0  0  0  0  0  0  0  0
   11.1759   -1.9113    7.0416 N   0  0  0  0  0  0  0  0  0  0  0  0
    0.5441    0.2711   -0.9291 H   0  0  0  0  0  0  0  0  0  0  0  0
    0.5278    0.7209    0.7872 H   0  0  0  0  0  0  0  0  0  0  0  0
    0.5278   -0.9902    0.3186 H   0  0  0  0  0  0  0  0  0  0  0  0
    2.8051    0.9901   -0.2117 H   0  0  0  0  0  0  0  0  0  0  0  0
    2.8051   -0.7131   -0.6780 H   0  0  0  0  0  0  0  0  0  0  0  0
    2.5859   -1.3723    1.7308 H   0  0  0  0  0  0  0  0  0  0  0  0
    2.5859    0.3302    2.1969 H   0  0  0  0  0  0  0  0  0  0  0  0
    4.8602    0.6067    1.1876 H   0  0  0  0  0  0  0  0  0  0  0  0
    4.8602   -1.0960    0.7213 H   0  0  0  0  0  0  0  0  0  0  0  0
    4.6177   -1.7557    3.1273 H   0  0  0  0  0  0  0  0  0  0  0  0
    4.6177   -0.0513    3.5939 H   0  0  0  0  0  0  0  0  0  0  0  0
    6.8908    0.2215    2.5892 H   0  0  0  0  0  0  0  0  0  0  0  0
    6.8908   -1.4786    2.1237 H   0  0  0  0  0  0  0  0  0  0  0  0
    6.6903   -2.1391    4.5490 H   0  0  0  0  0  0  0  0  0  0  0  0
    6.6903   -0.4457    5.0127 H   0  0  0  0  0  0  0  0  0  0  0  0
    8.9207   -0.1371    3.9314 H   0  0  0  0  0  0  0  0  0  0  0  0
    8.9207   -1.8537    3.4613 H   0  0  0  0  0  0  0  0  0  0  0  0
   10.9248   -2.8700    7.2637 H   0  0  0  0  0  0  0  0  0  0  0  0
   10.9248   -1.1998    7.7211 H   0  0  0  0  0  0  0  0  0  0  0  0
  1  2  1  0  0  0  0
  1 14  1  0  0  0  0
  1 15  1  0  0  0  0
  1 16  1  0  0  0  0
  2  3  1  0  0  0  0
  2 17  1  0  0  0  0
  2 18  1  0  0  0  0
  3  4  1  0  0  0  0
  3 19  1  0  0  0  0
  3 20  1  0  0  0  0
  4  5  1  0  0  0  0
  4 21  1  0  0  0  0
  4 22  1  0  0  0  0
  5  6  1  0  0  0  0
  5 23  1  0  0  0  0
  5 24  1  0  0  0  0
  6  7  1  0  0  0  0
  6 25  1  0  0  0  0
  6 26  1  0  0  0  0
  7  8  1  0  0  0  0
  7 27  1  0  0  0  0
  7 28  1  0  0  0  0
  8  9  1  0  0  0  0
  8 29  1  0  0  0  0
  8 30  1  0  0  0  0
  9 10  1  0  0  0  0
 10 11  2  0  0  0  0
 10 12  2  0  0  0  0
 10 13  1  0  0  0  0
 13 31  1  0  0  0  0
 13 32  1  0  0  0  0
M  END
$$$$
