BP5
 OpenBabel04121316083D

 31 32  0  0  1  0  0  0  0  0999 V2000
    2.7312    1.4662   -0.3984 N   0  0  0  0  0  0  0  0  0  0  0  0
    2.4232    0.0617   -0.0128 C   0  0  2  0  0  0  0  0  0  0  0  0
    1.3311   -0.0317   -0.0037 H   0  0  0  0  0  0  0  0  0  0  0  0
    2.9330   -0.2350    1.4160 C   0  0  0  0  0  0  0  0  0  0  0  0
    3.5642   -1.2203    1.7476 O   0  0  0  0  0  0  0  0  0  0  0  0
    2.5959    0.7210    2.3186 O   0  0  0  0  0  0  0  0  0  0  0  0
    2.9782   -1.0166   -0.9990 C   0  0  0  0  0  0  0  0  0  0  0  0
    4.4828   -1.0918   -1.0937 C   0  0  0  0  0  0  0  0  0  0  0  0
    5.2274    0.0587   -1.2691 C   0  0  0  0  0  0  0  0  0  0  0  0
    6.5929    0.0351   -1.1406 C   0  0  0  0  0  0  0  0  0  0  0  0
    7.2627   -1.1779   -1.1703 C   0  0  0  0  0  0  0  0  0  0  0  0
    6.5661   -2.3444   -1.0830 N   0  0  0  0  0  0  0  0  0  0  0  0
    5.2087   -2.2716   -0.9749 C   0  0  0  0  0  0  0  0  0  0  0  0
    8.7188   -1.1831   -1.4809 C   0  0  0  0  0  0  0  0  0  0  0  0
    9.4135    0.0220   -1.6911 C   0  0  0  0  0  0  0  0  0  0  0  0
   10.6913    0.0232   -2.2252 C   0  0  0  0  0  0  0  0  0  0  0  0
   11.3101   -1.1887   -2.4490 C   0  0  0  0  0  0  0  0  0  0  0  0
   10.6182   -2.3438   -2.1198 C   0  0  0  0  0  0  0  0  0  0  0  0
    9.3378   -2.3710   -1.6813 N   0  0  0  0  0  0  0  0  0  0  0  0
    3.7133    1.6419   -0.1793 H   0  0  0  0  0  0  0  0  0  0  0  0
    2.2339    2.1623    0.1438 H   0  0  0  0  0  0  0  0  0  0  0  0
    2.0217    1.4163    1.9570 H   0  0  0  0  0  0  0  0  0  0  0  0
    2.5775   -0.8493   -2.0076 H   0  0  0  0  0  0  0  0  0  0  0  0
    2.5919   -1.9940   -0.6774 H   0  0  0  0  0  0  0  0  0  0  0  0
    4.7920    1.0147   -1.5143 H   0  0  0  0  0  0  0  0  0  0  0  0
    7.0891    0.9924   -1.1111 H   0  0  0  0  0  0  0  0  0  0  0  0
    4.7166   -3.2231   -0.7843 H   0  0  0  0  0  0  0  0  0  0  0  0
    8.9794    0.9897   -1.4778 H   0  0  0  0  0  0  0  0  0  0  0  0
   11.1799    0.9659   -2.4502 H   0  0  0  0  0  0  0  0  0  0  0  0
   12.3161   -1.2272   -2.8457 H   0  0  0  0  0  0  0  0  0  0  0  0
   11.0972   -3.3147   -2.1943 H   0  0  0  0  0  0  0  0  0  0  0  0
  1 20  1  0  0  0  0
  1 21  1  0  0  0  0
  2  4  1  0  0  0  0
  2  7  1  0  0  0  0
  2  3  1  1  0  0  0
  2  1  1  0  0  0  0
  4  5  2  0  0  0  0
  4  6  1  0  0  0  0
  6 22  1  0  0  0  0
  7  8  1  0  0  0  0
  7 23  1  0  0  0  0
  7 24  1  0  0  0  0
  8  9  2  0  0  0  0
  8 13  1  0  0  0  0
  9 10  1  0  0  0  0
  9 25  1  0  0  0  0
 10 11  2  0  0  0  0
 10 26  1  0  0  0  0
 11 12  1  0  0  0  0
 11 14  1  0  0  0  0
 12 13  2  0  0  0  0
 13 27  1  0  0  0  0
 14 15  2  0  0  0  0
 14 19  1  0  0  0  0
 15 16  1  0  0  0  0
 15 28  1  0  0  0  0
 16 17  2  0  0  0  0
 16 29  1  0  0  0  0
 17 18  1  0  0  0  0
 17 30  1  0  0  0  0
 18 19  2  0  0  0  0
 18 31  1  0  0  0  0
M  END
$$$$
