BP7
 OpenBabel04121316083D

 24 25  0  0  0  0  0  0  0  0999 V2000
    0.8855    0.0815    0.1089 O   0  0  0  0  0  0  0  0  0  0  0  0
    2.2491    0.1198    0.0473 C   0  0  0  0  0  0  0  0  0  0  0  0
    2.9132    1.3380    0.0291 C   0  0  0  0  0  0  0  0  0  0  0  0
    4.2999    1.3605   -0.1563 C   0  0  0  0  0  0  0  0  0  0  0  0
    5.0684    0.1835   -0.2458 C   0  0  0  0  0  0  0  0  0  0  0  0
    4.3654   -1.0337   -0.1015 C   0  0  0  0  0  0  0  0  0  0  0  0
    2.9702   -1.0609   -0.0147 C   0  0  0  0  0  0  0  0  0  0  0  0
    2.3052   -2.2577   -0.0183 O   0  0  0  0  0  0  0  0  0  0  0  0
    6.5272    0.2199   -0.5723 C   0  0  0  0  0  0  0  0  0  0  0  0
    7.2237    1.4351   -0.7413 C   0  0  0  0  0  0  0  0  0  0  0  0
    8.5267    1.4773   -1.2489 C   0  0  0  0  0  0  0  0  0  0  0  0
    9.2130    0.2997   -1.5015 C   0  0  0  0  0  0  0  0  0  0  0  0
    8.5999   -0.9177   -1.2392 C   0  0  0  0  0  0  0  0  0  0  0  0
    7.2663   -0.9523   -0.8201 C   0  0  0  0  0  0  0  0  0  0  0  0
    0.5466    0.9857    0.0496 H   0  0  0  0  0  0  0  0  0  0  0  0
    2.3813    2.2767    0.1272 H   0  0  0  0  0  0  0  0  0  0  0  0
    4.7524    2.3429   -0.2583 H   0  0  0  0  0  0  0  0  0  0  0  0
    4.8904   -1.9794   -0.0799 H   0  0  0  0  0  0  0  0  0  0  0  0
    2.9332   -2.9723   -0.1949 H   0  0  0  0  0  0  0  0  0  0  0  0
    6.7665    2.3912   -0.5104 H   0  0  0  0  0  0  0  0  0  0  0  0
    8.9935    2.4382   -1.4509 H   0  0  0  0  0  0  0  0  0  0  0  0
   10.2227    0.3283   -1.8991 H   0  0  0  0  0  0  0  0  0  0  0  0
    9.1423   -1.8472   -1.3835 H   0  0  0  0  0  0  0  0  0  0  0  0
    6.8206   -1.9375   -0.7231 H   0  0  0  0  0  0  0  0  0  0  0  0
  1  2  1  0  0  0  0
  1 15  1  0  0  0  0
  2  3  2  0  0  0  0
  2  7  1  0  0  0  0
  3  4  1  0  0  0  0
  3 16  1  0  0  0  0
  4  5  2  0  0  0  0
  4 17  1  0  0  0  0
  5  6  1  0  0  0  0
  5  9  1  0  0  0  0
  6  7  2  0  0  0  0
  6 18  1  0  0  0  0
  7  8  1  0  0  0  0
  8 19  1  0  0  0  0
  9 10  2  0  0  0  0
  9 14  1  0  0  0  0
 10 11  1  0  0  0  0
 10 20  1  0  0  0  0
 11 12  2  0  0  0  0
 11 21  1  0  0  0  0
 12 13  1  0  0  0  0
 12 22  1  0  0  0  0
 13 14  2  0  0  0  0
 13 23  1  0  0  0  0
 14 24  1  0  0  0  0
M  END
$$$$
