BPQ
 OpenBabel04121316083D

 37 38  0  0  0  0  0  0  0  0999 V2000
    0.9512   -0.0045    0.1579 O   0  0  0  0  0  0  0  0  0  0  0  0
    2.1819    0.0290    0.0931 C   0  0  0  0  0  0  0  0  0  0  0  0
    2.7829    0.5452   -1.0287 O   0  0  0  0  0  0  0  0  0  0  0  0
    4.2093    0.6046   -1.1604 C   0  0  0  0  0  0  0  0  0  0  0  0
    4.6905    1.6729   -0.1285 C   0  0  0  0  0  0  0  0  0  0  0  0
    4.6899   -0.8726   -1.3025 C   0  0  0  0  0  0  0  0  0  0  0  0
    4.6678    1.2107   -2.4791 C   0  0  0  0  0  0  0  0  0  0  0  0
    2.9059   -0.4401    1.1672 N   0  0  0  0  0  0  0  0  0  0  0  0
    4.3245   -0.5812    1.4395 C   0  0  0  0  0  0  0  0  0  0  0  0
    4.5964   -1.1645    2.7122 C   0  0  0  0  0  0  0  0  0  0  0  0
    5.2049   -0.5252    3.7633 C   0  0  0  0  0  0  0  0  0  0  0  0
    5.4532   -1.4879    4.6959 N   0  0  0  0  0  0  0  0  0  0  0  0
    5.8786   -1.3114    5.5913 H   0  0  0  0  0  0  0  0  0  0  0  0
    5.0575   -2.7093    4.2022 C   0  0  0  0  0  0  0  0  0  0  0  0
    4.5662   -2.5276    2.9449 C   0  0  0  0  0  0  0  0  0  0  0  0
    4.1726   -3.6468    2.1274 C   0  0  0  0  0  0  0  0  0  0  0  0
    3.8199   -3.5908    0.9660 O   0  0  0  0  0  0  0  0  0  0  0  0
    4.2529   -4.8215    2.8305 N   0  0  0  0  0  0  0  0  0  0  0  0
    3.9535   -5.6330    2.3201 H   0  0  0  0  0  0  0  0  0  0  0  0
    4.7095   -4.9002    4.1267 C   0  0  0  0  0  0  0  0  0  0  0  0
    5.1414   -3.8919    4.8424 N   0  0  0  0  0  0  0  0  0  0  0  0
    4.6902   -6.1336    4.6612 N   0  0  0  0  0  0  0  0  0  0  0  0
    4.0955    1.7290    0.7949 H   0  0  0  0  0  0  0  0  0  0  0  0
    4.4929    2.6945   -0.4686 H   0  0  0  0  0  0  0  0  0  0  0  0
    5.7581    1.5826    0.0962 H   0  0  0  0  0  0  0  0  0  0  0  0
    4.0894   -1.6035   -0.7454 H   0  0  0  0  0  0  0  0  0  0  0  0
    5.7566   -0.9885   -1.0862 H   0  0  0  0  0  0  0  0  0  0  0  0
    4.4947   -1.2795   -2.3006 H   0  0  0  0  0  0  0  0  0  0  0  0
    4.3084    2.2336   -2.5923 H   0  0  0  0  0  0  0  0  0  0  0  0
    4.3082    0.6309   -3.3294 H   0  0  0  0  0  0  0  0  0  0  0  0
    5.7680    1.2154   -2.4909 H   0  0  0  0  0  0  0  0  0  0  0  0
    2.2814   -0.8046    1.8735 H   0  0  0  0  0  0  0  0  0  0  0  0
    4.8830    0.3327    1.4996 H   0  0  0  0  0  0  0  0  0  0  0  0
    4.8805   -1.2344    0.7871 H   0  0  0  0  0  0  0  0  0  0  0  0
    5.5077    0.5144    3.8513 H   0  0  0  0  0  0  0  0  0  0  0  0
    4.3204   -6.9371    4.1814 H   0  0  0  0  0  0  0  0  0  0  0  0
    4.9597   -6.2121    5.6313 H   0  0  0  0  0  0  0  0  0  0  0  0
  1  2  2  0  0  0  0
  2  3  1  0  0  0  0
  2  8  1  0  0  0  0
  3  4  1  0  0  0  0
  4  5  1  0  0  0  0
  4  6  1  0  0  0  0
  4  7  1  0  0  0  0
  5 23  1  0  0  0  0
  5 24  1  0  0  0  0
  5 25  1  0  0  0  0
  6 26  1  0  0  0  0
  6 27  1  0  0  0  0
  6 28  1  0  0  0  0
  7 29  1  0  0  0  0
  7 30  1  0  0  0  0
  7 31  1  0  0  0  0
  8  9  1  0  0  0  0
  8 32  1  0  0  0  0
  9 10  1  0  0  0  0
  9 33  1  0  0  0  0
  9 34  1  0  0  0  0
 10 11  2  0  0  0  0
 10 15  1  0  0  0  0
 11 12  1  0  0  0  0
 11 35  1  0  0  0  0
 12 13  1  0  0  0  0
 12 14  1  0  0  0  0
 14 15  2  0  0  0  0
 14 21  1  0  0  0  0
 15 16  1  0  0  0  0
 16 17  2  0  0  0  0
 16 18  1  0  0  0  0
 18 19  1  0  0  0  0
 18 20  1  0  0  0  0
 20 21  2  0  0  0  0
 20 22  1  0  0  0  0
 22 36  1  0  0  0  0
 22 37  1  0  0  0  0
M  END
$$$$
