BPS
 OpenBabel04121316083D

 25 26  0  0  0  0  0  0  0  0999 V2000
    1.0927    0.1442   -0.0271 O   0  0  0  0  0  0  0  0  0  0  0  0
    2.6766   -0.0195   -0.2089 S   0  0  1  0  0  0  0  0  0  0  0  0
    2.9651    0.2526   -1.6562 O   0  0  0  0  0  0  0  0  0  0  0  0
    3.1347    1.4901    0.7208 C   0  0  0  0  0  0  0  0  0  0  0  0
    2.4415    2.6862    0.4468 C   0  0  0  0  0  0  0  0  0  0  0  0
    2.8736    3.9018    0.9754 C   0  0  0  0  0  0  0  0  0  0  0  0
    3.9444    3.9319    1.8566 C   0  0  0  0  0  0  0  0  0  0  0  0
    4.5768    2.7405    2.2179 C   0  0  0  0  0  0  0  0  0  0  0  0
    4.2339    1.5014    1.6295 C   0  0  0  0  0  0  0  0  0  0  0  0
    5.0965    0.3153    1.9096 C   0  0  0  0  0  0  0  0  0  0  0  0
    6.4960    0.4491    2.0229 C   0  0  0  0  0  0  0  0  0  0  0  0
    7.3320   -0.6739    2.0683 C   0  0  0  0  0  0  0  0  0  0  0  0
    6.7868   -1.9484    2.0394 C   0  0  0  0  0  0  0  0  0  0  0  0
    5.4071   -2.1080    2.0451 C   0  0  0  0  0  0  0  0  0  0  0  0
    4.5792   -0.9824    2.0101 C   0  0  0  0  0  0  0  0  0  0  0  0
    0.6639   -0.5315   -0.6024 H   0  0  0  0  0  0  0  0  0  0  0  0
    1.5795    2.6765   -0.2162 H   0  0  0  0  0  0  0  0  0  0  0  0
    2.3808    4.8276    0.6878 H   0  0  0  0  0  0  0  0  0  0  0  0
    4.2995    4.8771    2.2593 H   0  0  0  0  0  0  0  0  0  0  0  0
    5.3777    2.7986    2.9534 H   0  0  0  0  0  0  0  0  0  0  0  0
    6.9667    1.4280    2.0451 H   0  0  0  0  0  0  0  0  0  0  0  0
    8.4107   -0.5406    2.1006 H   0  0  0  0  0  0  0  0  0  0  0  0
    7.4331   -2.8228    2.0267 H   0  0  0  0  0  0  0  0  0  0  0  0
    4.9649   -3.0976    2.0614 H   0  0  0  0  0  0  0  0  0  0  0  0
    3.5071   -1.1559    2.0306 H   0  0  0  0  0  0  0  0  0  0  0  0
  1 16  1  0  0  0  0
  2  1  1  6  0  0  0
  2  3  2  0  0  0  0
  2  4  1  0  0  0  0
  4  5  2  0  0  0  0
  4  9  1  0  0  0  0
  5  6  1  0  0  0  0
  5 17  1  0  0  0  0
  6  7  2  0  0  0  0
  6 18  1  0  0  0  0
  7  8  1  0  0  0  0
  7 19  1  0  0  0  0
  8  9  2  0  0  0  0
  8 20  1  0  0  0  0
  9 10  1  0  0  0  0
 10 11  2  0  0  0  0
 10 15  1  0  0  0  0
 11 12  1  0  0  0  0
 11 21  1  0  0  0  0
 12 13  2  0  0  0  0
 12 22  1  0  0  0  0
 13 14  1  0  0  0  0
 13 23  1  0  0  0  0
 14 15  2  0  0  0  0
 14 24  1  0  0  0  0
 15 25  1  0  0  0  0
M  END
$$$$
