BR3
 OpenBabel04121316083D

 29 30  0  0  1  0  0  0  0  0999 V2000
    1.0544    0.0659   -0.0519 O   0  5  0  0  0  0  0  0  0  0  0  0
    2.7844    0.0659   -0.0519 P   0  0  1  0  0  0  0  0  0  0  0  0
    2.7990   -1.0281   -0.9186 H   0  0  0  0  0  0  0  0  0  0  0  0
    2.9453    1.3955   -0.8347 O   0  0  0  0  0  0  0  0  0  0  0  0
    4.6144    0.0659   -0.0519 C   0  0  0  0  0  0  0  0  0  0  0  0
    5.1059   -1.3266    0.4650 C   0  0  2  0  0  0  0  0  0  0  0  0
    6.1329   -1.4590    0.1001 H   0  0  0  0  0  0  0  0  0  0  0  0
    4.2003   -2.4475   -0.0514 C   0  0  0  0  0  0  0  0  0  0  0  0
    4.7614   -3.7972    0.2679 C   0  0  0  0  0  0  0  0  0  0  0  0
    5.1692   -3.8232    1.7017 C   0  0  0  0  0  0  0  0  0  0  0  0
    5.3737   -2.6483    2.4314 C   0  0  0  0  0  0  0  0  0  0  0  0
    5.1815   -1.3818    1.9126 O   0  0  0  0  0  0  0  0  0  0  0  0
    5.7514   -2.7503    3.7745 C   0  0  0  0  0  0  0  0  0  0  0  0
    5.9447   -4.0132    4.3619 C   0  0  0  0  0  0  0  0  0  0  0  0
    5.7452   -5.1838    3.6269 C   0  0  0  0  0  0  0  0  0  0  0  0
    5.3507   -5.0775    2.2937 C   0  0  0  0  0  0  0  0  0  0  0  0
    5.9344   -6.5512    4.2077 C   0  0  0  0  0  0  0  0  0  0  0  0
    4.9904    0.8691    0.5903 H   0  0  0  0  0  0  0  0  0  0  0  0
    4.9876    0.1987   -1.0747 H   0  0  0  0  0  0  0  0  0  0  0  0
    4.0558   -2.3838   -1.1333 H   0  0  0  0  0  0  0  0  0  0  0  0
    3.2266   -2.3931    0.4596 H   0  0  0  0  0  0  0  0  0  0  0  0
    5.6243   -4.0122   -0.3680 H   0  0  0  0  0  0  0  0  0  0  0  0
    3.9856   -4.5480    0.0749 H   0  0  0  0  0  0  0  0  0  0  0  0
    5.8998   -1.8529    4.3660 H   0  0  0  0  0  0  0  0  0  0  0  0
    6.2508   -4.0714    5.4052 H   0  0  0  0  0  0  0  0  0  0  0  0
    5.1711   -5.9735    1.7057 H   0  0  0  0  0  0  0  0  0  0  0  0
    6.2568   -6.5063    5.2512 H   0  0  0  0  0  0  0  0  0  0  0  0
    6.6964   -7.0951    3.6384 H   0  0  0  0  0  0  0  0  0  0  0  0
    4.9949   -7.1128    4.1625 H   0  0  0  0  0  0  0  0  0  0  0  0
  1  2  1  0  0  0  0
  2  3  1  6  0  0  0
  2  4  2  0  0  0  0
  2  5  1  0  0  0  0
  5  6  1  0  0  0  0
  5 18  1  0  0  0  0
  5 19  1  0  0  0  0
  6  7  1  6  0  0  0
  6  8  1  0  0  0  0
  6 12  1  0  0  0  0
  8  9  1  0  0  0  0
  8 20  1  0  0  0  0
  8 21  1  0  0  0  0
  9 10  1  0  0  0  0
  9 22  1  0  0  0  0
  9 23  1  0  0  0  0
 10 11  2  0  0  0  0
 10 16  1  0  0  0  0
 11 12  1  0  0  0  0
 11 13  1  0  0  0  0
 13 14  2  0  0  0  0
 13 24  1  0  0  0  0
 14 15  1  0  0  0  0
 14 25  1  0  0  0  0
 15 16  2  0  0  0  0
 15 17  1  0  0  0  0
 16 26  1  0  0  0  0
 17 27  1  0  0  0  0
 17 28  1  0  0  0  0
 17 29  1  0  0  0  0
M  CHG  1   1  -1
M  END
$$$$
