BR5
 OpenBabel04121316083D

 18 17  0  0  0  0  0  0  0  0999 V2000
    0.9016    0.0019   -0.0177 O   0  5  0  0  0  0  0  0  0  0  0  0
    2.6316    0.0019   -0.0177 P   0  0  1  0  0  0  0  0  0  0  0  0
    2.7389    0.5943   -1.2938 H   0  0  0  0  0  0  0  0  0  0  0  0
    2.7654    0.8939    1.2394 O   0  0  0  0  0  0  0  0  0  0  0  0
    4.4616    0.0019   -0.0177 C   0  0  0  0  0  0  0  0  0  0  0  0
    4.9965    1.4071   -0.2626 C   0  0  0  0  0  0  0  0  0  0  0  0
    6.4279    1.4087   -0.3308 O   0  0  0  0  0  0  0  0  0  0  0  0
    6.8952    2.7500   -0.4803 C   0  0  0  0  0  0  0  0  0  0  0  0
    8.4083    2.7405   -0.4669 C   0  0  0  0  0  0  0  0  0  0  0  0
    4.8038   -0.6683   -0.8142 H   0  0  0  0  0  0  0  0  0  0  0  0
    4.8550   -0.4119    0.9185 H   0  0  0  0  0  0  0  0  0  0  0  0
    4.6804    2.0876    0.5351 H   0  0  0  0  0  0  0  0  0  0  0  0
    4.5985    1.7902   -1.2094 H   0  0  0  0  0  0  0  0  0  0  0  0
    6.5243    3.3753    0.3398 H   0  0  0  0  0  0  0  0  0  0  0  0
    6.5321    3.1557   -1.4308 H   0  0  0  0  0  0  0  0  0  0  0  0
    8.7801    2.3568    0.4880 H   0  0  0  0  0  0  0  0  0  0  0  0
    8.8012    3.7508   -0.6183 H   0  0  0  0  0  0  0  0  0  0  0  0
    8.7961    2.0853   -1.2518 H   0  0  0  0  0  0  0  0  0  0  0  0
  1  2  1  0  0  0  0
  2  3  1  6  0  0  0
  2  4  2  0  0  0  0
  2  5  1  0  0  0  0
  5  6  1  0  0  0  0
  5 10  1  0  0  0  0
  5 11  1  0  0  0  0
  6  7  1  0  0  0  0
  6 12  1  0  0  0  0
  6 13  1  0  0  0  0
  7  8  1  0  0  0  0
  8  9  1  0  0  0  0
  8 14  1  0  0  0  0
  8 15  1  0  0  0  0
  9 16  1  0  0  0  0
  9 17  1  0  0  0  0
  9 18  1  0  0  0  0
M  CHG  1   1  -1
M  END
$$$$
