BR6
 OpenBabel04121316083D

 30 31  0  0  0  0  0  0  0  0999 V2000
    1.0611    0.1149    0.1049 Br  0  0  0  0  0  0  0  0  0  0  0  0
    2.9466    0.1168    0.0428 C   0  0  0  0  0  0  0  0  0  0  0  0
    3.6466    1.3206    0.0274 C   0  0  0  0  0  0  0  0  0  0  0  0
    5.0294    1.3074   -0.1618 C   0  0  0  0  0  0  0  0  0  0  0  0
    5.7264    0.0994   -0.2271 C   0  0  0  0  0  0  0  0  0  0  0  0
    5.0128   -1.0956   -0.0831 C   0  0  0  0  0  0  0  0  0  0  0  0
    3.6243   -1.0937   -0.0093 C   0  0  0  0  0  0  0  0  0  0  0  0
    7.1063    0.1721   -0.4614 N   0  0  0  0  0  0  0  0  0  0  0  0
    7.7946   -0.8983   -0.6165 C   0  0  0  0  0  0  0  0  0  0  0  0
    9.2158   -0.8542   -0.9471 C   0  0  0  0  0  0  0  0  0  0  0  0
    9.8565    0.3701   -1.1034 C   0  0  0  0  0  0  0  0  0  0  0  0
   11.1499    0.3945   -1.6100 C   0  0  0  0  0  0  0  0  0  0  0  0
   11.8298   -0.8047   -1.8654 C   0  0  0  0  0  0  0  0  0  0  0  0
   11.2061   -2.0283   -1.5675 C   0  0  0  0  0  0  0  0  0  0  0  0
    9.8777   -2.0576   -1.1642 C   0  0  0  0  0  0  0  0  0  0  0  0
   13.1870   -0.7995   -2.4899 C   0  0  0  0  0  0  0  0  0  0  0  0
   13.7941    0.2752   -2.8855 N   0  0  0  0  0  0  0  0  0  0  0  0
   13.8660   -1.9552   -2.6977 N   0  0  0  0  0  0  0  0  0  0  0  0
    3.1313    2.2689    0.1415 H   0  0  0  0  0  0  0  0  0  0  0  0
    5.5722    2.2452   -0.2655 H   0  0  0  0  0  0  0  0  0  0  0  0
    5.5060   -2.0581   -0.0403 H   0  0  0  0  0  0  0  0  0  0  0  0
    3.0987   -2.0432    0.0041 H   0  0  0  0  0  0  0  0  0  0  0  0
    7.3819   -1.9187   -0.5493 H   0  0  0  0  0  0  0  0  0  0  0  0
    9.3420    1.2995   -0.8721 H   0  0  0  0  0  0  0  0  0  0  0  0
   11.5844    1.3676   -1.8046 H   0  0  0  0  0  0  0  0  0  0  0  0
   11.7187   -2.9776   -1.6648 H   0  0  0  0  0  0  0  0  0  0  0  0
    9.3721   -3.0128   -1.0430 H   0  0  0  0  0  0  0  0  0  0  0  0
   13.2522    1.1224   -2.7212 H   0  0  0  0  0  0  0  0  0  0  0  0
   13.4773   -2.8757   -2.5807 H   0  0  0  0  0  0  0  0  0  0  0  0
   14.7284   -1.8736   -3.2199 H   0  0  0  0  0  0  0  0  0  0  0  0
  1  2  1  0  0  0  0
  2  3  2  0  0  0  0
  2  7  1  0  0  0  0
  3  4  1  0  0  0  0
  3 19  1  0  0  0  0
  4  5  2  0  0  0  0
  4 20  1  0  0  0  0
  5  6  1  0  0  0  0
  5  8  1  0  0  0  0
  6  7  2  0  0  0  0
  6 21  1  0  0  0  0
  7 22  1  0  0  0  0
  8  9  2  0  0  0  0
  9 10  1  0  0  0  0
  9 23  1  0  0  0  0
 10 11  2  0  0  0  0
 10 15  1  0  0  0  0
 11 12  1  0  0  0  0
 11 24  1  0  0  0  0
 12 13  2  0  0  0  0
 12 25  1  0  0  0  0
 13 14  1  0  0  0  0
 13 16  1  0  0  0  0
 14 15  2  0  0  0  0
 14 26  1  0  0  0  0
 15 27  1  0  0  0  0
 16 17  2  0  0  0  0
 16 18  1  0  0  0  0
 17 28  1  0  0  0  0
 18 29  1  0  0  0  0
 18 30  1  0  0  0  0
M  END
$$$$
