BRA
 OpenBabel04121316083D

 87 92  0  0  0  0  0  0  0  0999 V2000
    0.8613   -0.0631    0.0002 O   0  0  0  0  0  0  0  0  0  0  0  0
    2.0836   -0.0282   -0.0693 C   0  0  0  0  0  0  0  0  0  0  0  0
    2.8457   -0.6236   -1.0544 N   0  0  0  0  0  0  0  0  0  0  0  0
    2.1561   -1.4635   -1.9128 C   0  0  0  0  0  0  0  0  0  0  0  0
    2.2105   -2.8090   -1.6564 C   0  0  0  0  0  0  0  0  0  0  0  0
    1.3448   -3.5945   -2.3692 C   0  0  0  0  0  0  0  0  0  0  0  0
    0.8493   -3.1549   -3.5960 C   0  0  0  0  0  0  0  0  0  0  0  0
    0.7005   -1.7735   -3.8004 C   0  0  0  0  0  0  0  0  0  0  0  0
    1.3100   -0.9347   -2.8866 C   0  0  0  0  0  0  0  0  0  0  0  0
    0.0070   -1.2716   -4.8356 N   0  0  0  0  0  0  0  0  0  0  0  0
   -0.5061   -2.1309   -5.7272 C   0  0  0  0  0  0  0  0  0  0  0  0
   -0.2335   -3.5223   -5.6659 C   0  0  0  0  0  0  0  0  0  0  0  0
    0.4972   -4.0563   -4.6109 C   0  0  0  0  0  0  0  0  0  0  0  0
    0.9395   -5.4146   -4.6727 N   0  0  0  0  0  0  0  0  0  0  0  0
    1.9157   -6.1111   -3.9460 C   0  0  0  0  0  0  0  0  0  0  0  0
    3.0190   -5.4548   -3.4274 C   0  0  0  0  0  0  0  0  0  0  0  0
    3.6506   -5.9371   -2.2958 C   0  0  0  0  0  0  0  0  0  0  0  0
    3.4464   -7.2294   -1.8324 C   0  0  0  0  0  0  0  0  0  0  0  0
    2.4041   -7.9425   -2.4574 C   0  0  0  0  0  0  0  0  0  0  0  0
    1.6479   -7.3996   -3.5024 C   0  0  0  0  0  0  0  0  0  0  0  0
    4.2266   -7.7373   -0.8049 N   0  0  0  0  0  0  0  0  0  0  0  0
    5.3839   -6.9915   -0.2885 C   0  0  0  0  0  0  0  0  0  0  0  0
    4.3220   -9.1835   -0.6418 C   0  0  0  0  0  0  0  0  0  0  0  0
   -0.7314   -4.3748   -6.6273 C   0  0  0  0  0  0  0  0  0  0  0  0
   -1.5333   -3.8830   -7.6066 C   0  0  0  0  0  0  0  0  0  0  0  0
   -1.8505   -2.5374   -7.6949 C   0  0  0  0  0  0  0  0  0  0  0  0
   -1.3264   -1.6559   -6.7490 C   0  0  0  0  0  0  0  0  0  0  0  0
   -2.6844   -2.1029   -8.7368 N   0  0  0  0  0  0  0  0  0  0  0  0
   -3.1949   -2.9729   -9.6865 C   0  0  0  0  0  0  0  0  0  0  0  0
   -3.0215   -4.1952   -9.7700 O   0  0  0  0  0  0  0  0  0  0  0  0
   -4.0556   -2.3313  -10.6872 C   0  0  0  0  0  0  0  0  0  0  0  0
   -4.5714   -3.3977  -11.6654 C   0  0  0  0  0  0  0  0  0  0  0  0
   -5.4733   -2.8740  -12.6900 N   0  0  0  0  0  0  0  0  0  0  0  0
   -6.8230   -3.4206  -12.5720 C   0  0  0  0  0  0  0  0  0  0  0  0
   -7.6503   -2.4417  -13.3806 C   0  0  0  0  0  0  0  0  0  0  0  0
   -6.9962   -1.0998  -13.1304 C   0  0  0  0  0  0  0  0  0  0  0  0
   -5.5785   -1.4170  -12.7264 C   0  0  0  0  0  0  0  0  0  0  0  0
    2.8502    0.7336    0.9535 C   0  0  0  0  0  0  0  0  0  0  0  0
    4.3752    0.6436    0.8678 C   0  0  0  0  0  0  0  0  0  0  0  0
    5.0626    1.4589    1.8631 N   0  0  0  0  0  0  0  0  0  0  0  0
    4.7491    2.8825    1.7230 C   0  0  0  0  0  0  0  0  0  0  0  0
    5.0409    3.4486    3.0898 C   0  0  0  0  0  0  0  0  0  0  0  0
    4.6624    2.3291    4.0423 C   0  0  0  0  0  0  0  0  0  0  0  0
    4.7524    1.0484    3.2351 C   0  0  0  0  0  0  0  0  0  0  0  0
    3.7571   -0.9622   -0.7725 H   0  0  0  0  0  0  0  0  0  0  0  0
    2.8265   -3.2479   -0.8797 H   0  0  0  0  0  0  0  0  0  0  0  0
    1.1836   -4.6188   -2.0537 H   0  0  0  0  0  0  0  0  0  0  0  0
    1.1692    0.1389   -2.9466 H   0  0  0  0  0  0  0  0  0  0  0  0
    0.4088   -6.0368   -5.2616 H   0  0  0  0  0  0  0  0  0  0  0  0
    3.2648   -4.4460   -3.7440 H   0  0  0  0  0  0  0  0  0  0  0  0
    4.2578   -5.2149   -1.7676 H   0  0  0  0  0  0  0  0  0  0  0  0
    2.0959   -8.9267   -2.1216 H   0  0  0  0  0  0  0  0  0  0  0  0
    0.8227   -7.9736   -3.9161 H   0  0  0  0  0  0  0  0  0  0  0  0
    5.3959   -5.9174   -0.4874 H   0  0  0  0  0  0  0  0  0  0  0  0
    6.3264   -7.3822   -0.6890 H   0  0  0  0  0  0  0  0  0  0  0  0
    5.3919   -7.0686    0.8010 H   0  0  0  0  0  0  0  0  0  0  0  0
    3.5430   -9.7587   -1.1432 H   0  0  0  0  0  0  0  0  0  0  0  0
    4.2417   -9.4157    0.4217 H   0  0  0  0  0  0  0  0  0  0  0  0
    5.2754   -9.5595   -1.0292 H   0  0  0  0  0  0  0  0  0  0  0  0
   -0.5776   -5.4435   -6.6634 H   0  0  0  0  0  0  0  0  0  0  0  0
   -1.8859   -4.6526   -8.2704 H   0  0  0  0  0  0  0  0  0  0  0  0
   -1.5500   -0.5918   -6.7738 H   0  0  0  0  0  0  0  0  0  0  0  0
   -2.9081   -1.1131   -8.7874 H   0  0  0  0  0  0  0  0  0  0  0  0
   -3.4571   -1.5763  -11.2100 H   0  0  0  0  0  0  0  0  0  0  0  0
   -4.8859   -1.8792  -10.1329 H   0  0  0  0  0  0  0  0  0  0  0  0
   -5.0536   -4.2118  -11.0996 H   0  0  0  0  0  0  0  0  0  0  0  0
   -3.7189   -3.8822  -12.1645 H   0  0  0  0  0  0  0  0  0  0  0  0
   -7.1627   -3.4369  -11.5289 H   0  0  0  0  0  0  0  0  0  0  0  0
   -6.8947   -4.4376  -12.9760 H   0  0  0  0  0  0  0  0  0  0  0  0
   -8.6980   -2.4411  -13.0695 H   0  0  0  0  0  0  0  0  0  0  0  0
   -7.5988   -2.6793  -14.4480 H   0  0  0  0  0  0  0  0  0  0  0  0
   -7.4955   -0.5973  -12.2918 H   0  0  0  0  0  0  0  0  0  0  0  0
   -7.0237   -0.4375  -13.9966 H   0  0  0  0  0  0  0  0  0  0  0  0
   -5.4599   -0.9149  -11.7649 H   0  0  0  0  0  0  0  0  0  0  0  0
   -4.8204   -0.9996  -13.3954 H   0  0  0  0  0  0  0  0  0  0  0  0
    2.4808    0.3773    1.9185 H   0  0  0  0  0  0  0  0  0  0  0  0
    2.5017    1.7584    0.8163 H   0  0  0  0  0  0  0  0  0  0  0  0
    4.7194    0.9458   -0.1314 H   0  0  0  0  0  0  0  0  0  0  0  0
    4.7032   -0.3996    0.9848 H   0  0  0  0  0  0  0  0  0  0  0  0
    3.6987    3.0855    1.5043 H   0  0  0  0  0  0  0  0  0  0  0  0
    5.3394    3.3531    0.9299 H   0  0  0  0  0  0  0  0  0  0  0  0
    4.4513    4.3513    3.2773 H   0  0  0  0  0  0  0  0  0  0  0  0
    6.1022    3.6937    3.1843 H   0  0  0  0  0  0  0  0  0  0  0  0
    3.6302    2.4664    4.3875 H   0  0  0  0  0  0  0  0  0  0  0  0
    5.3170    2.3037    4.9159 H   0  0  0  0  0  0  0  0  0  0  0  0
    3.8099    0.5057    3.3471 H   0  0  0  0  0  0  0  0  0  0  0  0
    5.5264    0.3725    3.6128 H   0  0  0  0  0  0  0  0  0  0  0  0
  1  2  2  0  0  0  0
  2  3  1  0  0  0  0
  2 38  1  0  0  0  0
  3  4  1  0  0  0  0
  3 45  1  0  0  0  0
  4  5  2  0  0  0  0
  4  9  1  0  0  0  0
  5  6  1  0  0  0  0
  5 46  1  0  0  0  0
  6  7  2  0  0  0  0
  6 47  1  0  0  0  0
  7  8  1  0  0  0  0
  7 13  1  0  0  0  0
  8  9  2  0  0  0  0
  8 10  1  0  0  0  0
  9 48  1  0  0  0  0
 10 11  2  0  0  0  0
 11 12  1  0  0  0  0
 11 27  1  0  0  0  0
 12 13  2  0  0  0  0
 12 24  1  0  0  0  0
 13 14  1  0  0  0  0
 14 15  1  0  0  0  0
 14 49  1  0  0  0  0
 15 16  2  0  0  0  0
 15 20  1  0  0  0  0
 16 17  1  0  0  0  0
 16 50  1  0  0  0  0
 17 18  2  0  0  0  0
 17 51  1  0  0  0  0
 18 19  1  0  0  0  0
 18 21  1  0  0  0  0
 19 20  2  0  0  0  0
 19 52  1  0  0  0  0
 20 53  1  0  0  0  0
 21 22  1  0  0  0  0
 21 23  1  0  0  0  0
 22 54  1  0  0  0  0
 22 55  1  0  0  0  0
 22 56  1  0  0  0  0
 23 57  1  0  0  0  0
 23 58  1  0  0  0  0
 23 59  1  0  0  0  0
 24 25  2  0  0  0  0
 24 60  1  0  0  0  0
 25 26  1  0  0  0  0
 25 61  1  0  0  0  0
 26 27  2  0  0  0  0
 26 28  1  0  0  0  0
 27 62  1  0  0  0  0
 28 29  1  0  0  0  0
 28 63  1  0  0  0  0
 29 30  2  0  0  0  0
 29 31  1  0  0  0  0
 31 32  1  0  0  0  0
 31 64  1  0  0  0  0
 31 65  1  0  0  0  0
 32 33  1  0  0  0  0
 32 66  1  0  0  0  0
 32 67  1  0  0  0  0
 33 34  1  0  0  0  0
 33 37  1  0  0  0  0
 34 35  1  0  0  0  0
 34 68  1  0  0  0  0
 34 69  1  0  0  0  0
 35 36  1  0  0  0  0
 35 70  1  0  0  0  0
 35 71  1  0  0  0  0
 36 37  1  0  0  0  0
 36 72  1  0  0  0  0
 36 73  1  0  0  0  0
 37 74  1  0  0  0  0
 37 75  1  0  0  0  0
 38 39  1  0  0  0  0
 38 76  1  0  0  0  0
 38 77  1  0  0  0  0
 39 40  1  0  0  0  0
 39 78  1  0  0  0  0
 39 79  1  0  0  0  0
 40 41  1  0  0  0  0
 40 44  1  0  0  0  0
 41 42  1  0  0  0  0
 41 80  1  0  0  0  0
 41 81  1  0  0  0  0
 42 43  1  0  0  0  0
 42 82  1  0  0  0  0
 42 83  1  0  0  0  0
 43 44  1  0  0  0  0
 43 84  1  0  0  0  0
 43 85  1  0  0  0  0
 44 86  1  0  0  0  0
 44 87  1  0  0  0  0
M  END
$$$$
