BRJ
 OpenBabel04121316083D

  9  8  0  0  0  0  0  0  0  0999 V2000
    1.0269    0.0642   -0.0638 O   0  0  0  0  0  0  0  0  0  0  0  0
    2.4506    0.0653   -0.0692 C   0  0  0  0  0  0  0  0  0  0  0  0
    2.9581   -0.2306    1.3280 C   0  0  0  0  0  0  0  0  0  0  0  0
    4.9004   -0.2352    1.3497 Br  0  0  0  0  0  0  0  0  0  0  0  0
    0.7380    0.2567   -0.9729 H   0  0  0  0  0  0  0  0  0  0  0  0
    2.7936    1.0466   -0.4141 H   0  0  0  0  0  0  0  0  0  0  0  0
    2.7936   -0.6918   -0.7824 H   0  0  0  0  0  0  0  0  0  0  0  0
    2.6219   -1.2105    1.6789 H   0  0  0  0  0  0  0  0  0  0  0  0
    2.6219    0.5229    2.0461 H   0  0  0  0  0  0  0  0  0  0  0  0
  1  2  1  0  0  0  0
  1  5  1  0  0  0  0
  2  3  1  0  0  0  0
  2  6  1  0  0  0  0
  2  7  1  0  0  0  0
  3  4  1  0  0  0  0
  3  8  1  0  0  0  0
  3  9  1  0  0  0  0
M  END
$$$$
