BRN
 OpenBabel04121316083D

 36 37  0  0  0  0  0  0  0  0999 V2000
    1.1014    0.1317    0.1717 N   0  0  0  0  0  0  0  0  0  0  0  0
    2.4647    0.0765    0.0752 C   0  0  0  0  0  0  0  0  0  0  0  0
    3.1539   -0.8611    0.6099 N   0  0  0  0  0  0  0  0  0  0  0  0
    3.1443    1.1499   -0.6843 C   0  0  0  0  0  0  0  0  0  0  0  0
    2.8743    2.4795   -0.3599 C   0  0  0  0  0  0  0  0  0  0  0  0
    3.3131    3.5022   -1.2042 C   0  0  0  0  0  0  0  0  0  0  0  0
    4.0817    3.2085   -2.3370 C   0  0  0  0  0  0  0  0  0  0  0  0
    4.4640    1.8702   -2.5531 C   0  0  0  0  0  0  0  0  0  0  0  0
    3.9619    0.8344   -1.7636 C   0  0  0  0  0  0  0  0  0  0  0  0
    4.5393    4.2467   -3.1648 N   0  0  0  0  0  0  0  0  0  0  0  0
    5.1659    3.9040   -4.2976 N   0  0  0  0  0  0  0  0  0  0  0  0
    5.4187    4.9269   -4.9540 N   0  0  0  0  0  0  0  0  0  0  0  0
    6.1309    4.6001   -6.1351 C   0  0  0  0  0  0  0  0  0  0  0  0
    6.6935    5.6379   -6.8822 C   0  0  0  0  0  0  0  0  0  0  0  0
    7.2862    5.3938   -8.1307 C   0  0  0  0  0  0  0  0  0  0  0  0
    7.4081    4.0867   -8.6191 C   0  0  0  0  0  0  0  0  0  0  0  0
    6.9727    3.0332   -7.8101 C   0  0  0  0  0  0  0  0  0  0  0  0
    6.2962    3.2909   -6.6154 C   0  0  0  0  0  0  0  0  0  0  0  0
    7.9453    3.7991   -9.9902 C   0  0  0  0  0  0  0  0  0  0  0  0
    8.2792    4.7169  -10.8424 N   0  0  0  0  0  0  0  0  0  0  0  0
    8.0950    2.5244  -10.4360 N   0  0  0  0  0  0  0  0  0  0  0  0
    0.5901   -0.6758    0.4987 H   0  0  0  0  0  0  0  0  0  0  0  0
    0.5988    0.7235   -0.4810 H   0  0  0  0  0  0  0  0  0  0  0  0
    2.5344   -1.4987    1.1172 H   0  0  0  0  0  0  0  0  0  0  0  0
    2.3233    2.7134    0.5473 H   0  0  0  0  0  0  0  0  0  0  0  0
    3.0399    4.5272   -0.9707 H   0  0  0  0  0  0  0  0  0  0  0  0
    5.1439    1.6184   -3.3635 H   0  0  0  0  0  0  0  0  0  0  0  0
    4.1891   -0.1997   -2.0058 H   0  0  0  0  0  0  0  0  0  0  0  0
    4.0656    5.1413   -3.1347 H   0  0  0  0  0  0  0  0  0  0  0  0
    6.6562    6.6558   -6.5013 H   0  0  0  0  0  0  0  0  0  0  0  0
    7.6339    6.2509   -8.6965 H   0  0  0  0  0  0  0  0  0  0  0  0
    7.1203    1.9955   -8.0856 H   0  0  0  0  0  0  0  0  0  0  0  0
    5.8889    2.4440   -6.0676 H   0  0  0  0  0  0  0  0  0  0  0  0
    8.1483    5.6610  -10.4829 H   0  0  0  0  0  0  0  0  0  0  0  0
    7.7499    1.7076   -9.9604 H   0  0  0  0  0  0  0  0  0  0  0  0
    8.3540    2.4212  -11.4092 H   0  0  0  0  0  0  0  0  0  0  0  0
  1  2  1  0  0  0  0
  1 22  1  0  0  0  0
  1 23  1  0  0  0  0
  2  3  2  0  0  0  0
  2  4  1  0  0  0  0
  3 24  1  0  0  0  0
  4  5  2  0  0  0  0
  4  9  1  0  0  0  0
  5  6  1  0  0  0  0
  5 25  1  0  0  0  0
  6  7  2  0  0  0  0
  6 26  1  0  0  0  0
  7  8  1  0  0  0  0
  7 10  1  0  0  0  0
  8  9  2  0  0  0  0
  8 27  1  0  0  0  0
  9 28  1  0  0  0  0
 10 11  1  0  0  0  0
 10 29  1  0  0  0  0
 11 12  2  0  0  0  0
 12 13  1  0  0  0  0
 13 14  2  0  0  0  0
 13 18  1  0  0  0  0
 14 15  1  0  0  0  0
 14 30  1  0  0  0  0
 15 16  2  0  0  0  0
 15 31  1  0  0  0  0
 16 17  1  0  0  0  0
 16 19  1  0  0  0  0
 17 18  2  0  0  0  0
 17 32  1  0  0  0  0
 18 33  1  0  0  0  0
 19 20  2  0  0  0  0
 19 21  1  0  0  0  0
 20 34  1  0  0  0  0
 21 35  1  0  0  0  0
 21 36  1  0  0  0  0
M  END
$$$$
