BRT
 OpenBabel04121316083D

 15 15  0  0  0  0  0  0  0  0999 V2000
    1.0468   -0.0268   -0.0647 N   0  0  0  0  0  0  0  0  0  0  0  0
    2.4101    0.0470   -0.0633 C   0  0  0  0  0  0  0  0  0  0  0  0
    3.0340    0.7566    0.7119 O   0  0  0  0  0  0  0  0  0  0  0  0
    3.0934   -0.7468   -1.0900 C   0  0  0  0  0  0  0  0  0  0  0  0
    3.9292   -0.1284   -2.0180 C   0  0  0  0  0  0  0  0  0  0  0  0
    4.5113   -0.9115   -3.0079 C   0  0  0  0  0  0  0  0  0  0  0  0
    5.6035   -0.1277   -4.3296 Br  0  0  0  0  0  0  0  0  0  0  0  0
    4.2548   -2.2770   -3.0175 C   0  0  0  0  0  0  0  0  0  0  0  0
    3.4657   -2.9032   -2.1083 N   0  0  0  0  0  0  0  0  0  0  0  0
    2.9045   -2.1199   -1.1564 C   0  0  0  0  0  0  0  0  0  0  0  0
    0.5453    0.5707    0.5811 H   0  0  0  0  0  0  0  0  0  0  0  0
    0.5152   -0.5038   -0.7813 H   0  0  0  0  0  0  0  0  0  0  0  0
    4.1018    0.9431   -1.9719 H   0  0  0  0  0  0  0  0  0  0  0  0
    4.6820   -2.9283   -3.7755 H   0  0  0  0  0  0  0  0  0  0  0  0
    2.2908   -2.6428   -0.4279 H   0  0  0  0  0  0  0  0  0  0  0  0
  1  2  1  0  0  0  0
  1 11  1  0  0  0  0
  1 12  1  0  0  0  0
  2  3  2  0  0  0  0
  2  4  1  0  0  0  0
  4  5  2  0  0  0  0
  4 10  1  0  0  0  0
  5  6  1  0  0  0  0
  5 13  1  0  0  0  0
  6  7  1  0  0  0  0
  6  8  2  0  0  0  0
  8  9  1  0  0  0  0
  8 14  1  0  0  0  0
  9 10  2  0  0  0  0
 10 15  1  0  0  0  0
M  END
$$$$
