BRY
 OpenBabel04121316083D

 30 33  0  0  0  0  0  0  0  0999 V2000
    1.0660   -0.3689    0.0705 Br  0  0  0  0  0  0  0  0  0  0  0  0
    2.9520   -0.2936    0.0663 C   0  0  0  0  0  0  0  0  0  0  0  0
    3.7782   -1.4096    0.0653 C   0  0  0  0  0  0  0  0  0  0  0  0
    5.1877   -1.2611    0.0568 C   0  0  0  0  0  0  0  0  0  0  0  0
    5.7169    0.0275    0.0539 C   0  0  0  0  0  0  0  0  0  0  0  0
    4.8660    1.1256    0.0580 C   0  0  0  0  0  0  0  0  0  0  0  0
    3.5111    0.9572    0.0622 C   0  0  0  0  0  0  0  0  0  0  0  0
    5.6365    2.3549    0.0550 C   0  0  0  0  0  0  0  0  0  0  0  0
    5.1743    3.6252    0.0585 C   0  0  0  0  0  0  0  0  0  0  0  0
    5.9490    4.7698    0.0547 N   0  0  0  0  0  0  0  0  0  0  0  0
    5.1625    5.9109    0.0605 C   0  0  0  0  0  0  0  0  0  0  0  0
    3.8034    5.6271    0.0678 C   0  0  0  0  0  0  0  0  0  0  0  0
    3.6987    4.1725    0.0677 C   0  0  0  0  0  0  0  0  0  0  0  0
    2.6040    3.6723    0.0753 O   0  0  0  0  0  0  0  0  0  0  0  0
    2.7998    6.5865    0.0753 C   0  0  0  0  0  0  0  0  0  0  0  0
    3.2131    7.9149    0.0764 C   0  0  0  0  0  0  0  0  0  0  0  0
    4.5862    8.2246    0.0667 C   0  0  0  0  0  0  0  0  0  0  0  0
    5.5648    7.2201    0.0587 C   0  0  0  0  0  0  0  0  0  0  0  0
    7.0916    1.8947    0.0475 C   0  0  0  0  0  0  0  0  0  0  0  0
    8.0820    2.5981    0.0432 O   0  0  0  0  0  0  0  0  0  0  0  0
    7.0427    0.4845    0.0470 N   0  0  0  0  0  0  0  0  0  0  0  0
    3.3083   -2.3878    0.0706 H   0  0  0  0  0  0  0  0  0  0  0  0
    5.8006   -2.1561    0.0526 H   0  0  0  0  0  0  0  0  0  0  0  0
    2.8498    1.7845    0.0616 H   0  0  0  0  0  0  0  0  0  0  0  0
    6.9575    4.7377    0.0508 H   0  0  0  0  0  0  0  0  0  0  0  0
    1.7457    6.3200    0.0806 H   0  0  0  0  0  0  0  0  0  0  0  0
    2.4782    8.7173    0.0848 H   0  0  0  0  0  0  0  0  0  0  0  0
    4.9005    9.2647    0.0652 H   0  0  0  0  0  0  0  0  0  0  0  0
    6.6185    7.4627    0.0519 H   0  0  0  0  0  0  0  0  0  0  0  0
    7.8757   -0.0926    0.0427 H   0  0  0  0  0  0  0  0  0  0  0  0
  1  2  1  0  0  0  0
  2  3  2  0  0  0  0
  2  7  1  0  0  0  0
  3  4  1  0  0  0  0
  3 22  1  0  0  0  0
  4  5  2  0  0  0  0
  4 23  1  0  0  0  0
  5  6  1  0  0  0  0
  5 21  1  0  0  0  0
  6  7  2  0  0  0  0
  6  8  1  0  0  0  0
  7 24  1  0  0  0  0
  8  9  2  0  0  0  0
  8 19  1  0  0  0  0
  9 10  1  0  0  0  0
  9 13  1  0  0  0  0
 10 11  1  0  0  0  0
 10 25  1  0  0  0  0
 11 12  2  0  0  0  0
 11 18  1  0  0  0  0
 12 13  1  0  0  0  0
 12 15  1  0  0  0  0
 13 14  2  0  0  0  0
 15 16  2  0  0  0  0
 15 26  1  0  0  0  0
 16 17  1  0  0  0  0
 16 27  1  0  0  0  0
 17 18  2  0  0  0  0
 17 28  1  0  0  0  0
 18 29  1  0  0  0  0
 19 20  2  0  0  0  0
 19 21  1  0  0  0  0
 21 30  1  0  0  0  0
M  END
$$$$
