BSD
 OpenBabel04121316083D

 89 92  0  0  1  0  0  0  0  0999 V2000
    0.9147   -9.8377    3.9262 C   0  0  0  0  0  0  0  0  0  0  0  0
    1.2567   -9.4137    5.2496 O   0  0  0  0  0  0  0  0  0  0  0  0
    0.8993   -8.1310    5.5641 C   0  0  0  0  0  0  0  0  0  0  0  0
    0.9791   -7.7473    6.8990 C   0  0  0  0  0  0  0  0  0  0  0  0
    0.5964   -6.4601    7.2963 C   0  0  0  0  0  0  0  0  0  0  0  0
    0.0061   -5.5944    6.3831 C   0  0  0  0  0  0  0  0  0  0  0  0
   -0.0853   -5.9715    5.0477 C   0  0  0  0  0  0  0  0  0  0  0  0
    0.4616   -7.1994    4.6412 C   0  0  0  0  0  0  0  0  0  0  0  0
   -0.8092   -5.0882    4.0775 C   0  0  0  0  0  0  0  0  0  0  0  0
   -0.7832   -5.6786    2.7596 N   0  0  0  0  0  0  0  0  0  0  0  0
   -1.4460   -4.8497    1.7946 C   0  0  0  0  0  0  0  0  0  0  0  0
   -1.2045   -5.4957    0.4293 C   0  0  2  0  0  0  0  0  0  0  0  0
   -0.1339   -5.6254    0.2410 H   0  0  0  0  0  0  0  0  0  0  0  0
   -1.7776   -4.5828   -0.6658 C   0  0  1  0  0  0  0  0  0  0  0  0
   -1.6825   -5.1105   -1.6197 H   0  0  0  0  0  0  0  0  0  0  0  0
   -3.1922   -4.3297   -0.4697 N   0  0  0  0  0  0  0  0  0  0  0  0
   -4.0975   -5.3375   -0.5961 C   0  0  0  0  0  0  0  0  0  0  0  0
   -3.7905   -6.4700   -0.9853 O   0  0  0  0  0  0  0  0  0  0  0  0
   -5.4855   -5.0410   -0.2467 C   0  0  0  0  0  0  0  0  0  0  0  0
   -6.3188   -6.1470   -0.0903 C   0  0  0  0  0  0  0  0  0  0  0  0
   -7.6484   -5.9251    0.1265 C   0  0  0  0  0  0  0  0  0  0  0  0
   -8.0700   -4.6123    0.2300 C   0  0  0  0  0  0  0  0  0  0  0  0
   -7.3088   -3.4735    0.1178 C   0  0  0  0  0  0  0  0  0  0  0  0
   -5.9695   -3.7180   -0.1365 C   0  0  0  0  0  0  0  0  0  0  0  0
   -7.8901   -2.1496    0.2115 N   0  0  0  0  0  0  0  0  0  0  0  0
   -9.5223   -1.7323    0.5002 S   0  0  0  0  0  0  0  0  0  0  0  0
   -9.5566   -1.0667    1.7872 O   0  0  0  0  0  0  0  0  0  0  0  0
   -9.9862   -1.0412   -0.6866 O   0  0  0  0  0  0  0  0  0  0  0  0
  -10.5860   -3.1651    0.6700 C   0  0  0  0  0  0  0  0  0  0  0  0
   -7.0215   -0.9451    0.0746 C   0  0  0  0  0  0  0  0  0  0  0  0
   -8.6248   -7.0378    0.2111 C   0  0  0  0  0  0  0  0  0  0  0  0
   -8.2190   -8.1824    0.0781 O   0  0  0  0  0  0  0  0  0  0  0  0
   -9.9564   -6.7143    0.4568 N   0  0  0  0  0  0  0  0  0  0  0  0
  -10.9370   -7.7445    0.6869 C   0  0  1  0  0  0  0  0  0  0  0  0
  -10.9244   -8.3612   -0.2194 H   0  0  0  0  0  0  0  0  0  0  0  0
  -10.5835   -8.5735    1.8959 C   0  0  0  0  0  0  0  0  0  0  0  0
   -9.8627   -8.0580    2.9880 C   0  0  0  0  0  0  0  0  0  0  0  0
   -9.4261   -8.9102    3.9950 C   0  0  0  0  0  0  0  0  0  0  0  0
   -9.8312  -10.2424    3.9906 C   0  0  0  0  0  0  0  0  0  0  0  0
  -10.6559  -10.7260    2.9763 C   0  0  0  0  0  0  0  0  0  0  0  0
  -10.9769   -9.9128    1.9001 C   0  0  0  0  0  0  0  0  0  0  0  0
  -12.3341   -7.1585    0.8887 C   0  0  0  0  0  0  0  0  0  0  0  0
   -1.0221   -3.2468   -0.6815 C   0  0  0  0  0  0  0  0  0  0  0  0
   -1.4719   -2.2895   -1.7471 C   0  0  0  0  0  0  0  0  0  0  0  0
   -1.8875   -2.7439   -3.0019 C   0  0  0  0  0  0  0  0  0  0  0  0
   -2.0129   -1.8518   -4.0532 C   0  0  0  0  0  0  0  0  0  0  0  0
   -1.8612   -0.4890   -3.8222 C   0  0  0  0  0  0  0  0  0  0  0  0
   -1.6230   -0.0150   -2.5334 C   0  0  0  0  0  0  0  0  0  0  0  0
   -1.3767   -0.9145   -1.5046 C   0  0  0  0  0  0  0  0  0  0  0  0
   -1.7396   -6.8292    0.4476 O   0  0  0  0  0  0  0  0  0  0  0  0
    1.1881  -10.8905    3.8220 H   0  0  0  0  0  0  0  0  0  0  0  0
    1.4848   -9.2792    3.1751 H   0  0  0  0  0  0  0  0  0  0  0  0
   -0.1638   -9.7511    3.7395 H   0  0  0  0  0  0  0  0  0  0  0  0
    1.3399   -8.4542    7.6381 H   0  0  0  0  0  0  0  0  0  0  0  0
    0.7334   -6.1406    8.3240 H   0  0  0  0  0  0  0  0  0  0  0  0
   -0.3842   -4.6326    6.7054 H   0  0  0  0  0  0  0  0  0  0  0  0
    0.5133   -7.4255    3.5813 H   0  0  0  0  0  0  0  0  0  0  0  0
   -0.3234   -4.1056    4.0591 H   0  0  0  0  0  0  0  0  0  0  0  0
   -1.8483   -4.9632    4.4066 H   0  0  0  0  0  0  0  0  0  0  0  0
   -1.2587   -6.5866    2.7462 H   0  0  0  0  0  0  0  0  0  0  0  0
   -1.0205   -3.8483    1.8522 H   0  0  0  0  0  0  0  0  0  0  0  0
   -2.5161   -4.7926    2.0301 H   0  0  0  0  0  0  0  0  0  0  0  0
   -3.4618   -3.3849   -0.2322 H   0  0  0  0  0  0  0  0  0  0  0  0
   -5.9404   -7.1632   -0.1678 H   0  0  0  0  0  0  0  0  0  0  0  0
   -9.0894   -4.5369    0.3928 H   0  0  0  0  0  0  0  0  0  0  0  0
   -5.2847   -2.9017   -0.2931 H   0  0  0  0  0  0  0  0  0  0  0  0
  -10.2669   -3.7344    1.5522 H   0  0  0  0  0  0  0  0  0  0  0  0
  -10.5836   -3.7161   -0.2790 H   0  0  0  0  0  0  0  0  0  0  0  0
  -11.6201   -2.8845    0.8511 H   0  0  0  0  0  0  0  0  0  0  0  0
   -5.9692   -1.1582   -0.1057 H   0  0  0  0  0  0  0  0  0  0  0  0
   -7.0422   -0.3537    0.9945 H   0  0  0  0  0  0  0  0  0  0  0  0
   -7.3448   -0.3390   -0.7766 H   0  0  0  0  0  0  0  0  0  0  0  0
  -10.3052   -5.7883    0.5973 H   0  0  0  0  0  0  0  0  0  0  0  0
   -9.5891   -7.0068    3.0342 H   0  0  0  0  0  0  0  0  0  0  0  0
   -8.7687   -8.5385    4.7759 H   0  0  0  0  0  0  0  0  0  0  0  0
   -9.5008  -10.9096    4.7795 H   0  0  0  0  0  0  0  0  0  0  0  0
  -11.0322  -11.7425    3.0065 H   0  0  0  0  0  0  0  0  0  0  0  0
  -11.5232  -10.3193    1.0523 H   0  0  0  0  0  0  0  0  0  0  0  0
  -12.6339   -6.5335    0.0420 H   0  0  0  0  0  0  0  0  0  0  0  0
  -12.3808   -6.5382    1.7928 H   0  0  0  0  0  0  0  0  0  0  0  0
  -13.0732   -7.9598    1.0011 H   0  0  0  0  0  0  0  0  0  0  0  0
    0.0506   -3.4327   -0.8083 H   0  0  0  0  0  0  0  0  0  0  0  0
   -1.1469   -2.7232    0.2733 H   0  0  0  0  0  0  0  0  0  0  0  0
   -2.0853   -3.7947   -3.1949 H   0  0  0  0  0  0  0  0  0  0  0  0
   -2.2091   -2.2318   -5.0511 H   0  0  0  0  0  0  0  0  0  0  0  0
   -1.9279    0.2043   -4.6535 H   0  0  0  0  0  0  0  0  0  0  0  0
   -1.5874    1.0525   -2.3400 H   0  0  0  0  0  0  0  0  0  0  0  0
   -1.0849   -0.5409   -0.5243 H   0  0  0  0  0  0  0  0  0  0  0  0
   -2.1376   -7.0166   -0.4287 H   0  0  0  0  0  0  0  0  0  0  0  0
  1  2  1  0  0  0  0
  1 51  1  0  0  0  0
  1 52  1  0  0  0  0
  1 53  1  0  0  0  0
  2  3  1  0  0  0  0
  3  4  2  0  0  0  0
  3  8  1  0  0  0  0
  4  5  1  0  0  0  0
  4 54  1  0  0  0  0
  5  6  2  0  0  0  0
  5 55  1  0  0  0  0
  6  7  1  0  0  0  0
  6 56  1  0  0  0  0
  7  8  2  0  0  0  0
  7  9  1  0  0  0  0
  8 57  1  0  0  0  0
  9 10  1  0  0  0  0
  9 58  1  0  0  0  0
  9 59  1  0  0  0  0
 10 11  1  0  0  0  0
 10 60  1  0  0  0  0
 11 61  1  0  0  0  0
 11 62  1  0  0  0  0
 12 14  1  0  0  0  0
 12 50  1  0  0  0  0
 12 13  1  6  0  0  0
 12 11  1  0  0  0  0
 14 15  1  6  0  0  0
 14 16  1  0  0  0  0
 14 43  1  0  0  0  0
 16 17  1  0  0  0  0
 16 63  1  0  0  0  0
 17 18  2  0  0  0  0
 17 19  1  0  0  0  0
 19 20  2  0  0  0  0
 19 24  1  0  0  0  0
 20 21  1  0  0  0  0
 20 64  1  0  0  0  0
 21 22  2  0  0  0  0
 21 31  1  0  0  0  0
 22 23  1  0  0  0  0
 22 65  1  0  0  0  0
 23 24  2  0  0  0  0
 23 25  1  0  0  0  0
 24 66  1  0  0  0  0
 25 26  1  0  0  0  0
 25 30  1  0  0  0  0
 26 27  2  0  0  0  0
 26 28  2  0  0  0  0
 26 29  1  0  0  0  0
 29 67  1  0  0  0  0
 29 68  1  0  0  0  0
 29 69  1  0  0  0  0
 30 70  1  0  0  0  0
 30 71  1  0  0  0  0
 30 72  1  0  0  0  0
 31 32  2  0  0  0  0
 31 33  1  0  0  0  0
 33 34  1  0  0  0  0
 33 73  1  0  0  0  0
 34 35  1  6  0  0  0
 34 36  1  0  0  0  0
 34 42  1  0  0  0  0
 36 37  2  0  0  0  0
 36 41  1  0  0  0  0
 37 38  1  0  0  0  0
 37 74  1  0  0  0  0
 38 39  2  0  0  0  0
 38 75  1  0  0  0  0
 39 40  1  0  0  0  0
 39 76  1  0  0  0  0
 40 41  2  0  0  0  0
 40 77  1  0  0  0  0
 41 78  1  0  0  0  0
 42 79  1  0  0  0  0
 42 80  1  0  0  0  0
 42 81  1  0  0  0  0
 43 44  1  0  0  0  0
 43 82  1  0  0  0  0
 43 83  1  0  0  0  0
 44 45  2  0  0  0  0
 44 49  1  0  0  0  0
 45 46  1  0  0  0  0
 45 84  1  0  0  0  0
 46 47  2  0  0  0  0
 46 85  1  0  0  0  0
 47 48  1  0  0  0  0
 47 86  1  0  0  0  0
 48 49  2  0  0  0  0
 48 87  1  0  0  0  0
 49 88  1  0  0  0  0
 50 89  1  0  0  0  0
M  END
$$$$
