BSJ
 OpenBabel04121316083D

136140  0  0  1  0  0  0  0  0999 V2000
   -6.2988    6.0430   -5.0972 O   0  0  0  0  0  0  0  0  0  0  0  0
   -6.0659    7.0363   -5.7904 C   0  0  0  0  0  0  0  0  0  0  0  0
   -4.9794    7.1066   -6.6222 N   0  0  0  0  0  0  0  0  0  0  0  0
   -4.1227    5.9657   -6.7682 C   0  0  0  0  0  0  0  0  0  0  0  0
   -3.1157    6.1244   -7.9060 C   0  0  1  0  0  0  0  0  0  0  0  0
   -2.8735    7.1959   -7.9959 H   0  0  0  0  0  0  0  0  0  0  0  0
   -1.8832    5.5055   -7.6137 O   0  0  0  0  0  0  0  0  0  0  0  0
   -1.7725    4.1098   -7.4052 C   0  0  2  0  0  0  0  0  0  0  0  0
   -2.5047    3.8099   -6.6589 H   0  0  0  0  0  0  0  0  0  0  0  0
   -0.5133    3.6123   -6.8860 O   0  0  0  0  0  0  0  0  0  0  0  0
    0.1493    4.4072   -5.8708 C   0  0  2  0  0  0  0  0  0  0  0  0
    1.1822    4.0342   -5.8502 H   0  0  0  0  0  0  0  0  0  0  0  0
   -0.4330    4.2949   -4.4308 C   0  0  1  0  0  0  0  0  0  0  0  0
   -1.5277    4.3737   -4.4580 H   0  0  0  0  0  0  0  0  0  0  0  0
   -0.0926    3.0217   -3.7782 N   0  0  0  0  0  0  0  0  0  0  0  0
    0.1608    5.4098   -3.5398 C   0  0  0  0  0  0  0  0  0  0  0  0
   -0.0872    6.8105   -4.1058 C   0  0  2  0  0  0  0  0  0  0  0  0
   -1.1744    6.9723   -4.1984 H   0  0  0  0  0  0  0  0  0  0  0  0
    0.6142    6.9622   -5.4626 C   0  0  1  0  0  0  0  0  0  0  0  0
    1.7020    6.9505   -5.4285 H   0  0  0  0  0  0  0  0  0  0  0  0
    0.1253    5.8585   -6.3298 C   0  0  1  0  0  0  0  0  0  0  0  0
   -0.9149    6.1418   -6.2314 H   0  0  0  0  0  0  0  0  0  0  0  0
    0.6085    5.9851   -7.6690 O   0  0  0  0  0  0  0  0  0  0  0  0
    0.1903    8.1906   -6.0834 O   0  0  0  0  0  0  0  0  0  0  0  0
    0.4431    7.8562   -3.2347 N   0  0  0  0  0  0  0  0  0  0  0  0
   -2.0004    3.5337   -8.8131 C   0  0  1  0  0  0  0  0  0  0  0  0
   -1.9432    2.4442   -8.7512 H   0  0  0  0  0  0  0  0  0  0  0  0
   -3.4081    4.0208   -9.2512 C   0  0  2  0  0  0  0  0  0  0  0  0
   -3.6023    3.6560  -10.2603 H   0  0  0  0  0  0  0  0  0  0  0  0
   -3.5557    5.5752   -9.2534 C   0  0  2  0  0  0  0  0  0  0  0  0
   -4.5771    5.8953   -9.4694 H   0  0  0  0  0  0  0  0  0  0  0  0
   -2.7140    6.1998  -10.2407 O   0  0  0  0  0  0  0  0  0  0  0  0
   -4.4123    3.4131   -8.4228 O   0  0  0  0  0  0  0  0  0  0  0  0
   -0.9580    3.9967   -9.7827 N   0  0  0  0  0  0  0  0  0  0  0  0
   -6.9739    8.2353   -5.7581 C   0  0  0  0  0  0  0  0  0  0  0  0
   -6.5755    9.3579   -6.6976 C   0  0  0  0  0  0  0  0  0  0  0  0
   -7.7799   10.6934   -6.4848 S   0  0  0  0  0  0  0  0  0  0  0  0
   -7.0853   11.8554   -7.6596 C   0  0  0  0  0  0  0  0  0  0  0  0
   -7.9164   13.1141   -7.6990 C   0  0  0  0  0  0  0  0  0  0  0  0
   -7.7263   14.1253   -8.4731 N   0  0  0  0  0  0  0  0  0  0  0  0
   -6.6422   14.0337   -9.3505 C   0  0  0  0  0  0  0  0  0  0  0  0
   -5.8053   13.1868   -9.3744 O   0  0  0  0  0  0  0  0  0  0  0  0
   -6.6040   15.1918  -10.3045 C   0  0  0  0  0  0  0  0  0  0  0  0
   -5.3206   15.0166  -11.1027 C   0  0  0  0  0  0  0  0  0  0  0  0
   -5.2381   16.0442  -12.1013 N   0  0  0  0  0  0  0  0  0  0  0  0
   -4.2333   16.0572  -13.0450 C   0  0  0  0  0  0  0  0  0  0  0  0
   -3.4769   15.1247  -13.2389 O   0  0  0  0  0  0  0  0  0  0  0  0
   -4.1523   17.3795  -13.8670 C   0  0  1  0  0  0  0  0  0  0  0  0
   -5.1279   17.5800  -14.3063 H   0  0  0  0  0  0  0  0  0  0  0  0
   -3.7458   18.6090  -12.9311 C   0  0  0  0  0  0  0  0  0  0  0  0
   -2.3502   18.2566  -11.8320 C   0  0  0  0  0  0  0  0  0  0  0  0
   -2.3777   17.3289  -10.9415 O   0  0  0  0  0  0  0  0  0  0  0  0
   -1.0140   17.0541   -9.9130 P   0  0  1  0  0  0  0  0  0  0  0  0
   -0.2605   18.3408   -9.9209 O   0  0  0  0  0  0  0  0  0  0  0  0
   -2.0757   16.9130   -8.6706 O   0  0  0  0  0  0  0  0  0  0  0  0
   -3.4716   17.6739   -8.3919 P   0  0  1  0  0  0  0  0  0  0  0  0
   -4.0577   17.4554   -7.0349 O   0  0  0  0  0  0  0  0  0  0  0  0
   -3.4272   19.2518   -8.9019 O   0  0  0  0  0  0  0  0  0  0  0  0
   -2.0792   19.7374   -9.0386 C   0  0  0  0  0  0  0  0  0  0  0  0
   -1.3514   20.5832  -10.2564 C   0  0  1  0  0  0  0  0  0  0  0  0
   -2.1451   21.1803  -10.7141 H   0  0  0  0  0  0  0  0  0  0  0  0
   -0.5302   21.4495   -9.5140 O   0  0  0  0  0  0  0  0  0  0  0  0
    0.1600   22.1637  -10.5166 C   0  0  2  0  0  0  0  0  0  0  0  0
   -0.5379   22.8889  -10.9452 H   0  0  0  0  0  0  0  0  0  0  0  0
    0.7078   21.2520  -11.5894 C   0  0  1  0  0  0  0  0  0  0  0  0
    1.7297   20.8771  -11.4229 H   0  0  0  0  0  0  0  0  0  0  0  0
   -0.1397   20.0375  -11.5126 C   0  0  2  0  0  0  0  0  0  0  0  0
    0.5752   19.2894  -11.2031 H   0  0  0  0  0  0  0  0  0  0  0  0
   -0.1240   19.6072  -12.8652 O   0  0  0  0  0  0  0  0  0  0  0  0
   -0.9980   18.8257  -13.9595 P   0  0  0  0  0  0  0  0  0  0  0  0
    0.2704   18.0342  -14.0538 O   0  0  0  0  0  0  0  0  0  0  0  0
   -1.8748   19.9728  -13.1018 O   0  0  0  0  0  0  0  0  0  0  0  0
   -1.7164   17.3664  -13.5539 O   0  0  0  0  0  0  0  0  0  0  0  0
    0.6405   21.9031  -12.8709 O   0  0  0  0  0  0  0  0  0  0  0  0
    1.1954   22.8525   -9.8420 N   0  0  0  0  0  0  0  0  0  0  0  0
    1.2073   23.1531   -8.5135 C   0  0  0  0  0  0  0  0  0  0  0  0
    2.3261   23.7512   -8.1862 N   0  0  0  0  0  0  0  0  0  0  0  0
    3.0525   23.7811   -9.3629 C   0  0  0  0  0  0  0  0  0  0  0  0
    2.3678   23.2181  -10.4071 C   0  0  0  0  0  0  0  0  0  0  0  0
    2.7658   23.0600  -11.6817 N   0  0  0  0  0  0  0  0  0  0  0  0
    4.0068   23.5293  -11.8579 C   0  0  0  0  0  0  0  0  0  0  0  0
    4.7830   24.1379  -10.9418 N   0  0  0  0  0  0  0  0  0  0  0  0
    4.3079   24.2792   -9.6812 C   0  0  0  0  0  0  0  0  0  0  0  0
    5.0556   24.9178   -8.7307 N   0  0  0  0  0  0  0  0  0  0  0  0
   -4.5893   17.0610   -9.3580 O   0  0  0  0  0  0  0  0  0  0  0  0
    0.3497   16.7793   -8.8845 O   0  0  0  0  0  0  0  0  0  0  0  0
   -3.7637   20.0061  -13.9918 C   0  0  0  0  0  0  0  0  0  0  0  0
   -4.8459   19.0142  -11.9445 C   0  0  0  0  0  0  0  0  0  0  0  0
   -3.3376   17.2896  -15.0689 O   0  0  0  0  0  0  0  0  0  0  0  0
   -4.8204    7.8895   -7.2404 H   0  0  0  0  0  0  0  0  0  0  0  0
   -4.8071    5.1409   -6.9383 H   0  0  0  0  0  0  0  0  0  0  0  0
   -3.6308    5.7889   -5.8038 H   0  0  0  0  0  0  0  0  0  0  0  0
   -0.5005    2.2356   -4.2823 H   0  0  0  0  0  0  0  0  0  0  0  0
   -0.4714    2.9971   -2.8299 H   0  0  0  0  0  0  0  0  0  0  0  0
    1.2461    5.2594   -3.4613 H   0  0  0  0  0  0  0  0  0  0  0  0
   -0.2546    5.3433   -2.5274 H   0  0  0  0  0  0  0  0  0  0  0  0
    1.5092    5.6369   -7.7024 H   0  0  0  0  0  0  0  0  0  0  0  0
    0.3819    8.8971   -5.4476 H   0  0  0  0  0  0  0  0  0  0  0  0
    1.4521    7.7281   -3.1616 H   0  0  0  0  0  0  0  0  0  0  0  0
    0.0685    7.7302   -2.2967 H   0  0  0  0  0  0  0  0  0  0  0  0
   -2.7429    5.6696  -11.0552 H   0  0  0  0  0  0  0  0  0  0  0  0
   -4.1770    3.4778   -7.4819 H   0  0  0  0  0  0  0  0  0  0  0  0
   -0.0442    3.8225   -9.3515 H   0  0  0  0  0  0  0  0  0  0  0  0
   -0.9802    5.0330   -9.7533 H   0  0  0  0  0  0  0  0  0  0  0  0
   -6.9767    8.5941   -4.7224 H   0  0  0  0  0  0  0  0  0  0  0  0
   -7.9804    7.8780   -6.0098 H   0  0  0  0  0  0  0  0  0  0  0  0
   -6.5778    9.0110   -7.7396 H   0  0  0  0  0  0  0  0  0  0  0  0
   -5.5662    9.7198   -6.4618 H   0  0  0  0  0  0  0  0  0  0  0  0
   -7.0901   11.4065   -8.6598 H   0  0  0  0  0  0  0  0  0  0  0  0
   -6.0656   12.1197   -7.3557 H   0  0  0  0  0  0  0  0  0  0  0  0
   -8.7730   13.1826   -7.0002 H   0  0  0  0  0  0  0  0  0  0  0  0
   -6.6776   16.1109   -9.7218 H   0  0  0  0  0  0  0  0  0  0  0  0
   -7.4686   15.2030  -10.9675 H   0  0  0  0  0  0  0  0  0  0  0  0
   -5.3126   14.0582  -11.6252 H   0  0  0  0  0  0  0  0  0  0  0  0
   -4.4154   15.0186  -10.4738 H   0  0  0  0  0  0  0  0  0  0  0  0
   -5.7373   16.8856  -11.8837 H   0  0  0  0  0  0  0  0  0  0  0  0
   -2.1265   19.0484  -11.2197 H   0  0  0  0  0  0  0  0  0  0  0  0
   -1.2881   18.0125  -12.0259 H   0  0  0  0  0  0  0  0  0  0  0  0
   -1.9434   18.8740   -9.5438 H   0  0  0  0  0  0  0  0  0  0  0  0
   -1.4983   19.5357   -8.1273 H   0  0  0  0  0  0  0  0  0  0  0  0
   -2.4312   20.1082  -12.2674 H   0  0  0  0  0  0  0  0  0  0  0  0
   -1.7457   16.4188  -13.8458 H   0  0  0  0  0  0  0  0  0  0  0  0
    1.4097   22.5040  -12.8885 H   0  0  0  0  0  0  0  0  0  0  0  0
    0.3825   22.8995   -7.8539 H   0  0  0  0  0  0  0  0  0  0  0  0
    4.4197   23.4127  -12.8559 H   0  0  0  0  0  0  0  0  0  0  0  0
    5.9483   25.2896   -8.9932 H   0  0  0  0  0  0  0  0  0  0  0  0
    4.6552   25.0034   -7.8053 H   0  0  0  0  0  0  0  0  0  0  0  0
   -5.3964   17.0631   -8.8036 H   0  0  0  0  0  0  0  0  0  0  0  0
    1.1412   16.9644   -9.4238 H   0  0  0  0  0  0  0  0  0  0  0  0
   -2.9302   20.0426  -14.7315 H   0  0  0  0  0  0  0  0  0  0  0  0
   -3.6659   20.9581  -13.4133 H   0  0  0  0  0  0  0  0  0  0  0  0
   -4.6597   20.1283  -14.5772 H   0  0  0  0  0  0  0  0  0  0  0  0
   -4.9370   18.3112  -11.1328 H   0  0  0  0  0  0  0  0  0  0  0  0
   -5.7975   19.1059  -12.4685 H   0  0  0  0  0  0  0  0  0  0  0  0
   -4.6336   19.9624  -11.4415 H   0  0  0  0  0  0  0  0  0  0  0  0
   -3.0030   16.3731  -15.1610 H   0  0  0  0  0  0  0  0  0  0  0  0
  1  2  2  0  0  0  0
  2  3  1  0  0  0  0
  2 35  1  0  0  0  0
  3  4  1  0  0  0  0
  3 90  1  0  0  0  0
  4  5  1  0  0  0  0
  4 91  1  0  0  0  0
  4 92  1  0  0  0  0
  5  6  1  6  0  0  0
  5  7  1  0  0  0  0
  5 30  1  0  0  0  0
  7  8  1  0  0  0  0
  8  9  1  1  0  0  0
  8 10  1  0  0  0  0
  8 26  1  0  0  0  0
 11 13  1  0  0  0  0
 11 21  1  0  0  0  0
 11 12  1  1  0  0  0
 11 10  1  0  0  0  0
 13 14  1  6  0  0  0
 13 15  1  0  0  0  0
 13 16  1  0  0  0  0
 15 93  1  0  0  0  0
 15 94  1  0  0  0  0
 16 17  1  0  0  0  0
 16 95  1  0  0  0  0
 16 96  1  0  0  0  0
 17 19  1  0  0  0  0
 17 25  1  0  0  0  0
 17 18  1  6  0  0  0
 19 20  1  1  0  0  0
 19 21  1  0  0  0  0
 19 24  1  0  0  0  0
 21 23  1  0  0  0  0
 21 22  1  6  0  0  0
 23 97  1  0  0  0  0
 24 98  1  0  0  0  0
 25 99  1  0  0  0  0
 25100  1  0  0  0  0
 26 27  1  1  0  0  0
 26 28  1  0  0  0  0
 26 34  1  0  0  0  0
 28 30  1  0  0  0  0
 28 33  1  0  0  0  0
 28 29  1  6  0  0  0
 30 31  1  6  0  0  0
 30 32  1  0  0  0  0
 32101  1  0  0  0  0
 33102  1  0  0  0  0
 34103  1  0  0  0  0
 34104  1  0  0  0  0
 35 36  1  0  0  0  0
 35105  1  0  0  0  0
 35106  1  0  0  0  0
 36 37  1  0  0  0  0
 36107  1  0  0  0  0
 36108  1  0  0  0  0
 37 38  1  0  0  0  0
 38 39  1  0  0  0  0
 38109  1  0  0  0  0
 38110  1  0  0  0  0
 39 40  2  0  0  0  0
 39111  1  0  0  0  0
 40 41  1  0  0  0  0
 41 42  2  0  0  0  0
 41 43  1  0  0  0  0
 43 44  1  0  0  0  0
 43112  1  0  0  0  0
 43113  1  0  0  0  0
 44 45  1  0  0  0  0
 44114  1  0  0  0  0
 44115  1  0  0  0  0
 45 46  1  0  0  0  0
 45116  1  0  0  0  0
 46 47  2  0  0  0  0
 46 48  1  0  0  0  0
 48 49  1  6  0  0  0
 48 50  1  0  0  0  0
 48 89  1  0  0  0  0
 50 51  1  0  0  0  0
 50 87  1  0  0  0  0
 50 88  1  0  0  0  0
 51 52  1  0  0  0  0
 51117  1  0  0  0  0
 51118  1  0  0  0  0
 53 52  1  6  0  0  0
 53 54  2  0  0  0  0
 53 55  1  0  0  0  0
 53 86  1  0  0  0  0
 56 55  1  6  0  0  0
 56 57  2  0  0  0  0
 56 58  1  0  0  0  0
 56 85  1  0  0  0  0
 58 59  1  0  0  0  0
 59 60  1  0  0  0  0
 59119  1  0  0  0  0
 59120  1  0  0  0  0
 60 61  1  6  0  0  0
 60 62  1  0  0  0  0
 60 67  1  0  0  0  0
 62 63  1  0  0  0  0
 63 65  1  0  0  0  0
 63 75  1  0  0  0  0
 63 64  1  6  0  0  0
 65 66  1  1  0  0  0
 65 67  1  0  0  0  0
 65 74  1  0  0  0  0
 67 68  1  1  0  0  0
 67 69  1  0  0  0  0
 69 70  1  0  0  0  0
 70 71  2  0  0  0  0
 70 72  1  0  0  0  0
 70 73  1  0  0  0  0
 72121  1  0  0  0  0
 73122  1  0  0  0  0
 74123  1  0  0  0  0
 75 76  1  0  0  0  0
 75 79  1  0  0  0  0
 76 77  2  0  0  0  0
 76124  1  0  0  0  0
 77 78  1  0  0  0  0
 78 79  2  0  0  0  0
 78 83  1  0  0  0  0
 79 80  1  0  0  0  0
 80 81  2  0  0  0  0
 81 82  1  0  0  0  0
 81125  1  0  0  0  0
 82 83  2  0  0  0  0
 83 84  1  0  0  0  0
 84126  1  0  0  0  0
 84127  1  0  0  0  0
 85128  1  0  0  0  0
 86129  1  0  0  0  0
 87130  1  0  0  0  0
 87131  1  0  0  0  0
 87132  1  0  0  0  0
 88133  1  0  0  0  0
 88134  1  0  0  0  0
 88135  1  0  0  0  0
 89136  1  0  0  0  0
M  END
$$$$
