BSO
 OpenBabel04121316093D

 33 34  0  0  1  0  0  0  0  0999 V2000
    1.0189   -0.0479    0.1393 O   0  0  0  0  0  0  0  0  0  0  0  0
    2.3479   -0.1351   -0.0785 C   0  0  0  0  0  0  0  0  0  0  0  0
    2.8361   -0.7102   -1.0355 O   0  0  0  0  0  0  0  0  0  0  0  0
    3.0925    0.6254    0.9793 C   0  0  0  0  0  0  0  0  0  0  0  0
    4.5895    0.4825    0.7527 C   0  0  0  0  0  0  0  0  0  0  0  0
    5.3588    1.2513    1.7987 C   0  0  0  0  0  0  0  0  0  0  0  0
    6.8713    1.1633    1.5715 C   0  0  0  0  0  0  0  0  0  0  0  0
    7.5081    1.8548    2.7678 C   0  0  2  0  0  0  0  0  0  0  0  0
    6.8051    2.5972    3.1634 H   0  0  0  0  0  0  0  0  0  0  0  0
    8.9980    2.8386    2.5013 S   0  0  1  0  0  0  0  0  0  0  0  0
    8.5538    4.2692    2.3847 O   0  0  0  0  0  0  0  0  0  0  0  0
    9.5139    2.6026    4.2625 C   0  0  0  0  0  0  0  0  0  0  0  0
    8.6020    1.5600    4.9374 C   0  0  1  0  0  0  0  0  0  0  0  0
    7.9465    2.0030    5.6936 H   0  0  0  0  0  0  0  0  0  0  0  0
    7.8520    0.8423    3.8302 C   0  0  2  0  0  0  0  0  0  0  0  0
    6.9563    0.3301    4.2022 H   0  0  0  0  0  0  0  0  0  0  0  0
    8.8035   -0.1810    3.4414 N   0  0  0  0  0  0  0  0  0  0  0  0
    9.7294   -0.3730    4.4475 C   0  0  0  0  0  0  0  0  0  0  0  0
   10.7315   -1.0637    4.3798 O   0  0  0  0  0  0  0  0  0  0  0  0
    9.3765    0.4694    5.4945 N   0  0  0  0  0  0  0  0  0  0  0  0
    0.6504    0.6205   -0.4708 H   0  0  0  0  0  0  0  0  0  0  0  0
    2.8117    0.2305    1.9618 H   0  0  0  0  0  0  0  0  0  0  0  0
    2.8007    1.6821    0.9264 H   0  0  0  0  0  0  0  0  0  0  0  0
    4.8591    0.8567   -0.2411 H   0  0  0  0  0  0  0  0  0  0  0  0
    4.8696   -0.5769    0.7910 H   0  0  0  0  0  0  0  0  0  0  0  0
    5.1033    0.8596    2.7933 H   0  0  0  0  0  0  0  0  0  0  0  0
    5.0566    2.3055    1.7851 H   0  0  0  0  0  0  0  0  0  0  0  0
    7.1522    1.5979    0.6073 H   0  0  0  0  0  0  0  0  0  0  0  0
    7.1427    0.0990    1.5200 H   0  0  0  0  0  0  0  0  0  0  0  0
    9.4433    3.5647    4.7771 H   0  0  0  0  0  0  0  0  0  0  0  0
   10.5655    2.2983    4.2443 H   0  0  0  0  0  0  0  0  0  0  0  0
    8.9789   -0.5438    2.5116 H   0  0  0  0  0  0  0  0  0  0  0  0
   10.0017    0.5453    6.2856 H   0  0  0  0  0  0  0  0  0  0  0  0
  1  2  1  0  0  0  0
  1 21  1  0  0  0  0
  2  3  2  0  0  0  0
  2  4  1  0  0  0  0
  4  5  1  0  0  0  0
  4 22  1  0  0  0  0
  4 23  1  0  0  0  0
  5  6  1  0  0  0  0
  5 24  1  0  0  0  0
  5 25  1  0  0  0  0
  6  7  1  0  0  0  0
  6 26  1  0  0  0  0
  6 27  1  0  0  0  0
  7  8  1  0  0  0  0
  7 28  1  0  0  0  0
  7 29  1  0  0  0  0
  8 10  1  0  0  0  0
  8 15  1  0  0  0  0
  8  9  1  1  0  0  0
 10 12  1  0  0  0  0
 10 11  2  1  0  0  0
 12 13  1  0  0  0  0
 12 30  1  0  0  0  0
 12 31  1  0  0  0  0
 13 15  1  0  0  0  0
 13 20  1  0  0  0  0
 13 14  1  1  0  0  0
 15 17  1  0  0  0  0
 15 16  1  1  0  0  0
 17 18  1  0  0  0  0
 17 32  1  0  0  0  0
 18 20  1  0  0  0  0
 18 19  2  0  0  0  0
 20 33  1  0  0  0  0
M  END
$$$$
