BSU
 OpenBabel04121316093D

 28 29  0  0  0  0  0  0  0  0999 V2000
    0.9121   -0.2175   -0.1200 O   0  0  0  0  0  0  0  0  0  0  0  0
    2.1351   -0.1088    0.0148 C   0  0  0  0  0  0  0  0  0  0  0  0
    2.7631    0.8300    0.7920 N   0  0  0  0  0  0  0  0  0  0  0  0
    2.1239    1.8859    1.4314 C   0  0  0  0  0  0  0  0  0  0  0  0
    0.9916    1.6459    2.1978 C   0  0  0  0  0  0  0  0  0  0  0  0
    0.3162    2.7138    2.7687 C   0  0  0  0  0  0  0  0  0  0  0  0
    0.8220    4.0070    2.6343 C   0  0  0  0  0  0  0  0  0  0  0  0
    2.0203    4.2312    1.9539 C   0  0  0  0  0  0  0  0  0  0  0  0
    2.6650    3.1690    1.3265 C   0  0  0  0  0  0  0  0  0  0  0  0
    2.9475   -1.0097   -0.6214 N   0  0  0  0  0  0  0  0  0  0  0  0
    4.3441   -1.0018   -0.7577 C   0  0  0  0  0  0  0  0  0  0  0  0
    5.0765    0.1873   -0.8566 C   0  0  0  0  0  0  0  0  0  0  0  0
    6.4585    0.1666   -0.9876 C   0  0  0  0  0  0  0  0  0  0  0  0
    7.1252   -1.0510   -1.0046 C   0  0  0  0  0  0  0  0  0  0  0  0
    6.4083   -2.2426   -0.8823 C   0  0  0  0  0  0  0  0  0  0  0  0
    5.0130   -2.2236   -0.8159 C   0  0  0  0  0  0  0  0  0  0  0  0
    3.7659    0.8425    0.8319 H   0  0  0  0  0  0  0  0  0  0  0  0
    0.6583    0.6259    2.3689 H   0  0  0  0  0  0  0  0  0  0  0  0
   -0.6023    2.5286    3.3155 H   0  0  0  0  0  0  0  0  0  0  0  0
    0.2777    4.8416    3.0648 H   0  0  0  0  0  0  0  0  0  0  0  0
    2.4372    5.2329    1.8968 H   0  0  0  0  0  0  0  0  0  0  0  0
    3.5383    3.3626    0.7084 H   0  0  0  0  0  0  0  0  0  0  0  0
    2.4334   -1.7934   -1.0059 H   0  0  0  0  0  0  0  0  0  0  0  0
    4.5905    1.1586   -0.8814 H   0  0  0  0  0  0  0  0  0  0  0  0
    6.9991    1.1034   -1.0868 H   0  0  0  0  0  0  0  0  0  0  0  0
    8.2036   -1.0684   -1.1292 H   0  0  0  0  0  0  0  0  0  0  0  0
    6.9413   -3.1884   -0.8349 H   0  0  0  0  0  0  0  0  0  0  0  0
    4.4696   -3.1638   -0.7590 H   0  0  0  0  0  0  0  0  0  0  0  0
  1  2  2  0  0  0  0
  2  3  1  0  0  0  0
  2 10  1  0  0  0  0
  3  4  1  0  0  0  0
  3 17  1  0  0  0  0
  4  5  2  0  0  0  0
  4  9  1  0  0  0  0
  5  6  1  0  0  0  0
  5 18  1  0  0  0  0
  6  7  2  0  0  0  0
  6 19  1  0  0  0  0
  7  8  1  0  0  0  0
  7 20  1  0  0  0  0
  8  9  2  0  0  0  0
  8 21  1  0  0  0  0
  9 22  1  0  0  0  0
 10 11  1  0  0  0  0
 10 23  1  0  0  0  0
 11 12  2  0  0  0  0
 11 16  1  0  0  0  0
 12 13  1  0  0  0  0
 12 24  1  0  0  0  0
 13 14  2  0  0  0  0
 13 25  1  0  0  0  0
 14 15  1  0  0  0  0
 14 26  1  0  0  0  0
 15 16  2  0  0  0  0
 15 27  1  0  0  0  0
 16 28  1  0  0  0  0
M  END
$$$$
