BT5
 OpenBabel04121316093D

 66 70  0  0  1  0  0  0  0  0999 V2000
    1.4884    0.2975   -1.1042 O   0  0  0  0  0  0  0  0  0  0  0  0
    2.6616    0.2476   -0.7728 C   0  0  0  0  0  0  0  0  0  0  0  0
    3.3855    1.2019   -0.0335 N   0  0  0  0  0  0  0  0  0  0  0  0
    4.6801    0.6520    0.3307 C   0  0  2  0  0  0  0  0  0  0  0  0
    5.3081    1.0478   -0.4736 H   0  0  0  0  0  0  0  0  0  0  0  0
    4.4719   -0.8630    0.2081 C   0  0  2  0  0  0  0  0  0  0  0  0
    5.3500   -1.3332   -0.2473 H   0  0  0  0  0  0  0  0  0  0  0  0
    3.4062   -0.9336   -0.7729 N   0  0  0  0  0  0  0  0  0  0  0  0
    4.2362   -1.4772    1.6512 C   0  0  1  0  0  0  0  0  0  0  0  0
    4.5550   -2.5261    1.6457 H   0  0  0  0  0  0  0  0  0  0  0  0
    5.4427   -0.5578    2.6567 S   0  0  0  0  0  0  0  0  0  0  0  0
    5.3576    0.9612    1.6668 C   0  0  0  0  0  0  0  0  0  0  0  0
    2.8726   -1.3954    2.4223 C   0  0  0  0  0  0  0  0  0  0  0  0
    2.0735   -0.2065    1.9639 C   0  0  0  0  0  0  0  0  0  0  0  0
    0.6222    0.0397    2.2084 C   0  0  0  0  0  0  0  0  0  0  0  0
   -0.0081    1.2395    1.4580 C   0  0  0  0  0  0  0  0  0  0  0  0
   -1.4352    1.3136    1.9694 C   0  0  0  0  0  0  0  0  0  0  0  0
   -1.9612    0.4638    2.6956 O   0  0  0  0  0  0  0  0  0  0  0  0
   -2.0301    2.3985    1.5136 O   0  0  0  0  0  0  0  0  0  0  0  0
   -3.5350    2.8992    1.4605 P   0  0  1  0  0  0  0  0  0  0  0  0
   -3.6333    4.3562    1.7747 O   0  0  0  0  0  0  0  0  0  0  0  0
   -4.0561    2.4948   -0.0084 O   0  0  0  0  0  0  0  0  0  0  0  0
   -3.0802    1.9956   -0.9209 C   0  0  0  0  0  0  0  0  0  0  0  0
   -3.6412    1.6318   -2.2946 C   0  0  1  0  0  0  0  0  0  0  0  0
   -3.2979    2.4053   -2.9950 H   0  0  0  0  0  0  0  0  0  0  0  0
   -3.1366    0.3615   -2.7837 O   0  0  0  0  0  0  0  0  0  0  0  0
   -4.0695   -0.0453   -3.8208 C   0  0  2  0  0  0  0  0  0  0  0  0
   -3.7819    0.4566   -4.7542 H   0  0  0  0  0  0  0  0  0  0  0  0
   -5.4426    0.4103   -3.3227 C   0  0  1  0  0  0  0  0  0  0  0  0
   -5.9524   -0.4009   -2.7905 H   0  0  0  0  0  0  0  0  0  0  0  0
   -5.1516    1.5087   -2.3084 C   0  0  2  0  0  0  0  0  0  0  0  0
   -5.5297    1.1781   -1.3345 H   0  0  0  0  0  0  0  0  0  0  0  0
   -5.7476    2.7607   -2.6144 O   0  0  0  0  0  0  0  0  0  0  0  0
   -6.2914    0.8639   -4.3736 O   0  0  0  0  0  0  0  0  0  0  0  0
   -3.9668   -1.4770   -4.0885 N   0  0  0  0  0  0  0  0  0  0  0  0
   -2.8039   -2.2049   -4.0424 C   0  0  0  0  0  0  0  0  0  0  0  0
   -2.9827   -3.4604   -4.3939 N   0  0  0  0  0  0  0  0  0  0  0  0
   -4.3213   -3.5548   -4.7050 C   0  0  0  0  0  0  0  0  0  0  0  0
   -4.9518   -2.3268   -4.5528 C   0  0  0  0  0  0  0  0  0  0  0  0
   -6.2507   -2.0612   -4.8031 N   0  0  0  0  0  0  0  0  0  0  0  0
   -6.9074   -3.1830   -5.1957 C   0  0  0  0  0  0  0  0  0  0  0  0
   -6.4206   -4.4304   -5.3726 N   0  0  0  0  0  0  0  0  0  0  0  0
   -5.1070   -4.6399   -5.1378 C   0  0  0  0  0  0  0  0  0  0  0  0
   -4.5906   -5.9021   -5.3279 N   0  0  0  0  0  0  0  0  0  0  0  0
   -4.5220    2.0854    2.4245 O   0  0  0  0  0  0  0  0  0  0  0  0
    2.8812    1.9173    0.4834 H   0  0  0  0  0  0  0  0  0  0  0  0
    2.9176   -1.7824   -1.0303 H   0  0  0  0  0  0  0  0  0  0  0  0
    6.4073    1.2080    1.4865 H   0  0  0  0  0  0  0  0  0  0  0  0
    4.8983    1.7633    2.2481 H   0  0  0  0  0  0  0  0  0  0  0  0
    2.3078   -2.3058    2.1889 H   0  0  0  0  0  0  0  0  0  0  0  0
    2.9874   -1.3672    3.5131 H   0  0  0  0  0  0  0  0  0  0  0  0
    1.9759   -0.5340    0.9608 H   0  0  0  0  0  0  0  0  0  0  0  0
    2.6367    0.7069    2.1521 H   0  0  0  0  0  0  0  0  0  0  0  0
    0.4942    0.1961    3.2741 H   0  0  0  0  0  0  0  0  0  0  0  0
    0.0859   -0.8570    1.8795 H   0  0  0  0  0  0  0  0  0  0  0  0
   -0.0554    1.1322    0.3637 H   0  0  0  0  0  0  0  0  0  0  0  0
    0.5394    2.1756    1.6433 H   0  0  0  0  0  0  0  0  0  0  0  0
   -2.5943    1.1148   -0.4919 H   0  0  0  0  0  0  0  0  0  0  0  0
   -2.3301    2.7857   -1.0348 H   0  0  0  0  0  0  0  0  0  0  0  0
   -6.6850    2.5712   -2.7989 H   0  0  0  0  0  0  0  0  0  0  0  0
   -6.4272    0.0927   -4.9614 H   0  0  0  0  0  0  0  0  0  0  0  0
   -1.8586   -1.7669   -3.7477 H   0  0  0  0  0  0  0  0  0  0  0  0
   -7.9716   -3.0736   -5.3960 H   0  0  0  0  0  0  0  0  0  0  0  0
   -5.2007   -6.6446   -5.6287 H   0  0  0  0  0  0  0  0  0  0  0  0
   -3.6082   -6.0534   -5.1460 H   0  0  0  0  0  0  0  0  0  0  0  0
   -5.1670    2.7149    2.8162 H   0  0  0  0  0  0  0  0  0  0  0  0
  1  2  2  0  0  0  0
  2  3  1  0  0  0  0
  2  8  1  0  0  0  0
  3  4  1  0  0  0  0
  3 46  1  0  0  0  0
  4  5  1  6  0  0  0
  4  6  1  0  0  0  0
  4 12  1  0  0  0  0
  6  7  1  6  0  0  0
  6  8  1  0  0  0  0
  6  9  1  0  0  0  0
  8 47  1  0  0  0  0
  9 11  1  0  0  0  0
  9 13  1  0  0  0  0
  9 10  1  6  0  0  0
 11 12  1  0  0  0  0
 12 48  1  0  0  0  0
 12 49  1  0  0  0  0
 13 14  1  0  0  0  0
 13 50  1  0  0  0  0
 13 51  1  0  0  0  0
 14 15  1  0  0  0  0
 14 52  1  0  0  0  0
 14 53  1  0  0  0  0
 15 16  1  0  0  0  0
 15 54  1  0  0  0  0
 15 55  1  0  0  0  0
 16 17  1  0  0  0  0
 16 56  1  0  0  0  0
 16 57  1  0  0  0  0
 17 18  2  0  0  0  0
 17 19  1  0  0  0  0
 20 19  1  1  0  0  0
 20 21  2  0  0  0  0
 20 22  1  0  0  0  0
 20 45  1  0  0  0  0
 22 23  1  0  0  0  0
 23 24  1  0  0  0  0
 23 58  1  0  0  0  0
 23 59  1  0  0  0  0
 24 25  1  6  0  0  0
 24 26  1  0  0  0  0
 24 31  1  0  0  0  0
 26 27  1  0  0  0  0
 27 29  1  0  0  0  0
 27 35  1  0  0  0  0
 27 28  1  6  0  0  0
 29 30  1  1  0  0  0
 29 31  1  0  0  0  0
 29 34  1  0  0  0  0
 31 32  1  1  0  0  0
 31 33  1  0  0  0  0
 33 60  1  0  0  0  0
 34 61  1  0  0  0  0
 35 36  1  0  0  0  0
 35 39  1  0  0  0  0
 36 37  2  0  0  0  0
 36 62  1  0  0  0  0
 37 38  1  0  0  0  0
 38 39  2  0  0  0  0
 38 43  1  0  0  0  0
 39 40  1  0  0  0  0
 40 41  2  0  0  0  0
 41 42  1  0  0  0  0
 41 63  1  0  0  0  0
 42 43  2  0  0  0  0
 43 44  1  0  0  0  0
 44 64  1  0  0  0  0
 44 65  1  0  0  0  0
 45 66  1  0  0  0  0
M  END
$$$$
