BT6
 OpenBabel04121316093D

 13 13  0  0  0  0  0  0  0  0999 V2000
    0.8781   -0.0719    0.1135 S   0  0  0  0  0  0  0  0  0  0  0  0
    2.6556   -0.0062    0.0197 C   0  0  0  0  0  0  0  0  0  0  0  0
    3.3440    1.2123   -0.0075 C   0  0  0  0  0  0  0  0  0  0  0  0
    4.7308    1.2281   -0.1861 C   0  0  0  0  0  0  0  0  0  0  0  0
    5.4418    0.0338   -0.2630 C   0  0  0  0  0  0  0  0  0  0  0  0
    4.7696   -1.1832   -0.1518 C   0  0  0  0  0  0  0  0  0  0  0  0
    3.3773   -1.1998   -0.0443 C   0  0  0  0  0  0  0  0  0  0  0  0
    0.6397    1.2458    0.0647 H   0  0  0  0  0  0  0  0  0  0  0  0
    2.8165    2.1548    0.0987 H   0  0  0  0  0  0  0  0  0  0  0  0
    5.2569    2.1775   -0.2665 H   0  0  0  0  0  0  0  0  0  0  0  0
    6.5195    0.0462   -0.4064 H   0  0  0  0  0  0  0  0  0  0  0  0
    5.3251   -2.1158   -0.1602 H   0  0  0  0  0  0  0  0  0  0  0  0
    2.8609   -2.1576   -0.0154 H   0  0  0  0  0  0  0  0  0  0  0  0
  1  2  1  0  0  0  0
  1  8  1  0  0  0  0
  2  3  2  0  0  0  0
  2  7  1  0  0  0  0
  3  4  1  0  0  0  0
  3  9  1  0  0  0  0
  4  5  2  0  0  0  0
  4 10  1  0  0  0  0
  5  6  1  0  0  0  0
  5 11  1  0  0  0  0
  6  7  2  0  0  0  0
  6 12  1  0  0  0  0
  7 13  1  0  0  0  0
M  END
$$$$
