BTB
 OpenBabel04121316093D

 33 32  0  0  0  0  0  0  0  0999 V2000
    0.8258    0.2325    0.5026 O   0  0  0  0  0  0  0  0  0  0  0  0
    2.2213    0.0833    0.2830 C   0  0  0  0  0  0  0  0  0  0  0  0
    2.9582    1.3870   -0.0695 C   0  0  0  0  0  0  0  0  0  0  0  0
    4.4609    1.3219   -0.2539 N   0  0  0  0  0  0  0  0  0  0  0  0
    4.9718    0.4142   -1.3912 C   0  0  0  0  0  0  0  0  0  0  0  0
    4.4371    0.8752   -2.7849 C   0  0  0  0  0  0  0  0  0  0  0  0
    3.0251    0.8440   -2.9524 O   0  0  0  0  0  0  0  0  0  0  0  0
    6.5620    0.3116   -1.4828 C   0  0  0  0  0  0  0  0  0  0  0  0
    7.2353    1.1849   -2.3828 O   0  0  0  0  0  0  0  0  0  0  0  0
    4.6159   -1.1000   -1.1353 C   0  0  0  0  0  0  0  0  0  0  0  0
    5.1765   -2.0006   -2.0930 O   0  0  0  0  0  0  0  0  0  0  0  0
    4.9184    2.7469   -0.3368 C   0  0  0  0  0  0  0  0  0  0  0  0
    6.4020    3.0595   -0.0823 C   0  0  0  0  0  0  0  0  0  0  0  0
    6.6810    4.4215   -0.3960 O   0  0  0  0  0  0  0  0  0  0  0  0
    0.4584   -0.6701    0.4159 H   0  0  0  0  0  0  0  0  0  0  0  0
    2.2236   -0.5796   -0.5626 H   0  0  0  0  0  0  0  0  0  0  0  0
    2.6710   -0.3985    1.1558 H   0  0  0  0  0  0  0  0  0  0  0  0
    2.7254    2.0762    0.7568 H   0  0  0  0  0  0  0  0  0  0  0  0
    2.4746    1.8599   -0.9327 H   0  0  0  0  0  0  0  0  0  0  0  0
    4.8743    0.2667   -3.5796 H   0  0  0  0  0  0  0  0  0  0  0  0
    4.7333    1.9079   -2.9902 H   0  0  0  0  0  0  0  0  0  0  0  0
    2.6632    0.0215   -2.5950 H   0  0  0  0  0  0  0  0  0  0  0  0
    6.8757   -0.6654   -1.8579 H   0  0  0  0  0  0  0  0  0  0  0  0
    7.0111    0.3538   -0.4797 H   0  0  0  0  0  0  0  0  0  0  0  0
    6.6851    1.9666   -2.5870 H   0  0  0  0  0  0  0  0  0  0  0  0
    3.5754   -1.3384   -1.2320 H   0  0  0  0  0  0  0  0  0  0  0  0
    4.9473   -1.4071   -0.1349 H   0  0  0  0  0  0  0  0  0  0  0  0
    4.7478   -1.8274   -2.9495 H   0  0  0  0  0  0  0  0  0  0  0  0
    4.3929    3.3448    0.4261 H   0  0  0  0  0  0  0  0  0  0  0  0
    4.5959    3.2034   -1.2809 H   0  0  0  0  0  0  0  0  0  0  0  0
    7.0813    2.4998   -0.6972 H   0  0  0  0  0  0  0  0  0  0  0  0
    6.6906    2.8463    0.9501 H   0  0  0  0  0  0  0  0  0  0  0  0
    6.6661    4.4988   -1.3676 H   0  0  0  0  0  0  0  0  0  0  0  0
  1  2  1  0  0  0  0
  1 15  1  0  0  0  0
  2  3  1  0  0  0  0
  2 16  1  0  0  0  0
  2 17  1  0  0  0  0
  3  4  1  0  0  0  0
  3 18  1  0  0  0  0
  3 19  1  0  0  0  0
  4  5  1  0  0  0  0
  4 12  1  0  0  0  0
  5  6  1  0  0  0  0
  5  8  1  0  0  0  0
  5 10  1  0  0  0  0
  6  7  1  0  0  0  0
  6 20  1  0  0  0  0
  6 21  1  0  0  0  0
  7 22  1  0  0  0  0
  8  9  1  0  0  0  0
  8 23  1  0  0  0  0
  8 24  1  0  0  0  0
  9 25  1  0  0  0  0
 10 11  1  0  0  0  0
 10 26  1  0  0  0  0
 10 27  1  0  0  0  0
 11 28  1  0  0  0  0
 12 13  1  0  0  0  0
 12 29  1  0  0  0  0
 12 30  1  0  0  0  0
 13 14  1  0  0  0  0
 13 31  1  0  0  0  0
 13 32  1  0  0  0  0
 14 33  1  0  0  0  0
M  END
$$$$
