BTD
 OpenBabel04121316093D

 35 37  0  0  1  0  0  0  0  0999 V2000
    0.9210   -0.0119   -0.0622 O   0  0  0  0  0  0  0  0  0  0  0  0
    2.3478    0.0092   -0.0638 C   0  0  0  0  0  0  0  0  0  0  0  0
    2.8556    0.6646   -1.3463 C   0  0  1  0  0  0  0  0  0  0  0  0
    2.2343    0.3317   -2.1890 H   0  0  0  0  0  0  0  0  0  0  0  0
    2.7804    2.1144   -1.2815 O   0  0  0  0  0  0  0  0  0  0  0  0
    3.6715    2.5601   -2.2983 C   0  0  2  0  0  0  0  0  0  0  0  0
    3.1406    2.4640   -3.2560 H   0  0  0  0  0  0  0  0  0  0  0  0
    4.8638    1.5971   -2.2469 C   0  0  0  0  0  0  0  0  0  0  0  0
    4.3262    0.3469   -1.6080 C   0  0  2  0  0  0  0  0  0  0  0  0
    4.8736    0.1272   -0.6845 H   0  0  0  0  0  0  0  0  0  0  0  0
    4.4851   -0.7564   -2.4908 O   0  0  0  0  0  0  0  0  0  0  0  0
    4.1636    3.9505   -2.2005 N   0  0  0  0  0  0  0  0  0  0  0  0
    4.9821    4.2693   -3.2831 C   0  0  0  0  0  0  0  0  0  0  0  0
    6.1893    4.8330   -3.1266 C   0  0  0  0  0  0  0  0  0  0  0  0
    7.1831    4.6829   -4.1511 C   0  0  0  0  0  0  0  0  0  0  0  0
    7.1249    4.0510   -5.3957 C   0  0  0  0  0  0  0  0  0  0  0  0
    8.3615    4.1039   -6.1181 C   0  0  0  0  0  0  0  0  0  0  0  0
    9.3266    4.7381   -5.3863 C   0  0  0  0  0  0  0  0  0  0  0  0
    8.7897    5.2567   -3.8904 S   0  0  0  0  0  0  0  0  0  0  0  0
   11.0853    5.0364   -5.9392 Br  0  0  0  0  0  0  0  0  0  0  0  0
    6.4565    5.4179   -1.7756 C   0  0  0  0  0  0  0  0  0  0  0  0
    7.5493    5.8231   -1.3832 O   0  0  0  0  0  0  0  0  0  0  0  0
    5.3855    5.4807   -0.9388 N   0  0  0  0  0  0  0  0  0  0  0  0
    5.6077    5.8565   -0.0285 H   0  0  0  0  0  0  0  0  0  0  0  0
    4.3576    4.5704   -0.9681 C   0  0  0  0  0  0  0  0  0  0  0  0
    3.7402    4.3408    0.0682 O   0  0  0  0  0  0  0  0  0  0  0  0
    0.6424   -0.4140    0.7776 H   0  0  0  0  0  0  0  0  0  0  0  0
    2.6885   -1.0300    0.0009 H   0  0  0  0  0  0  0  0  0  0  0  0
    2.6841    0.5590    0.8207 H   0  0  0  0  0  0  0  0  0  0  0  0
    5.6612    2.0038   -1.6103 H   0  0  0  0  0  0  0  0  0  0  0  0
    5.2986    1.4445   -3.2412 H   0  0  0  0  0  0  0  0  0  0  0  0
    5.4391   -0.8763   -2.6498 H   0  0  0  0  0  0  0  0  0  0  0  0
    4.6804    3.8066   -4.2191 H   0  0  0  0  0  0  0  0  0  0  0  0
    6.2389    3.5681   -5.7964 H   0  0  0  0  0  0  0  0  0  0  0  0
    8.5134    3.6975   -7.1097 H   0  0  0  0  0  0  0  0  0  0  0  0
  1  2  1  0  0  0  0
  1 27  1  0  0  0  0
  2  3  1  0  0  0  0
  2 28  1  0  0  0  0
  2 29  1  0  0  0  0
  3  4  1  6  0  0  0
  3  5  1  0  0  0  0
  3  9  1  0  0  0  0
  5  6  1  0  0  0  0
  6  8  1  0  0  0  0
  6 12  1  0  0  0  0
  6  7  1  6  0  0  0
  8  9  1  0  0  0  0
  8 30  1  0  0  0  0
  8 31  1  0  0  0  0
  9 10  1  1  0  0  0
  9 11  1  0  0  0  0
 11 32  1  0  0  0  0
 12 13  1  0  0  0  0
 12 25  1  0  0  0  0
 13 14  2  0  0  0  0
 13 33  1  0  0  0  0
 14 15  1  0  0  0  0
 14 21  1  0  0  0  0
 15 16  2  0  0  0  0
 15 19  1  0  0  0  0
 16 17  1  0  0  0  0
 16 34  1  0  0  0  0
 17 18  2  0  0  0  0
 17 35  1  0  0  0  0
 18 19  1  0  0  0  0
 18 20  1  0  0  0  0
 21 22  2  0  0  0  0
 21 23  1  0  0  0  0
 23 24  1  0  0  0  0
 23 25  1  0  0  0  0
 25 26  2  0  0  0  0
M  END
$$$$
