BTL
 OpenBabel04121316093D

 19 18  0  0  0  0  0  0  0  0999 V2000
    0.8882    0.0986   -0.0098 O   0  0  0  0  0  0  0  0  0  0  0  0
    2.1144    0.0769    0.0084 C   0  0  0  0  0  0  0  0  0  0  0  0
    2.9762    1.0334   -0.7945 C   0  0  0  0  0  0  0  0  0  0  0  0
    4.5085    0.8289   -0.6228 N   0  3  0  0  0  0  0  0  0  0  0  0
    4.9053    1.0484    0.8330 C   0  0  0  0  0  0  0  0  0  0  0  0
    4.9053   -0.5669   -1.0913 C   0  0  0  0  0  0  0  0  0  0  0  0
    5.2450    1.8557   -1.4847 C   0  0  0  0  0  0  0  0  0  0  0  0
    2.6395   -0.6640    0.6304 H   0  0  0  0  0  0  0  0  0  0  0  0
    2.7586    2.0609   -0.4840 H   0  0  0  0  0  0  0  0  0  0  0  0
    2.7586    0.9057   -1.8603 H   0  0  0  0  0  0  0  0  0  0  0  0
    4.3862    0.3179    1.4573 H   0  0  0  0  0  0  0  0  0  0  0  0
    4.6143    2.0639    1.1183 H   0  0  0  0  0  0  0  0  0  0  0  0
    5.9856    0.9114    0.9224 H   0  0  0  0  0  0  0  0  0  0  0  0
    4.3862   -1.3083   -0.4800 H   0  0  0  0  0  0  0  0  0  0  0  0
    5.9856   -0.6787   -0.9718 H   0  0  0  0  0  0  0  0  0  0  0  0
    4.6143   -0.6719   -2.1409 H   0  0  0  0  0  0  0  0  0  0  0  0
    4.9604    2.8580   -1.1518 H   0  0  0  0  0  0  0  0  0  0  0  0
    4.9604    1.7015   -2.5295 H   0  0  0  0  0  0  0  0  0  0  0  0
    6.3208    1.7011   -1.3549 H   0  0  0  0  0  0  0  0  0  0  0  0
  1  2  2  0  0  0  0
  2  3  1  0  0  0  0
  2  8  1  0  0  0  0
  3  4  1  0  0  0  0
  3  9  1  0  0  0  0
  3 10  1  0  0  0  0
  4  5  1  0  0  0  0
  4  6  1  0  0  0  0
  4  7  1  0  0  0  0
  5 11  1  0  0  0  0
  5 12  1  0  0  0  0
  5 13  1  0  0  0  0
  6 14  1  0  0  0  0
  6 15  1  0  0  0  0
  6 16  1  0  0  0  0
  7 17  1  0  0  0  0
  7 18  1  0  0  0  0
  7 19  1  0  0  0  0
M  CHG  1   4   1
M  END
$$$$
