BTM
 OpenBabel04121316093D

 36 36  0  0  0  0  0  0  0  0999 V2000
    1.0328    0.0366    0.2869 C   0  0  0  0  0  0  0  0  0  0  0  0
    2.5308    0.2055    0.0335 C   0  0  0  0  0  0  0  0  0  0  0  0
    3.0448   -0.2407   -1.3817 N   0  3  0  0  0  0  0  0  0  0  0  0
    2.6337   -1.7014   -1.6545 C   0  0  0  0  0  0  0  0  0  0  0  0
    3.1083   -2.7619   -0.6784 C   0  0  0  0  0  0  0  0  0  0  0  0
    4.0048   -2.5680    0.3900 C   0  0  0  0  0  0  0  0  0  0  0  0
    4.4470   -3.5837    1.2120 C   0  0  0  0  0  0  0  0  0  0  0  0
    3.9180   -4.8504    1.0412 C   0  0  0  0  0  0  0  0  0  0  0  0
    2.9704   -5.0699    0.0441 C   0  0  0  0  0  0  0  0  0  0  0  0
    2.5996   -4.0577   -0.8393 C   0  0  0  0  0  0  0  0  0  0  0  0
    2.5276    0.7461   -2.4534 C   0  0  0  0  0  0  0  0  0  0  0  0
    1.0312    0.8020   -2.6681 C   0  0  0  0  0  0  0  0  0  0  0  0
    4.6291   -0.1417   -1.4860 C   0  0  0  0  0  0  0  0  0  0  0  0
    5.2005   -0.5857   -2.8340 C   0  0  0  0  0  0  0  0  0  0  0  0
    0.8378    0.0339    1.3643 H   0  0  0  0  0  0  0  0  0  0  0  0
    0.6122   -0.8931   -0.1026 H   0  0  0  0  0  0  0  0  0  0  0  0
    0.4512    0.8764   -0.0841 H   0  0  0  0  0  0  0  0  0  0  0  0
    3.0154   -0.3940    0.7947 H   0  0  0  0  0  0  0  0  0  0  0  0
    2.8683    1.2319    0.1961 H   0  0  0  0  0  0  0  0  0  0  0  0
    2.9562   -1.9472   -2.6726 H   0  0  0  0  0  0  0  0  0  0  0  0
    1.5420   -1.7292   -1.6958 H   0  0  0  0  0  0  0  0  0  0  0  0
    4.4179   -1.6111    0.6847 H   0  0  0  0  0  0  0  0  0  0  0  0
    5.1778   -3.3700    1.9871 H   0  0  0  0  0  0  0  0  0  0  0  0
    4.2418   -5.6466    1.6972 H   0  0  0  0  0  0  0  0  0  0  0  0
    2.5119   -6.0539   -0.0417 H   0  0  0  0  0  0  0  0  0  0  0  0
    1.8983   -4.2836   -1.6406 H   0  0  0  0  0  0  0  0  0  0  0  0
    2.9687    0.4544   -3.4067 H   0  0  0  0  0  0  0  0  0  0  0  0
    2.9142    1.7338   -2.1731 H   0  0  0  0  0  0  0  0  0  0  0  0
    0.5817   -0.1848   -2.7866 H   0  0  0  0  0  0  0  0  0  0  0  0
    0.8199    1.3741   -3.5763 H   0  0  0  0  0  0  0  0  0  0  0  0
    0.5212    1.3540   -1.8846 H   0  0  0  0  0  0  0  0  0  0  0  0
    5.1003   -0.7785   -0.7507 H   0  0  0  0  0  0  0  0  0  0  0  0
    4.9084    0.8830   -1.2288 H   0  0  0  0  0  0  0  0  0  0  0  0
    4.9043   -1.6020   -3.1100 H   0  0  0  0  0  0  0  0  0  0  0  0
    6.2942   -0.6004   -2.7812 H   0  0  0  0  0  0  0  0  0  0  0  0
    4.9331    0.0921   -3.6453 H   0  0  0  0  0  0  0  0  0  0  0  0
  1  2  1  0  0  0  0
  1 15  1  0  0  0  0
  1 16  1  0  0  0  0
  1 17  1  0  0  0  0
  2  3  1  0  0  0  0
  2 18  1  0  0  0  0
  2 19  1  0  0  0  0
  3  4  1  0  0  0  0
  3 11  1  0  0  0  0
  3 13  1  0  0  0  0
  4  5  1  0  0  0  0
  4 20  1  0  0  0  0
  4 21  1  0  0  0  0
  5  6  2  0  0  0  0
  5 10  1  0  0  0  0
  6  7  1  0  0  0  0
  6 22  1  0  0  0  0
  7  8  2  0  0  0  0
  7 23  1  0  0  0  0
  8  9  1  0  0  0  0
  8 24  1  0  0  0  0
  9 10  2  0  0  0  0
  9 25  1  0  0  0  0
 10 26  1  0  0  0  0
 11 12  1  0  0  0  0
 11 27  1  0  0  0  0
 11 28  1  0  0  0  0
 12 29  1  0  0  0  0
 12 30  1  0  0  0  0
 12 31  1  0  0  0  0
 13 14  1  0  0  0  0
 13 32  1  0  0  0  0
 13 33  1  0  0  0  0
 14 34  1  0  0  0  0
 14 35  1  0  0  0  0
 14 36  1  0  0  0  0
M  CHG  1   3   1
M  END
$$$$
