BTW
 OpenBabel04121316093D

 28 28  0  0  1  0  0  0  0  0999 V2000
    1.0656   -0.5735   -2.2734 C   0  0  0  0  0  0  0  0  0  0  0  0
    2.5723   -0.8041   -2.3078 C   0  0  2  0  0  0  0  0  0  0  0  0
    2.6472   -1.6435   -2.9896 H   0  0  0  0  0  0  0  0  0  0  0  0
    3.1878   -1.0884   -0.8958 C   0  0  2  0  0  0  0  0  0  0  0  0
    2.8346   -0.3054   -0.2089 H   0  0  0  0  0  0  0  0  0  0  0  0
    4.7204   -1.0944   -0.7603 C   0  0  0  0  0  0  0  0  0  0  0  0
    5.3814   -2.0045   -0.2624 O   0  0  0  0  0  0  0  0  0  0  0  0
    5.3386    0.0262   -1.1725 O   0  0  0  0  0  0  0  0  0  0  0  0
    2.7027   -2.4512   -0.3271 C   0  0  0  0  0  0  0  0  0  0  0  0
    3.1187   -3.6684   -1.1378 C   0  0  0  0  0  0  0  0  0  0  0  0
    3.7223   -3.5750   -2.4027 C   0  0  0  0  0  0  0  0  0  0  0  0
    3.7398   -4.6339   -3.2874 C   0  0  0  0  0  0  0  0  0  0  0  0
    3.4432   -5.8901   -2.8057 C   0  0  0  0  0  0  0  0  0  0  0  0
    3.1192   -6.0546   -1.4573 C   0  0  0  0  0  0  0  0  0  0  0  0
    2.8774   -4.9455   -0.6438 C   0  0  0  0  0  0  0  0  0  0  0  0
    3.3885    0.5465   -3.2353 S   0  0  0  0  0  0  0  0  0  0  0  0
    0.8087    0.3292   -1.7181 H   0  0  0  0  0  0  0  0  0  0  0  0
    0.5470   -1.4240   -1.8177 H   0  0  0  0  0  0  0  0  0  0  0  0
    0.6703   -0.5002   -3.2941 H   0  0  0  0  0  0  0  0  0  0  0  0
    4.7269    0.7146   -1.5044 H   0  0  0  0  0  0  0  0  0  0  0  0
    1.6060   -2.4507   -0.2557 H   0  0  0  0  0  0  0  0  0  0  0  0
    3.0543   -2.5644    0.7087 H   0  0  0  0  0  0  0  0  0  0  0  0
    4.1914   -2.6687   -2.7662 H   0  0  0  0  0  0  0  0  0  0  0  0
    4.0181   -4.4584   -4.3222 H   0  0  0  0  0  0  0  0  0  0  0  0
    3.5131   -6.7399   -3.4733 H   0  0  0  0  0  0  0  0  0  0  0  0
    3.0363   -7.0537   -1.0452 H   0  0  0  0  0  0  0  0  0  0  0  0
    2.5262   -5.0848    0.3757 H   0  0  0  0  0  0  0  0  0  0  0  0
    4.6053   -0.0410   -3.3175 H   0  0  0  0  0  0  0  0  0  0  0  0
  1 17  1  0  0  0  0
  1 18  1  0  0  0  0
  1 19  1  0  0  0  0
  2 16  1  0  0  0  0
  2  3  1  6  0  0  0
  2  1  1  0  0  0  0
  4  6  1  0  0  0  0
  4  9  1  0  0  0  0
  4  5  1  1  0  0  0
  4  2  1  0  0  0  0
  6  7  2  0  0  0  0
  6  8  1  0  0  0  0
  8 20  1  0  0  0  0
  9 10  1  0  0  0  0
  9 21  1  0  0  0  0
  9 22  1  0  0  0  0
 10 11  2  0  0  0  0
 10 15  1  0  0  0  0
 11 12  1  0  0  0  0
 11 23  1  0  0  0  0
 12 13  2  0  0  0  0
 12 24  1  0  0  0  0
 13 14  1  0  0  0  0
 13 25  1  0  0  0  0
 14 15  2  0  0  0  0
 14 26  1  0  0  0  0
 15 27  1  0  0  0  0
 16 28  1  0  0  0  0
M  END
$$$$
