BTX
 OpenBabel04121316093D

 67 71  0  0  1  0  0  0  0  0999 V2000
   -2.2148  -11.4286   -9.2373 O   0  0  0  0  0  0  0  0  0  0  0  0
   -2.4274  -10.2754   -8.8718 C   0  0  0  0  0  0  0  0  0  0  0  0
   -3.5071   -9.4727   -9.2421 N   0  0  0  0  0  0  0  0  0  0  0  0
   -3.5474   -8.2644   -8.4239 C   0  0  2  0  0  0  0  0  0  0  0  0
   -3.1629   -7.5153   -9.1210 H   0  0  0  0  0  0  0  0  0  0  0  0
   -2.5635   -8.5851   -7.2833 C   0  0  2  0  0  0  0  0  0  0  0  0
   -1.9261   -7.7162   -7.0895 H   0  0  0  0  0  0  0  0  0  0  0  0
   -1.7424   -9.6284   -7.8580 N   0  0  0  0  0  0  0  0  0  0  0  0
   -3.3497   -8.9785   -5.9830 C   0  0  1  0  0  0  0  0  0  0  0  0
   -2.7430   -8.7181   -5.1077 H   0  0  0  0  0  0  0  0  0  0  0  0
   -4.7762   -7.8485   -6.0088 S   0  0  0  0  0  0  0  0  0  0  0  0
   -4.8641   -7.7377   -7.8240 C   0  0  0  0  0  0  0  0  0  0  0  0
   -3.8913  -10.4287   -5.7711 C   0  0  0  0  0  0  0  0  0  0  0  0
   -4.4112  -11.0461   -7.0452 C   0  0  0  0  0  0  0  0  0  0  0  0
   -5.6833  -11.7797   -7.2803 C   0  0  0  0  0  0  0  0  0  0  0  0
   -5.7939  -12.0793   -8.8183 C   0  0  0  0  0  0  0  0  0  0  0  0
   -7.0390  -12.8807   -8.9802 C   0  0  0  0  0  0  0  0  0  0  0  0
   -7.3336  -13.3999  -10.2889 O   0  0  0  0  0  0  0  0  0  0  0  0
   -8.7851  -14.2225  -10.2320 P   0  0  2  0  0  0  0  0  0  0  0  0
   -8.4353  -14.8181   -8.8508 O   0  0  0  0  0  0  0  0  0  0  0  0
   -8.4698  -15.6939  -10.9651 O   0  0  0  0  0  0  0  0  0  0  0  0
   -8.4174  -16.8269  -10.0259 C   0  0  0  0  0  0  0  0  0  0  0  0
   -8.5047  -18.2143  -10.6281 C   0  0  1  0  0  0  0  0  0  0  0  0
   -7.4869  -18.5333  -10.8841 H   0  0  0  0  0  0  0  0  0  0  0  0
   -9.0512  -19.1954   -9.7023 O   0  0  0  0  0  0  0  0  0  0  0  0
   -9.5334  -20.2572  -10.5516 C   0  0  2  0  0  0  0  0  0  0  0  0
   -8.6721  -20.8908  -10.8039 H   0  0  0  0  0  0  0  0  0  0  0  0
  -10.0848  -19.5846  -11.8147 C   0  0  1  0  0  0  0  0  0  0  0  0
  -11.1663  -19.4363  -11.7662 H   0  0  0  0  0  0  0  0  0  0  0  0
   -9.4240  -18.2128  -11.8254 C   0  0  2  0  0  0  0  0  0  0  0  0
  -10.2011  -17.4478  -11.7060 H   0  0  0  0  0  0  0  0  0  0  0  0
   -8.6849  -17.9240  -13.0004 O   0  0  0  0  0  0  0  0  0  0  0  0
   -9.8112  -20.3067  -13.0130 O   0  0  0  0  0  0  0  0  0  0  0  0
  -10.4898  -21.1138   -9.8627 N   0  0  0  0  0  0  0  0  0  0  0  0
  -10.2923  -22.4543   -9.6203 C   0  0  0  0  0  0  0  0  0  0  0  0
  -11.3636  -23.0398   -9.1301 N   0  0  0  0  0  0  0  0  0  0  0  0
  -12.3049  -22.0369   -9.0475 C   0  0  0  0  0  0  0  0  0  0  0  0
  -11.7880  -20.8339   -9.5118 C   0  0  0  0  0  0  0  0  0  0  0  0
  -12.4486  -19.6675   -9.6194 N   0  0  0  0  0  0  0  0  0  0  0  0
  -13.7187  -19.7895   -9.1725 C   0  0  0  0  0  0  0  0  0  0  0  0
  -14.3422  -20.8838   -8.6836 N   0  0  0  0  0  0  0  0  0  0  0  0
  -13.6438  -22.0386   -8.6140 C   0  0  0  0  0  0  0  0  0  0  0  0
  -14.2768  -23.1669   -8.1406 N   0  0  0  0  0  0  0  0  0  0  0  0
   -9.1770  -13.5553  -11.7793 O   0  0  0  0  0  0  0  0  0  0  0  0
   -4.3111   -9.9408   -9.6467 H   0  0  0  0  0  0  0  0  0  0  0  0
   -0.9846  -10.1050   -7.3871 H   0  0  0  0  0  0  0  0  0  0  0  0
   -4.9556   -6.6659   -8.0188 H   0  0  0  0  0  0  0  0  0  0  0  0
   -5.7710   -8.2342   -8.1815 H   0  0  0  0  0  0  0  0  0  0  0  0
   -3.0390  -11.0327   -5.4328 H   0  0  0  0  0  0  0  0  0  0  0  0
   -4.6467  -10.4787   -4.9806 H   0  0  0  0  0  0  0  0  0  0  0  0
   -3.6247  -11.6987   -7.4151 H   0  0  0  0  0  0  0  0  0  0  0  0
   -4.6524  -10.2059   -7.6540 H   0  0  0  0  0  0  0  0  0  0  0  0
   -6.5297  -11.1535   -6.9765 H   0  0  0  0  0  0  0  0  0  0  0  0
   -5.6746  -12.6982   -6.6933 H   0  0  0  0  0  0  0  0  0  0  0  0
   -4.9303  -12.6463   -9.1902 H   0  0  0  0  0  0  0  0  0  0  0  0
   -5.8778  -11.1833   -9.4414 H   0  0  0  0  0  0  0  0  0  0  0  0
   -7.8979  -12.2885   -8.6375 H   0  0  0  0  0  0  0  0  0  0  0  0
   -6.8678  -13.7046   -8.2789 H   0  0  0  0  0  0  0  0  0  0  0  0
   -9.2460  -16.7567   -9.3017 H   0  0  0  0  0  0  0  0  0  0  0  0
   -7.4682  -16.7588   -9.4770 H   0  0  0  0  0  0  0  0  0  0  0  0
   -9.2689  -18.1221  -13.7505 H   0  0  0  0  0  0  0  0  0  0  0  0
  -10.2713  -21.1621  -12.9569 H   0  0  0  0  0  0  0  0  0  0  0  0
   -9.3580  -22.9593   -9.8337 H   0  0  0  0  0  0  0  0  0  0  0  0
  -14.3251  -18.8886   -9.2149 H   0  0  0  0  0  0  0  0  0  0  0  0
  -15.2152  -23.0821   -7.7841 H   0  0  0  0  0  0  0  0  0  0  0  0
  -13.7417  -24.0183   -8.0419 H   0  0  0  0  0  0  0  0  0  0  0  0
  -10.0519  -13.8709  -12.0612 H   0  0  0  0  0  0  0  0  0  0  0  0
  1  2  2  0  0  0  0
  2  3  1  0  0  0  0
  2  8  1  0  0  0  0
  3  4  1  0  0  0  0
  3 45  1  0  0  0  0
  4  5  1  6  0  0  0
  4  6  1  0  0  0  0
  4 12  1  0  0  0  0
  6  7  1  1  0  0  0
  6  8  1  0  0  0  0
  6  9  1  0  0  0  0
  8 46  1  0  0  0  0
  9 11  1  0  0  0  0
  9 13  1  0  0  0  0
  9 10  1  1  0  0  0
 11 12  1  0  0  0  0
 12 47  1  0  0  0  0
 12 48  1  0  0  0  0
 13 14  1  0  0  0  0
 13 49  1  0  0  0  0
 13 50  1  0  0  0  0
 14 15  1  0  0  0  0
 14 51  1  0  0  0  0
 14 52  1  0  0  0  0
 15 16  1  0  0  0  0
 15 53  1  0  0  0  0
 15 54  1  0  0  0  0
 16 17  1  0  0  0  0
 16 55  1  0  0  0  0
 16 56  1  0  0  0  0
 17 18  1  0  0  0  0
 17 57  1  0  0  0  0
 17 58  1  0  0  0  0
 19 21  1  6  0  0  0
 19 44  1  0  0  0  0
 19 20  2  0  0  0  0
 19 18  1  0  0  0  0
 21 22  1  0  0  0  0
 22 23  1  0  0  0  0
 22 59  1  0  0  0  0
 22 60  1  0  0  0  0
 23 24  1  6  0  0  0
 23 25  1  0  0  0  0
 23 30  1  0  0  0  0
 25 26  1  0  0  0  0
 26 28  1  0  0  0  0
 26 34  1  0  0  0  0
 26 27  1  6  0  0  0
 28 29  1  1  0  0  0
 28 30  1  0  0  0  0
 28 33  1  0  0  0  0
 30 31  1  1  0  0  0
 30 32  1  0  0  0  0
 32 61  1  0  0  0  0
 33 62  1  0  0  0  0
 34 35  1  0  0  0  0
 34 38  1  0  0  0  0
 35 36  2  0  0  0  0
 35 63  1  0  0  0  0
 36 37  1  0  0  0  0
 37 38  2  0  0  0  0
 37 42  1  0  0  0  0
 38 39  1  0  0  0  0
 39 40  2  0  0  0  0
 40 41  1  0  0  0  0
 40 64  1  0  0  0  0
 41 42  2  0  0  0  0
 42 43  1  0  0  0  0
 43 65  1  0  0  0  0
 43 66  1  0  0  0  0
 44 67  1  0  0  0  0
M  END
$$$$
