BUJ
 OpenBabel04121316093D

 74 73  0  0  1  0  0  0  0  0999 V2000
    1.0443    0.0596   -0.0233 C   0  0  0  0  0  0  0  0  0  0  0  0
    2.5602    0.0621   -0.0302 C   0  0  0  0  0  0  0  0  0  0  0  0
    3.0834    0.5616   -1.3691 C   0  0  0  0  0  0  0  0  0  0  0  0
    4.6032    0.5651   -1.3785 C   0  0  0  0  0  0  0  0  0  0  0  0
    5.1158    1.0649   -2.7184 C   0  0  0  0  0  0  0  0  0  0  0  0
    6.6337    1.0675   -2.7251 C   0  0  0  0  0  0  0  0  0  0  0  0
    7.1445    1.5668   -4.0637 C   0  0  0  0  0  0  0  0  0  0  0  0
    8.6614    1.5683   -4.0680 C   0  0  0  0  0  0  0  0  0  0  0  0
    9.1719    2.0671   -5.4057 C   0  0  0  0  0  0  0  0  0  0  0  0
   10.6888    2.0677   -5.4092 C   0  0  0  0  0  0  0  0  0  0  0  0
   11.1939    2.5661   -6.7480 C   0  0  0  0  0  0  0  0  0  0  0  0
   12.7106    2.5762   -6.7674 C   0  0  0  0  0  0  0  0  0  0  0  0
   13.1814    3.1011   -8.1149 C   0  0  0  0  0  0  0  0  0  0  0  0
   14.6903    3.1959   -8.1563 C   0  0  0  0  0  0  0  0  0  0  0  0
   15.1635    3.8590   -9.4700 C   0  0  0  0  0  0  0  0  0  0  0  0
   16.6164    4.3211   -9.3499 C   0  0  0  0  0  0  0  0  0  0  0  0
   17.1189    4.4822   -8.2341 O   0  0  0  0  0  0  0  0  0  0  0  0
   17.3530    4.2600  -10.5254 N   0  0  0  0  0  0  0  0  0  0  0  0
   18.8454    4.0717  -10.5827 C   0  0  1  0  0  0  0  0  0  0  0  0
   19.2584    4.7310   -9.8146 H   0  0  0  0  0  0  0  0  0  0  0  0
   19.3467    2.5672  -10.3509 C   0  0  0  0  0  0  0  0  0  0  0  0
   18.9329    1.9248   -9.0100 N   0  3  0  0  0  0  0  0  0  0  0  0
   19.4318    2.8535   -7.8883 C   0  0  0  0  0  0  0  0  0  0  0  0
   17.4809    1.5776   -9.0264 C   0  0  0  0  0  0  0  0  0  0  0  0
   19.5872    0.5798   -8.7964 C   0  0  0  0  0  0  0  0  0  0  0  0
   19.3799    4.5466  -11.9328 C   0  0  0  0  0  0  0  0  0  0  0  0
   20.9120    4.5872  -11.9579 C   0  0  0  0  0  0  0  0  0  0  0  0
   21.4868    4.2723  -10.8795 O   0  0  0  0  0  0  0  0  0  0  0  0
   21.4036    4.8740  -13.0782 O   0  5  0  0  0  0  0  0  0  0  0  0
    0.6703   -0.2994    0.9389 H   0  0  0  0  0  0  0  0  0  0  0  0
    0.6553   -0.5933   -0.8113 H   0  0  0  0  0  0  0  0  0  0  0  0
    0.6553    1.0690   -0.1912 H   0  0  0  0  0  0  0  0  0  0  0  0
    2.9313   -0.9516    0.1608 H   0  0  0  0  0  0  0  0  0  0  0  0
    2.9313    0.7031    0.7781 H   0  0  0  0  0  0  0  0  0  0  0  0
    2.7109    1.5754   -1.5615 H   0  0  0  0  0  0  0  0  0  0  0  0
    2.7109   -0.0785   -2.1785 H   0  0  0  0  0  0  0  0  0  0  0  0
    4.9811   -0.4474   -1.1910 H   0  0  0  0  0  0  0  0  0  0  0  0
    4.9811    1.2075   -0.5737 H   0  0  0  0  0  0  0  0  0  0  0  0
    4.7412    2.0783   -2.9086 H   0  0  0  0  0  0  0  0  0  0  0  0
    4.7412    0.4237   -3.5258 H   0  0  0  0  0  0  0  0  0  0  0  0
    7.0104    0.0546   -2.5366 H   0  0  0  0  0  0  0  0  0  0  0  0
    7.0104    1.7094   -1.9193 H   0  0  0  0  0  0  0  0  0  0  0  0
    6.7695    2.5801   -4.2534 H   0  0  0  0  0  0  0  0  0  0  0  0
    6.7694    0.9253   -4.8707 H   0  0  0  0  0  0  0  0  0  0  0  0
    9.0374    0.5553   -3.8791 H   0  0  0  0  0  0  0  0  0  0  0  0
    9.0375    2.2103   -3.2619 H   0  0  0  0  0  0  0  0  0  0  0  0
    8.7967    3.0805   -5.5955 H   0  0  0  0  0  0  0  0  0  0  0  0
    8.7963    1.4259   -6.2127 H   0  0  0  0  0  0  0  0  0  0  0  0
   11.0649    1.0548   -5.2206 H   0  0  0  0  0  0  0  0  0  0  0  0
   11.0648    2.7105   -4.6038 H   0  0  0  0  0  0  0  0  0  0  0  0
   10.8147    3.5787   -6.9349 H   0  0  0  0  0  0  0  0  0  0  0  0
   10.8163    1.9246   -7.5536 H   0  0  0  0  0  0  0  0  0  0  0  0
   13.0977    1.5651   -6.5879 H   0  0  0  0  0  0  0  0  0  0  0  0
   13.0888    3.2141   -5.9583 H   0  0  0  0  0  0  0  0  0  0  0  0
   12.7599    4.0964   -8.2872 H   0  0  0  0  0  0  0  0  0  0  0  0
   12.8270    2.4412   -8.9157 H   0  0  0  0  0  0  0  0  0  0  0  0
   15.0911    2.1803   -8.0438 H   0  0  0  0  0  0  0  0  0  0  0  0
   15.0428    3.7538   -7.2811 H   0  0  0  0  0  0  0  0  0  0  0  0
   14.5560    4.7323   -9.7050 H   0  0  0  0  0  0  0  0  0  0  0  0
   15.0504    3.1223  -10.2784 H   0  0  0  0  0  0  0  0  0  0  0  0
   16.8570    4.2813  -11.4099 H   0  0  0  0  0  0  0  0  0  0  0  0
   20.4313    2.4597  -10.3644 H   0  0  0  0  0  0  0  0  0  0  0  0
   18.9561    1.9144  -11.1416 H   0  0  0  0  0  0  0  0  0  0  0  0
   19.1527    3.8885   -8.0476 H   0  0  0  0  0  0  0  0  0  0  0  0
   20.5276    2.8310   -7.8949 H   0  0  0  0  0  0  0  0  0  0  0  0
   19.0359    2.5076   -6.9325 H   0  0  0  0  0  0  0  0  0  0  0  0
   16.9500    2.2713   -9.6267 H   0  0  0  0  0  0  0  0  0  0  0  0
   17.1058    1.4960   -8.0084 H   0  0  0  0  0  0  0  0  0  0  0  0
   17.3045    0.6695   -9.6125 H   0  0  0  0  0  0  0  0  0  0  0  0
   20.6692    0.6856   -8.7987 H   0  0  0  0  0  0  0  0  0  0  0  0
   19.2548   -0.0915   -9.5949 H   0  0  0  0  0  0  0  0  0  0  0  0
   19.2252    0.2042   -7.8302 H   0  0  0  0  0  0  0  0  0  0  0  0
   19.0145    5.5560  -12.1503 H   0  0  0  0  0  0  0  0  0  0  0  0
   19.0280    3.8871  -12.7365 H   0  0  0  0  0  0  0  0  0  0  0  0
  1  2  1  0  0  0  0
  1 30  1  0  0  0  0
  1 31  1  0  0  0  0
  1 32  1  0  0  0  0
  2  3  1  0  0  0  0
  2 33  1  0  0  0  0
  2 34  1  0  0  0  0
  3  4  1  0  0  0  0
  3 35  1  0  0  0  0
  3 36  1  0  0  0  0
  4  5  1  0  0  0  0
  4 37  1  0  0  0  0
  4 38  1  0  0  0  0
  5  6  1  0  0  0  0
  5 39  1  0  0  0  0
  5 40  1  0  0  0  0
  6  7  1  0  0  0  0
  6 41  1  0  0  0  0
  6 42  1  0  0  0  0
  7  8  1  0  0  0  0
  7 43  1  0  0  0  0
  7 44  1  0  0  0  0
  8  9  1  0  0  0  0
  8 45  1  0  0  0  0
  8 46  1  0  0  0  0
  9 10  1  0  0  0  0
  9 47  1  0  0  0  0
  9 48  1  0  0  0  0
 10 11  1  0  0  0  0
 10 49  1  0  0  0  0
 10 50  1  0  0  0  0
 11 12  1  0  0  0  0
 11 51  1  0  0  0  0
 11 52  1  0  0  0  0
 12 13  1  0  0  0  0
 12 53  1  0  0  0  0
 12 54  1  0  0  0  0
 13 14  1  0  0  0  0
 13 55  1  0  0  0  0
 13 56  1  0  0  0  0
 14 15  1  0  0  0  0
 14 57  1  0  0  0  0
 14 58  1  0  0  0  0
 15 16  1  0  0  0  0
 15 59  1  0  0  0  0
 15 60  1  0  0  0  0
 16 17  2  0  0  0  0
 16 18  1  0  0  0  0
 18 19  1  0  0  0  0
 18 61  1  0  0  0  0
 19 20  1  1  0  0  0
 19 21  1  0  0  0  0
 19 26  1  0  0  0  0
 21 22  1  0  0  0  0
 21 62  1  0  0  0  0
 21 63  1  0  0  0  0
 22 23  1  0  0  0  0
 22 24  1  0  0  0  0
 22 25  1  0  0  0  0
 23 64  1  0  0  0  0
 23 65  1  0  0  0  0
 23 66  1  0  0  0  0
 24 67  1  0  0  0  0
 24 68  1  0  0  0  0
 24 69  1  0  0  0  0
 25 70  1  0  0  0  0
 25 71  1  0  0  0  0
 25 72  1  0  0  0  0
 26 27  1  0  0  0  0
 26 73  1  0  0  0  0
 26 74  1  0  0  0  0
 27 28  2  0  0  0  0
 27 29  1  0  0  0  0
M  CHG  2  22   1  29  -1
M  END
$$$$
