BUK
 OpenBabel04121316093D

 85 86  0  0  1  0  0  0  0  0999 V2000
    6.4371    4.3237   -1.9153 N   0  0  0  0  0  0  0  0  0  0  0  0
    7.2039    3.2028   -2.0328 C   0  0  0  0  0  0  0  0  0  0  0  0
    7.8000    3.3696   -3.1102 O   0  0  0  0  0  0  0  0  0  0  0  0
    7.5651    2.0405   -0.5002 C   0  0  0  0  0  0  0  0  0  0  0  0
    9.4313    1.3598   -0.0380 C   0  0  1  0  0  0  0  0  0  0  0  0
    9.9987    0.7808   -0.8270 H   0  0  0  0  0  0  0  0  0  0  0  0
   11.1180    2.4989   -0.2585 C   0  0  0  0  0  0  0  0  0  0  0  0
   12.0033    3.0544    0.4559 O   0  0  0  0  0  0  0  0  0  0  0  0
   11.4528    3.2522   -1.2743 N   0  0  0  0  0  0  0  0  0  0  0  0
   10.5678    3.5390   -2.4580 C   0  0  2  0  0  0  0  0  0  0  0  0
    9.6383    4.1353   -2.1139 H   0  0  0  0  0  0  0  0  0  0  0  0
    9.9114    2.3196   -2.6211 C   0  0  0  0  0  0  0  0  0  0  0  0
    9.9541    1.4479   -3.4456 O   0  0  0  0  0  0  0  0  0  0  0  0
    9.1283    2.4769   -1.4758 N   0  0  0  0  0  0  0  0  0  0  0  0
    8.9752    3.4827    0.1904 C   0  0  2  0  0  0  0  0  0  0  0  0
    8.0197    3.4571    0.7944 H   0  0  0  0  0  0  0  0  0  0  0  0
    9.0492    5.0086    0.1450 C   0  0  1  0  0  0  0  0  0  0  0  0
    8.7623    5.2520    1.1734 H   0  0  0  0  0  0  0  0  0  0  0  0
   10.4633    5.5292   -0.1135 C   0  0  1  0  0  0  0  0  0  0  0  0
   11.0390    5.1109    0.6983 H   0  0  0  0  0  0  0  0  0  0  0  0
   10.9722    5.4372   -1.4603 N   0  0  0  0  0  0  0  0  0  0  0  0
   10.1580    6.0488   -2.4349 C   0  0  0  0  0  0  0  0  0  0  0  0
   10.2079    7.2722   -1.9549 C   0  0  0  0  0  0  0  0  0  0  0  0
   10.5898    7.3162   -0.2114 S   0  0  0  0  0  0  0  0  0  0  0  0
    8.0773    5.7033   -0.6162 O   0  0  0  0  0  0  0  0  0  0  0  0
    9.0768    2.6779    1.8311 C   0  0  0  0  0  0  0  0  0  0  0  0
   10.5038    2.5337    1.9670 C   0  0  0  0  0  0  0  0  0  0  0  0
   11.6490    2.1831    2.7249 C   0  0  0  0  0  0  0  0  0  0  0  0
   12.9875    1.9522    2.1593 N   0  0  0  0  0  0  0  0  0  0  0  0
   14.0367    1.4587    2.7964 C   0  0  0  0  0  0  0  0  0  0  0  0
   14.0600    0.8758    3.9185 N   0  0  0  0  0  0  0  0  0  0  0  0
   15.1979    1.6197    2.0658 N   0  0  0  0  0  0  0  0  0  0  0  0
   11.4470    4.0528   -3.6608 C   0  0  0  0  0  0  0  0  0  0  0  0
   12.2810    5.6565   -3.6891 C   0  0  0  0  0  0  0  0  0  0  0  0
   12.6462    3.1601   -3.5555 C   0  0  0  0  0  0  0  0  0  0  0  0
    9.4091    0.2011    0.9086 N   0  0  0  0  0  0  0  0  0  0  0  0
   10.5749   -0.4373    1.2424 C   0  0  0  0  0  0  0  0  0  0  0  0
   11.6075   -0.4212    0.5905 O   0  0  0  0  0  0  0  0  0  0  0  0
   10.4483   -0.8470    2.5660 N   0  0  0  0  0  0  0  0  0  0  0  0
   11.6484   -1.3101    3.1567 C   0  0  1  0  0  0  0  0  0  0  0  0
   12.1128   -1.9446    2.3960 H   0  0  0  0  0  0  0  0  0  0  0  0
   12.6345   -0.3457    3.7067 C   0  0  0  0  0  0  0  0  0  0  0  0
   12.3043    1.2302    4.6815 C   0  0  0  0  0  0  0  0  0  0  0  0
   13.7064    2.3941    5.0411 C   0  0  0  0  0  0  0  0  0  0  0  0
   15.4468    1.7966    4.7880 C   0  0  0  0  0  0  0  0  0  0  0  0
   15.7793    0.1079    4.0468 C   0  0  0  0  0  0  0  0  0  0  0  0
   14.3701   -0.9201    3.4201 C   0  0  0  0  0  0  0  0  0  0  0  0
   16.6707    3.2686    4.1921 Br  0  0  0  0  0  0  0  0  0  0  0  0
   11.3975   -1.9929    4.4482 C   0  0  0  0  0  0  0  0  0  0  0  0
    6.8596    5.0846   -2.4939 H   0  0  0  0  0  0  0  0  0  0  0  0
    5.7843    4.5203   -1.1857 H   0  0  0  0  0  0  0  0  0  0  0  0
    6.7998    1.2778   -0.4250 H   0  0  0  0  0  0  0  0  0  0  0  0
    6.9410    2.9670   -0.0365 H   0  0  0  0  0  0  0  0  0  0  0  0
   11.9903    3.9930   -0.6841 H   0  0  0  0  0  0  0  0  0  0  0  0
    8.6784    1.4986   -1.6872 H   0  0  0  0  0  0  0  0  0  0  0  0
   11.6819    4.7573   -1.7983 H   0  0  0  0  0  0  0  0  0  0  0  0
   10.0865    5.7296   -3.5318 H   0  0  0  0  0  0  0  0  0  0  0  0
   10.6951    7.9323   -2.6299 H   0  0  0  0  0  0  0  0  0  0  0  0
    7.2715    5.1967   -0.7158 H   0  0  0  0  0  0  0  0  0  0  0  0
    8.3460    1.8459    1.8421 H   0  0  0  0  0  0  0  0  0  0  0  0
    8.7235    3.2605    2.6790 H   0  0  0  0  0  0  0  0  0  0  0  0
   10.6812    3.5704    1.7936 H   0  0  0  0  0  0  0  0  0  0  0  0
   10.8031    1.7147    1.3535 H   0  0  0  0  0  0  0  0  0  0  0  0
   11.2611    1.2035    2.9151 H   0  0  0  0  0  0  0  0  0  0  0  0
   11.5700    2.9773    3.4414 H   0  0  0  0  0  0  0  0  0  0  0  0
   13.2399    2.3743    1.2778 H   0  0  0  0  0  0  0  0  0  0  0  0
   13.6738    0.3529    4.9531 H   0  0  0  0  0  0  0  0  0  0  0  0
   15.2884    2.3900    1.4421 H   0  0  0  0  0  0  0  0  0  0  0  0
   16.0626    1.6352    2.6099 H   0  0  0  0  0  0  0  0  0  0  0  0
   10.7375    3.8817   -4.4925 H   0  0  0  0  0  0  0  0  0  0  0  0
   12.7587    5.9257   -2.7112 H   0  0  0  0  0  0  0  0  0  0  0  0
   11.6363    6.5119   -3.9389 H   0  0  0  0  0  0  0  0  0  0  0  0
   13.0074    5.8985   -4.4592 H   0  0  0  0  0  0  0  0  0  0  0  0
   13.2041    3.3550   -2.6237 H   0  0  0  0  0  0  0  0  0  0  0  0
   13.2757    3.4748   -4.3631 H   0  0  0  0  0  0  0  0  0  0  0  0
   12.3623    2.1062   -3.5453 H   0  0  0  0  0  0  0  0  0  0  0  0
    9.0013    0.3464    1.8053 H   0  0  0  0  0  0  0  0  0  0  0  0
    9.8155   -0.3928    3.2100 H   0  0  0  0  0  0  0  0  0  0  0  0
   11.2721    1.5952    4.8330 H   0  0  0  0  0  0  0  0  0  0  0  0
   13.5202    3.4704    4.6236 H   0  0  0  0  0  0  0  0  0  0  0  0
   16.7319   -0.0946    3.5140 H   0  0  0  0  0  0  0  0  0  0  0  0
   14.5164   -1.6791    2.6205 H   0  0  0  0  0  0  0  0  0  0  0  0
   10.5848   -2.6874    4.3115 H   0  0  0  0  0  0  0  0  0  0  0  0
   11.1350   -1.2588    5.2277 H   0  0  0  0  0  0  0  0  0  0  0  0
   12.3217   -2.4944    4.7543 H   0  0  0  0  0  0  0  0  0  0  0  0
  1  2  1  0  0  0  0
  1 50  1  0  0  0  0
  1 51  1  0  0  0  0
  2  3  2  0  0  0  0
  2  4  1  0  0  0  0
  4  5  1  0  0  0  0
  4 52  1  0  0  0  0
  4 53  1  0  0  0  0
  5  6  1  6  0  0  0
  5  7  1  0  0  0  0
  5 36  1  0  0  0  0
  7  8  2  0  0  0  0
  7  9  1  0  0  0  0
  9 54  1  0  0  0  0
 10 12  1  0  0  0  0
 10 33  1  0  0  0  0
 10 11  1  1  0  0  0
 10  9  1  0  0  0  0
 12 13  2  0  0  0  0
 12 14  1  0  0  0  0
 14 55  1  0  0  0  0
 15 17  1  0  0  0  0
 15 26  1  0  0  0  0
 15 16  1  6  0  0  0
 15 14  1  0  0  0  0
 17 18  1  1  0  0  0
 17 19  1  0  0  0  0
 17 25  1  0  0  0  0
 19 20  1  1  0  0  0
 19 21  1  0  0  0  0
 19 24  1  0  0  0  0
 21 22  1  0  0  0  0
 21 56  1  0  0  0  0
 22 23  2  0  0  0  0
 22 57  1  0  0  0  0
 23 24  1  0  0  0  0
 23 58  1  0  0  0  0
 25 59  1  0  0  0  0
 26 27  1  0  0  0  0
 26 60  1  0  0  0  0
 26 61  1  0  0  0  0
 27 28  1  0  0  0  0
 27 62  1  0  0  0  0
 27 63  1  0  0  0  0
 28 29  1  0  0  0  0
 28 64  1  0  0  0  0
 28 65  1  0  0  0  0
 29 30  1  0  0  0  0
 29 66  1  0  0  0  0
 30 31  2  0  0  0  0
 30 32  1  0  0  0  0
 31 67  1  0  0  0  0
 32 68  1  0  0  0  0
 32 69  1  0  0  0  0
 33 34  1  0  0  0  0
 33 35  1  0  0  0  0
 33 70  1  0  0  0  0
 34 71  1  0  0  0  0
 34 72  1  0  0  0  0
 34 73  1  0  0  0  0
 35 74  1  0  0  0  0
 35 75  1  0  0  0  0
 35 76  1  0  0  0  0
 36 37  1  0  0  0  0
 36 77  1  0  0  0  0
 37 38  2  0  0  0  0
 37 39  1  0  0  0  0
 39 40  1  0  0  0  0
 39 78  1  0  0  0  0
 40 41  1  6  0  0  0
 40 42  1  0  0  0  0
 40 49  1  0  0  0  0
 42 43  2  0  0  0  0
 42 47  1  0  0  0  0
 43 44  1  0  0  0  0
 43 79  1  0  0  0  0
 44 45  2  0  0  0  0
 44 80  1  0  0  0  0
 45 46  1  0  0  0  0
 45 48  1  0  0  0  0
 46 47  2  0  0  0  0
 46 81  1  0  0  0  0
 47 82  1  0  0  0  0
 49 83  1  0  0  0  0
 49 84  1  0  0  0  0
 49 85  1  0  0  0  0
M  END
$$$$
