BUL
 OpenBabel04121316093D

 64 65  0  0  1  0  0  0  0  0999 V2000
    7.0083   -1.3543   -5.6947 O   0  0  0  0  0  0  0  0  0  0  0  0
    6.7817   -2.5398   -4.9156 C   0  0  0  0  0  0  0  0  0  0  0  0
    7.4042   -2.3496   -3.5306 C   0  0  1  0  0  0  0  0  0  0  0  0
    7.5672   -3.3296   -3.0629 H   0  0  0  0  0  0  0  0  0  0  0  0
    8.6831   -1.5816   -3.6218 N   0  0  0  0  0  0  0  0  0  0  0  0
    8.8847   -0.9975   -2.2894 C   0  0  1  0  0  0  0  0  0  0  0  0
    9.4898   -0.0833   -2.3202 H   0  0  0  0  0  0  0  0  0  0  0  0
    7.4823   -0.6165   -1.8994 C   0  0  0  0  0  0  0  0  0  0  0  0
    6.4661   -1.4859   -2.6783 C   0  0  2  0  0  0  0  0  0  0  0  0
    5.8427   -0.8369   -3.3037 H   0  0  0  0  0  0  0  0  0  0  0  0
    5.5377   -2.3254   -1.9892 O   0  0  0  0  0  0  0  0  0  0  0  0
    4.6041   -1.7346   -1.0861 C   0  0  2  0  0  0  0  0  0  0  0  0
    4.2058   -2.5351   -0.4435 H   0  0  0  0  0  0  0  0  0  0  0  0
    3.5524   -1.1980   -1.8571 O   0  0  0  0  0  0  0  0  0  0  0  0
    2.5800   -0.4929   -1.0983 C   0  0  2  0  0  0  0  0  0  0  0  0
    2.1388   -1.1657   -0.3483 H   0  0  0  0  0  0  0  0  0  0  0  0
    1.5027   -0.1117   -2.1101 C   0  0  0  0  0  0  0  0  0  0  0  0
    0.4358    0.6060   -1.5191 O   0  0  0  0  0  0  0  0  0  0  0  0
    3.1828    0.7402   -0.3782 C   0  0  2  0  0  0  0  0  0  0  0  0
    3.6036    1.4295   -1.1245 H   0  0  0  0  0  0  0  0  0  0  0  0
    4.2882    0.2287    0.5472 C   0  0  1  0  0  0  0  0  0  0  0  0
    3.8728   -0.3080    1.4053 H   0  0  0  0  0  0  0  0  0  0  0  0
    5.2260   -0.6838   -0.1783 C   0  0  1  0  0  0  0  0  0  0  0  0
    5.7444    0.0501   -0.7915 H   0  0  0  0  0  0  0  0  0  0  0  0
    6.1028   -1.2319    0.8548 N   0  0  0  0  0  0  0  0  0  0  0  0
    6.7756   -2.4105    0.7205 C   0  0  0  0  0  0  0  0  0  0  0  0
    6.8274   -3.1520   -0.2458 O   0  0  0  0  0  0  0  0  0  0  0  0
    7.6608   -2.7028    1.8301 C   0  0  0  0  0  0  0  0  0  0  0  0
    5.2026    1.2554    1.0123 O   0  0  0  0  0  0  0  0  0  0  0  0
    2.1494    1.4061    0.3580 O   0  0  0  0  0  0  0  0  0  0  0  0
    2.5176    2.3045    1.6533 S   0  0  0  0  0  0  0  0  0  0  0  0
    2.8851    1.3993    2.7067 O   0  0  0  0  0  0  0  0  0  0  0  0
    3.4350    3.3557    1.2392 O   0  0  0  0  0  0  0  0  0  0  0  0
    1.1283    2.9528    2.0983 O   0  0  0  0  0  0  0  0  0  0  0  0
    9.6195   -1.9970   -1.3118 C   0  0  0  0  0  0  0  0  0  0  0  0
    9.9113   -3.1503   -1.6253 O   0  0  0  0  0  0  0  0  0  0  0  0
    9.9922   -1.5050   -0.0503 N   0  0  0  0  0  0  0  0  0  0  0  0
   10.6386   -2.4325    0.9266 C   0  0  0  0  0  0  0  0  0  0  0  0
   10.6437   -1.9192    2.3743 C   0  0  0  0  0  0  0  0  0  0  0  0
   11.2482   -3.1887    3.4710 S   0  0  0  0  0  0  0  0  0  0  0  0
   10.2304   -4.2084    3.6382 O   0  0  0  0  0  0  0  0  0  0  0  0
   12.6153   -3.4805    3.1401 O   0  0  0  0  0  0  0  0  0  0  0  0
   11.2161   -2.3135    4.8333 O   0  0  0  0  0  0  0  0  0  0  0  0
    6.7272   -1.5658   -6.5998 H   0  0  0  0  0  0  0  0  0  0  0  0
    7.2293   -3.3976   -5.4247 H   0  0  0  0  0  0  0  0  0  0  0  0
    5.6981   -2.6867   -4.8482 H   0  0  0  0  0  0  0  0  0  0  0  0
    8.4893   -0.8331   -4.2962 H   0  0  0  0  0  0  0  0  0  0  0  0
    7.2720    0.4256   -2.1835 H   0  0  0  0  0  0  0  0  0  0  0  0
    7.4799   -0.6569   -0.8266 H   0  0  0  0  0  0  0  0  0  0  0  0
    1.0984   -1.0145   -2.5826 H   0  0  0  0  0  0  0  0  0  0  0  0
    1.9440    0.4892   -2.9138 H   0  0  0  0  0  0  0  0  0  0  0  0
    0.1584    0.1144   -0.7286 H   0  0  0  0  0  0  0  0  0  0  0  0
    6.4282   -0.5436    1.5303 H   0  0  0  0  0  0  0  0  0  0  0  0
    7.6606   -1.9627    2.6223 H   0  0  0  0  0  0  0  0  0  0  0  0
    8.5567   -2.5800    1.2840 H   0  0  0  0  0  0  0  0  0  0  0  0
    7.6345   -3.7433    2.1314 H   0  0  0  0  0  0  0  0  0  0  0  0
    4.8014    1.8950    1.6202 H   0  0  0  0  0  0  0  0  0  0  0  0
    0.6404    2.2637    2.5926 H   0  0  0  0  0  0  0  0  0  0  0  0
    9.4745   -0.7060    0.2957 H   0  0  0  0  0  0  0  0  0  0  0  0
   11.6476   -2.6452    0.5748 H   0  0  0  0  0  0  0  0  0  0  0  0
   10.1424   -3.4172    0.8724 H   0  0  0  0  0  0  0  0  0  0  0  0
    9.6641   -1.6529    2.7798 H   0  0  0  0  0  0  0  0  0  0  0  0
   11.2540   -1.0231    2.4732 H   0  0  0  0  0  0  0  0  0  0  0  0
   10.3679   -2.4535    5.3061 H   0  0  0  0  0  0  0  0  0  0  0  0
  1  2  1  0  0  0  0
  1 44  1  0  0  0  0
  2  3  1  0  0  0  0
  2 45  1  0  0  0  0
  2 46  1  0  0  0  0
  3  4  1  1  0  0  0
  3  5  1  0  0  0  0
  3  9  1  0  0  0  0
  5  6  1  0  0  0  0
  5 47  1  0  0  0  0
  6  7  1  6  0  0  0
  6  8  1  0  0  0  0
  6 35  1  0  0  0  0
  8  9  1  0  0  0  0
  8 48  1  0  0  0  0
  8 49  1  0  0  0  0
  9 10  1  6  0  0  0
  9 11  1  0  0  0  0
 12 14  1  0  0  0  0
 12 23  1  0  0  0  0
 12 13  1  1  0  0  0
 12 11  1  0  0  0  0
 14 15  1  0  0  0  0
 15 16  1  1  0  0  0
 15 17  1  0  0  0  0
 15 19  1  0  0  0  0
 17 18  1  0  0  0  0
 17 50  1  0  0  0  0
 17 51  1  0  0  0  0
 18 52  1  0  0  0  0
 19 21  1  0  0  0  0
 19 30  1  0  0  0  0
 19 20  1  6  0  0  0
 21 22  1  1  0  0  0
 21 23  1  0  0  0  0
 21 29  1  0  0  0  0
 23 25  1  0  0  0  0
 23 24  1  6  0  0  0
 25 26  1  0  0  0  0
 25 53  1  0  0  0  0
 26 27  2  0  0  0  0
 26 28  1  0  0  0  0
 28 54  1  0  0  0  0
 28 55  1  0  0  0  0
 28 56  1  0  0  0  0
 29 57  1  0  0  0  0
 30 31  1  0  0  0  0
 31 32  2  0  0  0  0
 31 33  2  0  0  0  0
 31 34  1  0  0  0  0
 34 58  1  0  0  0  0
 35 36  2  0  0  0  0
 35 37  1  0  0  0  0
 37 38  1  0  0  0  0
 37 59  1  0  0  0  0
 38 39  1  0  0  0  0
 38 60  1  0  0  0  0
 38 61  1  0  0  0  0
 39 40  1  0  0  0  0
 39 62  1  0  0  0  0
 39 63  1  0  0  0  0
 40 41  2  0  0  0  0
 40 42  2  0  0  0  0
 40 43  1  0  0  0  0
 43 64  1  0  0  0  0
M  END
$$$$
