BVG
 OpenBabel04121316093D

 13 13  0  0  0  0  0  0  0  0999 V2000
    1.0201   -0.1129    0.0151 O   0  0  0  0  0  0  0  0  0  0  0  0
    2.4415   -0.0522   -0.0561 C   0  0  0  0  0  0  0  0  0  0  0  0
    2.8824   -1.2046   -0.8793 C   0  0  0  0  0  0  0  0  0  0  0  0
    3.5939   -1.1845   -1.9912 N   0  0  0  0  0  0  0  0  0  0  0  0
    3.6653   -2.4901   -2.4059 C   0  0  0  0  0  0  0  0  0  0  0  0
    3.0233   -3.3206   -1.5188 C   0  0  0  0  0  0  0  0  0  0  0  0
    2.5470   -2.4923   -0.5446 N   0  0  0  0  0  0  0  0  0  0  0  0
    1.9890   -2.7505    0.2593 H   0  0  0  0  0  0  0  0  0  0  0  0
    0.7289    0.7165    0.4286 H   0  0  0  0  0  0  0  0  0  0  0  0
    2.8381   -0.1239    0.9608 H   0  0  0  0  0  0  0  0  0  0  0  0
    2.7493    0.8975   -0.5033 H   0  0  0  0  0  0  0  0  0  0  0  0
    4.1654   -2.7623   -3.3261 H   0  0  0  0  0  0  0  0  0  0  0  0
    2.8542   -4.3868   -1.5052 H   0  0  0  0  0  0  0  0  0  0  0  0
  1  2  1  0  0  0  0
  1  9  1  0  0  0  0
  2  3  1  0  0  0  0
  2 10  1  0  0  0  0
  2 11  1  0  0  0  0
  3  4  2  0  0  0  0
  3  7  1  0  0  0  0
  4  5  1  0  0  0  0
  5  6  2  0  0  0  0
  5 12  1  0  0  0  0
  6  7  1  0  0  0  0
  6 13  1  0  0  0  0
  7  8  1  0  0  0  0
M  END
$$$$
