BVP
 OpenBabel04121316093D

 37 38  0  0  1  0  0  0  0  0999 V2000
    1.0268   -0.0702    0.0525 Br  0  0  0  0  0  0  0  0  0  0  0  0
    2.8788   -0.0777    0.1043 C   0  0  0  0  0  0  0  0  0  0  0  0
    3.6171    0.6207    0.9753 C   0  0  0  0  0  0  0  0  0  0  0  0
    5.0707    0.6404    0.9856 C   0  0  0  0  0  0  0  0  0  0  0  0
    5.7659    0.9395    2.0958 C   0  0  0  0  0  0  0  0  0  0  0  0
    7.1371    1.1401    2.0982 N   0  0  0  0  0  0  0  0  0  0  0  0
    7.7996    1.7427    3.2559 C   0  0  1  0  0  0  0  0  0  0  0  0
    8.8871    1.6270    3.1780 H   0  0  0  0  0  0  0  0  0  0  0  0
    7.4409    3.2141    3.4334 C   0  0  0  0  0  0  0  0  0  0  0  0
    7.7263    3.4304    4.8951 C   0  0  1  0  0  0  0  0  0  0  0  0
    7.1927    4.2933    5.3008 H   0  0  0  0  0  0  0  0  0  0  0  0
    7.3385    2.0957    5.5151 C   0  0  2  0  0  0  0  0  0  0  0  0
    8.0330    1.7945    6.3079 H   0  0  0  0  0  0  0  0  0  0  0  0
    7.3912    1.0900    4.4705 O   0  0  0  0  0  0  0  0  0  0  0  0
    5.9305    2.1136    6.0723 C   0  0  0  0  0  0  0  0  0  0  0  0
    5.5552    3.4015    6.5909 O   0  0  0  0  0  0  0  0  0  0  0  0
    3.9443    3.4539    7.2195 P   0  0  0  0  0  0  0  0  0  0  0  0
    3.7453    1.9443    7.1616 O   0  0  0  0  0  0  0  0  0  0  0  0
    4.5354    3.8859    8.6656 O   0  0  0  0  0  0  0  0  0  0  0  0
    2.3334    3.5064    7.8481 O   0  0  0  0  0  0  0  0  0  0  0  0
    9.1144    3.6640    5.0992 O   0  0  0  0  0  0  0  0  0  0  0  0
    7.8944    0.9470    0.9502 C   0  0  0  0  0  0  0  0  0  0  0  0
    9.0755    1.2566    0.8329 O   0  0  0  0  0  0  0  0  0  0  0  0
    7.2213    0.4049   -0.1109 N   0  0  0  0  0  0  0  0  0  0  0  0
    7.7529    0.2795   -0.9584 H   0  0  0  0  0  0  0  0  0  0  0  0
    5.8698    0.4274   -0.2594 C   0  0  0  0  0  0  0  0  0  0  0  0
    5.3595    0.2982   -1.3734 O   0  0  0  0  0  0  0  0  0  0  0  0
    3.3110   -0.7179   -0.6570 H   0  0  0  0  0  0  0  0  0  0  0  0
    3.1141    1.2355    1.7198 H   0  0  0  0  0  0  0  0  0  0  0  0
    5.2648    1.0739    3.0498 H   0  0  0  0  0  0  0  0  0  0  0  0
    6.3712    3.3769    3.2490 H   0  0  0  0  0  0  0  0  0  0  0  0
    8.0114    3.8687    2.7715 H   0  0  0  0  0  0  0  0  0  0  0  0
    5.2096    1.8214    5.2988 H   0  0  0  0  0  0  0  0  0  0  0  0
    5.8921    1.3682    6.8780 H   0  0  0  0  0  0  0  0  0  0  0  0
    5.5076    3.9062    8.6516 H   0  0  0  0  0  0  0  0  0  0  0  0
    1.7252    3.1811    7.1627 H   0  0  0  0  0  0  0  0  0  0  0  0
    9.3035    4.5674    4.7925 H   0  0  0  0  0  0  0  0  0  0  0  0
  1  2  1  0  0  0  0
  2  3  2  0  0  0  0
  2 28  1  0  0  0  0
  3  4  1  0  0  0  0
  3 29  1  0  0  0  0
  4  5  2  0  0  0  0
  4 26  1  0  0  0  0
  5  6  1  0  0  0  0
  5 30  1  0  0  0  0
  6  7  1  0  0  0  0
  6 22  1  0  0  0  0
  7  8  1  6  0  0  0
  7  9  1  0  0  0  0
  7 14  1  0  0  0  0
  9 10  1  0  0  0  0
  9 31  1  0  0  0  0
  9 32  1  0  0  0  0
 10 11  1  1  0  0  0
 10 12  1  0  0  0  0
 10 21  1  0  0  0  0
 12 14  1  0  0  0  0
 12 15  1  0  0  0  0
 12 13  1  1  0  0  0
 15 16  1  0  0  0  0
 15 33  1  0  0  0  0
 15 34  1  0  0  0  0
 16 17  1  0  0  0  0
 17 18  2  0  0  0  0
 17 19  1  0  0  0  0
 17 20  1  0  0  0  0
 19 35  1  0  0  0  0
 20 36  1  0  0  0  0
 21 37  1  0  0  0  0
 22 23  2  0  0  0  0
 22 24  1  0  0  0  0
 24 25  1  0  0  0  0
 24 26  1  0  0  0  0
 26 27  2  0  0  0  0
M  END
$$$$
