BYC
 OpenBabel04121316093D

 96 99  0  0  1  0  0  0  0  0999 V2000
    9.0808    0.6859    6.2722 O   0  0  0  0  0  0  0  0  0  0  0  0
    9.1244    0.4418    5.0665 C   0  0  0  0  0  0  0  0  0  0  0  0
    8.7097    1.3416    4.1013 N   0  0  0  0  0  0  0  0  0  0  0  0
    8.1980    2.6252    4.5042 C   0  0  0  0  0  0  0  0  0  0  0  0
    7.7686    3.5121    3.3337 C   0  0  0  0  0  0  0  0  0  0  0  0
    7.1655    5.0791    4.0411 S   0  0  0  0  0  0  0  0  0  0  0  0
    6.7539    5.9715    2.5882 C   0  0  0  0  0  0  0  0  0  0  0  0
    6.9268    5.5424    1.4768 O   0  0  0  0  0  0  0  0  0  0  0  0
    6.2106    7.3409    2.8121 C   0  0  0  0  0  0  0  0  0  0  0  0
    4.9865    7.5421    3.4591 C   0  0  0  0  0  0  0  0  0  0  0  0
    4.3862    8.8042    3.4160 C   0  0  0  0  0  0  0  0  0  0  0  0
    5.0608    9.8817    2.8404 C   0  0  0  0  0  0  0  0  0  0  0  0
    6.3432    9.7059    2.3221 C   0  0  0  0  0  0  0  0  0  0  0  0
    6.8954    8.4249    2.2537 C   0  0  0  0  0  0  0  0  0  0  0  0
    9.6595   -0.8777    4.6179 C   0  0  0  0  0  0  0  0  0  0  0  0
    9.6660   -0.9581    3.1505 C   0  0  0  0  0  0  0  0  0  0  0  0
   10.2347   -2.1947    2.7789 N   0  0  0  0  0  0  0  0  0  0  0  0
   10.5017   -2.4805    1.5103 C   0  0  0  0  0  0  0  0  0  0  0  0
   10.6826   -1.5762    0.6803 O   0  0  0  0  0  0  0  0  0  0  0  0
   10.5854   -3.9890    1.2382 C   0  0  1  0  0  0  0  0  0  0  0  0
   11.5442   -4.2880    1.6184 H   0  0  0  0  0  0  0  0  0  0  0  0
    9.5277   -5.0708    1.4254 C   0  0  0  0  0  0  0  0  0  0  0  0
    8.1708   -4.7829    0.7645 C   0  0  0  0  0  0  0  0  0  0  0  0
    7.7166   -3.4991    1.1161 O   0  0  0  0  0  0  0  0  0  0  0  0
    6.0725   -3.2622    0.6324 P   0  0  1  0  0  0  0  0  0  0  0  0
    5.7598   -2.4108    1.8632 O   0  0  0  0  0  0  0  0  0  0  0  0
    6.6854   -2.3861   -0.6262 O   0  0  0  0  0  0  0  0  0  0  0  0
    8.1418   -1.5725   -0.8019 P   0  0  2  0  0  0  0  0  0  0  0  0
    8.1358   -1.6607   -2.3436 O   0  0  0  0  0  0  0  0  0  0  0  0
    9.3486   -2.6985   -0.9599 O   0  0  0  0  0  0  0  0  0  0  0  0
   10.1438   -2.7967   -2.2649 C   0  0  0  0  0  0  0  0  0  0  0  0
   11.5610   -3.5910   -2.2551 C   0  0  1  0  0  0  0  0  0  0  0  0
   12.0366   -3.4438   -3.2322 H   0  0  0  0  0  0  0  0  0  0  0  0
   12.5268   -3.1543   -1.2207 O   0  0  0  0  0  0  0  0  0  0  0  0
   13.3092   -4.3521   -0.8102 C   0  0  2  0  0  0  0  0  0  0  0  0
   14.2321   -4.3119   -1.3882 H   0  0  0  0  0  0  0  0  0  0  0  0
   12.4880   -5.5881   -1.1561 C   0  0  1  0  0  0  0  0  0  0  0  0
   12.0714   -6.0471   -0.2697 H   0  0  0  0  0  0  0  0  0  0  0  0
   11.3345   -5.0795   -1.9865 C   0  0  2  0  0  0  0  0  0  0  0  0
   10.3534   -5.2679   -1.5573 H   0  0  0  0  0  0  0  0  0  0  0  0
   11.1826   -5.8332   -3.0899 O   0  0  0  0  0  0  0  0  0  0  0  0
    9.8792   -5.3088   -4.0993 P   0  0  0  0  0  0  0  0  0  0  0  0
   10.6801   -5.6539   -5.3429 O   0  0  0  0  0  0  0  0  0  0  0  0
    9.0099   -6.5691   -3.5644 O   0  0  0  0  0  0  0  0  0  0  0  0
    8.5757   -4.7844   -5.1087 O   0  0  0  0  0  0  0  0  0  0  0  0
   13.2834   -6.6110   -1.7490 O   0  0  0  0  0  0  0  0  0  0  0  0
   13.7506   -4.3719    0.6072 N   0  0  0  0  0  0  0  0  0  0  0  0
   13.9382   -3.2909    1.4327 C   0  0  0  0  0  0  0  0  0  0  0  0
   14.3674   -3.6347    2.6327 N   0  0  0  0  0  0  0  0  0  0  0  0
   14.4889   -5.0079    2.6016 C   0  0  0  0  0  0  0  0  0  0  0  0
   14.0900   -5.4963    1.3636 C   0  0  0  0  0  0  0  0  0  0  0  0
   14.0433   -6.7993    1.0101 N   0  0  0  0  0  0  0  0  0  0  0  0
   14.4459   -7.6064    2.0220 C   0  0  0  0  0  0  0  0  0  0  0  0
   14.8837   -7.2597    3.2490 N   0  0  0  0  0  0  0  0  0  0  0  0
   14.9213   -5.9467    3.5666 C   0  0  0  0  0  0  0  0  0  0  0  0
   15.3649   -5.5971    4.8247 N   0  0  0  0  0  0  0  0  0  0  0  0
    8.1485   -1.4736    0.9253 O   0  0  0  0  0  0  0  0  0  0  0  0
    4.4285   -3.0253    0.1486 O   0  0  0  0  0  0  0  0  0  0  0  0
    9.9486   -6.4618    0.8620 C   0  0  0  0  0  0  0  0  0  0  0  0
    9.5046   -5.1766    2.9203 C   0  0  0  0  0  0  0  0  0  0  0  0
   10.7474   -4.0542   -0.0870 O   0  0  0  0  0  0  0  0  0  0  0  0
    8.6441    1.1171    3.1179 H   0  0  0  0  0  0  0  0  0  0  0  0
    9.0021    3.0975    5.0784 H   0  0  0  0  0  0  0  0  0  0  0  0
    7.3558    2.4245    5.1745 H   0  0  0  0  0  0  0  0  0  0  0  0
    6.9781    3.0195    2.7541 H   0  0  0  0  0  0  0  0  0  0  0  0
    8.6152    3.6804    2.6561 H   0  0  0  0  0  0  0  0  0  0  0  0
    4.4722    6.7251    3.9585 H   0  0  0  0  0  0  0  0  0  0  0  0
    3.3852    8.9478    3.8167 H   0  0  0  0  0  0  0  0  0  0  0  0
    4.5852   10.8593    2.7927 H   0  0  0  0  0  0  0  0  0  0  0  0
    6.8980   10.5611    1.9443 H   0  0  0  0  0  0  0  0  0  0  0  0
    7.8513    8.2758    1.7583 H   0  0  0  0  0  0  0  0  0  0  0  0
    9.0226   -1.6901    4.9942 H   0  0  0  0  0  0  0  0  0  0  0  0
   10.6804   -1.0360    4.9721 H   0  0  0  0  0  0  0  0  0  0  0  0
   10.1945   -0.1479    2.6298 H   0  0  0  0  0  0  0  0  0  0  0  0
    8.6105   -0.9317    2.8655 H   0  0  0  0  0  0  0  0  0  0  0  0
   10.4263   -2.9078    3.4604 H   0  0  0  0  0  0  0  0  0  0  0  0
    7.4359   -5.5296    1.0872 H   0  0  0  0  0  0  0  0  0  0  0  0
    8.1931   -4.8392   -0.3352 H   0  0  0  0  0  0  0  0  0  0  0  0
   10.3216   -1.7996   -2.6841 H   0  0  0  0  0  0  0  0  0  0  0  0
    9.4537   -3.3311   -2.9247 H   0  0  0  0  0  0  0  0  0  0  0  0
    9.6170   -7.2775   -3.2790 H   0  0  0  0  0  0  0  0  0  0  0  0
    8.8657   -4.0128   -5.6256 H   0  0  0  0  0  0  0  0  0  0  0  0
   13.8234   -6.9697   -1.0129 H   0  0  0  0  0  0  0  0  0  0  0  0
   13.7190   -2.2781    1.1220 H   0  0  0  0  0  0  0  0  0  0  0  0
   14.4186   -8.6774    1.8264 H   0  0  0  0  0  0  0  0  0  0  0  0
   15.7498   -6.3173    5.4180 H   0  0  0  0  0  0  0  0  0  0  0  0
   15.4833   -4.6184    5.0439 H   0  0  0  0  0  0  0  0  0  0  0  0
    8.8992   -0.8564    1.0163 H   0  0  0  0  0  0  0  0  0  0  0  0
    3.8879   -3.1295    0.9540 H   0  0  0  0  0  0  0  0  0  0  0  0
    9.9064   -6.5437   -0.2294 H   0  0  0  0  0  0  0  0  0  0  0  0
    9.2779   -7.2521    1.2029 H   0  0  0  0  0  0  0  0  0  0  0  0
   10.9558   -6.7209    1.1931 H   0  0  0  0  0  0  0  0  0  0  0  0
    9.0384   -4.2906    3.3447 H   0  0  0  0  0  0  0  0  0  0  0  0
   10.5491   -5.2387    3.2645 H   0  0  0  0  0  0  0  0  0  0  0  0
    8.9740   -6.0589    3.2496 H   0  0  0  0  0  0  0  0  0  0  0  0
   10.7542   -3.1080   -0.3593 H   0  0  0  0  0  0  0  0  0  0  0  0
  1  2  2  0  0  0  0
  2  3  1  0  0  0  0
  2 15  1  0  0  0  0
  3  4  1  0  0  0  0
  3 62  1  0  0  0  0
  4  5  1  0  0  0  0
  4 63  1  0  0  0  0
  4 64  1  0  0  0  0
  5  6  1  0  0  0  0
  5 65  1  0  0  0  0
  5 66  1  0  0  0  0
  6  7  1  0  0  0  0
  7  8  2  0  0  0  0
  7  9  1  0  0  0  0
  9 10  2  0  0  0  0
  9 14  1  0  0  0  0
 10 11  1  0  0  0  0
 10 67  1  0  0  0  0
 11 12  2  0  0  0  0
 11 68  1  0  0  0  0
 12 13  1  0  0  0  0
 12 69  1  0  0  0  0
 13 14  2  0  0  0  0
 13 70  1  0  0  0  0
 14 71  1  0  0  0  0
 15 16  1  0  0  0  0
 15 72  1  0  0  0  0
 15 73  1  0  0  0  0
 16 17  1  0  0  0  0
 16 74  1  0  0  0  0
 16 75  1  0  0  0  0
 17 18  1  0  0  0  0
 17 76  1  0  0  0  0
 18 19  2  0  0  0  0
 18 20  1  0  0  0  0
 20 21  1  1  0  0  0
 20 22  1  0  0  0  0
 20 61  1  0  0  0  0
 22 23  1  0  0  0  0
 22 59  1  0  0  0  0
 22 60  1  0  0  0  0
 23 24  1  0  0  0  0
 23 77  1  0  0  0  0
 23 78  1  0  0  0  0
 25 24  1  1  0  0  0
 25 26  2  0  0  0  0
 25 27  1  0  0  0  0
 25 58  1  0  0  0  0
 28 30  1  1  0  0  0
 28 57  1  0  0  0  0
 28 29  2  0  0  0  0
 28 27  1  0  0  0  0
 30 31  1  0  0  0  0
 31 32  1  0  0  0  0
 31 79  1  0  0  0  0
 31 80  1  0  0  0  0
 32 33  1  6  0  0  0
 32 34  1  0  0  0  0
 32 39  1  0  0  0  0
 34 35  1  0  0  0  0
 35 37  1  0  0  0  0
 35 47  1  0  0  0  0
 35 36  1  6  0  0  0
 37 38  1  1  0  0  0
 37 39  1  0  0  0  0
 37 46  1  0  0  0  0
 39 40  1  1  0  0  0
 39 41  1  0  0  0  0
 41 42  1  0  0  0  0
 42 43  2  0  0  0  0
 42 44  1  0  0  0  0
 42 45  1  0  0  0  0
 44 81  1  0  0  0  0
 45 82  1  0  0  0  0
 46 83  1  0  0  0  0
 47 48  1  0  0  0  0
 47 51  1  0  0  0  0
 48 49  2  0  0  0  0
 48 84  1  0  0  0  0
 49 50  1  0  0  0  0
 50 51  2  0  0  0  0
 50 55  1  0  0  0  0
 51 52  1  0  0  0  0
 52 53  2  0  0  0  0
 53 54  1  0  0  0  0
 53 85  1  0  0  0  0
 54 55  2  0  0  0  0
 55 56  1  0  0  0  0
 56 86  1  0  0  0  0
 56 87  1  0  0  0  0
 57 88  1  0  0  0  0
 58 89  1  0  0  0  0
 59 90  1  0  0  0  0
 59 91  1  0  0  0  0
 59 92  1  0  0  0  0
 60 93  1  0  0  0  0
 60 94  1  0  0  0  0
 60 95  1  0  0  0  0
 61 96  1  0  0  0  0
M  END
$$$$
