BYS
 OpenBabel04121316093D

 43 45  0  0  1  0  0  0  0  0999 V2000
    2.7328   -2.5264   -0.7968 O   0  0  0  0  0  0  0  0  0  0  0  0
    2.7528   -1.6342   -1.7958 C   0  0  0  0  0  0  0  0  0  0  0  0
    2.2856   -1.9547   -2.8728 O   0  0  0  0  0  0  0  0  0  0  0  0
    3.2346   -0.2694   -1.3731 C   0  0  2  0  0  0  0  0  0  0  0  0
    2.7114   -0.0613   -0.4226 H   0  0  0  0  0  0  0  0  0  0  0  0
    2.6955    0.7853   -2.3749 C   0  0  1  0  0  0  0  0  0  0  0  0
    2.9948    1.7727   -1.9805 H   0  0  0  0  0  0  0  0  0  0  0  0
    3.2799    0.6294   -3.7784 C   0  0  0  0  0  0  0  0  0  0  0  0
    2.8391   -0.0125   -4.7306 O   0  0  0  0  0  0  0  0  0  0  0  0
    4.3617    1.3917   -3.9123 O   0  0  0  0  0  0  0  0  0  0  0  0
    1.1539    0.8411   -2.5371 C   0  0  0  0  0  0  0  0  0  0  0  0
    0.7900    1.9261   -3.5366 C   0  0  0  0  0  0  0  0  0  0  0  0
    0.6386    1.5934   -4.8953 C   0  0  0  0  0  0  0  0  0  0  0  0
    0.7844    2.5670   -5.8777 C   0  0  0  0  0  0  0  0  0  0  0  0
    0.8637    3.9025   -5.5064 C   0  0  0  0  0  0  0  0  0  0  0  0
    0.8186    4.2549   -4.1566 C   0  0  0  0  0  0  0  0  0  0  0  0
    0.8602    3.2698   -3.1720 C   0  0  0  0  0  0  0  0  0  0  0  0
    4.7744   -0.2193   -1.0262 C   0  0  0  0  0  0  0  0  0  0  0  0
    5.7783   -0.4713   -2.1534 C   0  0  0  0  0  0  0  0  0  0  0  0
    5.8079   -1.7194   -2.8029 C   0  0  0  0  0  0  0  0  0  0  0  0
    6.4190   -1.8698   -4.0662 C   0  0  0  0  0  0  0  0  0  0  0  0
    6.9663   -0.7550   -4.6793 C   0  0  0  0  0  0  0  0  0  0  0  0
    7.0118    0.4391   -4.0117 C   0  0  0  0  0  0  0  0  0  0  0  0
    6.5387    0.5814   -2.7123 C   0  0  0  0  0  0  0  0  0  0  0  0
    7.3645    1.4833   -4.8204 O   0  0  0  0  0  0  0  0  0  0  0  0
    7.7342    0.7802   -6.0226 C   0  0  0  0  0  0  0  0  0  0  0  0
    7.4442   -0.6394   -5.9526 O   0  0  0  0  0  0  0  0  0  0  0  0
    2.1962   -3.2487   -1.1957 H   0  0  0  0  0  0  0  0  0  0  0  0
    4.6709    1.5760   -3.0113 H   0  0  0  0  0  0  0  0  0  0  0  0
    0.6669    1.0329   -1.5747 H   0  0  0  0  0  0  0  0  0  0  0  0
    0.7673   -0.1116   -2.9073 H   0  0  0  0  0  0  0  0  0  0  0  0
    0.5797    0.5496   -5.2069 H   0  0  0  0  0  0  0  0  0  0  0  0
    0.8794    2.2711   -6.9202 H   0  0  0  0  0  0  0  0  0  0  0  0
    0.9698    4.6660   -6.2706 H   0  0  0  0  0  0  0  0  0  0  0  0
    0.7977    5.3010   -3.8713 H   0  0  0  0  0  0  0  0  0  0  0  0
    1.0021    3.5496   -2.1322 H   0  0  0  0  0  0  0  0  0  0  0  0
    4.9795   -0.9385   -0.2201 H   0  0  0  0  0  0  0  0  0  0  0  0
    4.9872    0.7670   -0.5857 H   0  0  0  0  0  0  0  0  0  0  0  0
    5.2830   -2.5687   -2.3671 H   0  0  0  0  0  0  0  0  0  0  0  0
    6.3727   -2.8315   -4.5661 H   0  0  0  0  0  0  0  0  0  0  0  0
    6.5369    1.5869   -2.2989 H   0  0  0  0  0  0  0  0  0  0  0  0
    8.8123    0.9365   -6.1492 H   0  0  0  0  0  0  0  0  0  0  0  0
    7.2414    1.2202   -6.9042 H   0  0  0  0  0  0  0  0  0  0  0  0
  1  2  1  0  0  0  0
  1 28  1  0  0  0  0
  2  3  2  0  0  0  0
  4  6  1  0  0  0  0
  4 18  1  0  0  0  0
  4  5  1  1  0  0  0
  4  2  1  0  0  0  0
  6  7  1  1  0  0  0
  6  8  1  0  0  0  0
  6 11  1  0  0  0  0
  8  9  2  0  0  0  0
  8 10  1  0  0  0  0
 10 29  1  0  0  0  0
 11 12  1  0  0  0  0
 11 30  1  0  0  0  0
 11 31  1  0  0  0  0
 12 13  2  0  0  0  0
 12 17  1  0  0  0  0
 13 14  1  0  0  0  0
 13 32  1  0  0  0  0
 14 15  2  0  0  0  0
 14 33  1  0  0  0  0
 15 16  1  0  0  0  0
 15 34  1  0  0  0  0
 16 17  2  0  0  0  0
 16 35  1  0  0  0  0
 17 36  1  0  0  0  0
 18 19  1  0  0  0  0
 18 37  1  0  0  0  0
 18 38  1  0  0  0  0
 19 20  2  0  0  0  0
 19 24  1  0  0  0  0
 20 21  1  0  0  0  0
 20 39  1  0  0  0  0
 21 22  2  0  0  0  0
 21 40  1  0  0  0  0
 22 23  1  0  0  0  0
 22 27  1  0  0  0  0
 23 24  2  0  0  0  0
 23 25  1  0  0  0  0
 24 41  1  0  0  0  0
 25 26  1  0  0  0  0
 26 27  1  0  0  0  0
 26 42  1  0  0  0  0
 26 43  1  0  0  0  0
M  END
$$$$
