BZ3
 OpenBabel04121316093D

 20 21  0  0  0  0  0  0  0  0999 V2000
    1.0340    0.1060   -0.0230 C   0  0  0  0  0  0  0  0  0  0  0  0
    2.4600    0.1442   -0.0416 O   0  0  0  0  0  0  0  0  0  0  0  0
    3.0043   -0.6932    0.8977 C   0  0  0  0  0  0  0  0  0  0  0  0
    2.7535   -2.0646    0.8969 C   0  0  0  0  0  0  0  0  0  0  0  0
    3.3410   -2.9048    1.8478 C   0  0  0  0  0  0  0  0  0  0  0  0
    4.2277   -2.3206    2.7597 C   0  0  0  0  0  0  0  0  0  0  0  0
    4.5201   -0.9575    2.7612 C   0  0  0  0  0  0  0  0  0  0  0  0
    3.8956   -0.1256    1.8126 C   0  0  0  0  0  0  0  0  0  0  0  0
    5.4772   -0.7364    3.7897 C   0  0  0  0  0  0  0  0  0  0  0  0
    5.8239   -1.9629    4.3028 C   0  0  0  0  0  0  0  0  0  0  0  0
    4.9741   -2.8960    3.7654 N   0  0  0  0  0  0  0  0  0  0  0  0
    4.9388   -3.8692    4.0214 H   0  0  0  0  0  0  0  0  0  0  0  0
    0.6703    0.8014   -0.7850 H   0  0  0  0  0  0  0  0  0  0  0  0
    0.6526    0.4338    0.9501 H   0  0  0  0  0  0  0  0  0  0  0  0
    0.6432   -0.8854   -0.2720 H   0  0  0  0  0  0  0  0  0  0  0  0
    2.1141   -2.5047    0.1372 H   0  0  0  0  0  0  0  0  0  0  0  0
    3.1399   -3.9702    1.8472 H   0  0  0  0  0  0  0  0  0  0  0  0
    4.1199    0.9354    1.7766 H   0  0  0  0  0  0  0  0  0  0  0  0
    5.9140    0.2142    4.0679 H   0  0  0  0  0  0  0  0  0  0  0  0
    6.5837   -2.2523    5.0176 H   0  0  0  0  0  0  0  0  0  0  0  0
  1  2  1  0  0  0  0
  1 13  1  0  0  0  0
  1 14  1  0  0  0  0
  1 15  1  0  0  0  0
  2  3  1  0  0  0  0
  3  4  2  0  0  0  0
  3  8  1  0  0  0  0
  4  5  1  0  0  0  0
  4 16  1  0  0  0  0
  5  6  2  0  0  0  0
  5 17  1  0  0  0  0
  6  7  1  0  0  0  0
  6 11  1  0  0  0  0
  7  8  2  0  0  0  0
  7  9  1  0  0  0  0
  8 18  1  0  0  0  0
  9 10  2  0  0  0  0
  9 19  1  0  0  0  0
 10 11  1  0  0  0  0
 10 20  1  0  0  0  0
 11 12  1  0  0  0  0
M  END
$$$$
