BZ9
 OpenBabel04121316093D

 59 64  0  0  0  0  0  0  0  0999 V2000
    0.7221   -0.2089    1.0754 C   0  0  0  0  0  0  0  0  0  0  0  0
    1.9320   -0.7688    0.3967 N   0  0  0  0  0  0  0  0  0  0  0  0
    2.6253   -1.4772   -1.2578 C   0  0  0  0  0  0  0  0  0  0  0  0
    4.0471   -1.2115   -1.8151 N   0  0  0  0  0  0  0  0  0  0  0  0
    4.9679   -2.1301   -2.1004 C   0  0  0  0  0  0  0  0  0  0  0  0
    4.4990   -3.3739   -1.9535 C   0  0  0  0  0  0  0  0  0  0  0  0
    3.0452   -3.5210   -2.0821 C   0  0  0  0  0  0  0  0  0  0  0  0
    2.1935   -2.4800   -2.0519 N   0  0  0  0  0  0  0  0  0  0  0  0
    2.2417   -4.8118   -1.7218 C   0  0  0  0  0  0  0  0  0  0  0  0
    2.9567   -6.0290   -1.6607 C   0  0  0  0  0  0  0  0  0  0  0  0
    2.4719   -7.1608   -1.0025 C   0  0  0  0  0  0  0  0  0  0  0  0
    1.1296   -7.1822   -0.7373 C   0  0  0  0  0  0  0  0  0  0  0  0
    0.3937   -6.0649   -0.6687 N   0  0  0  0  0  0  0  0  0  0  0  0
    0.9971   -4.8806   -1.0037 C   0  0  0  0  0  0  0  0  0  0  0  0
    0.4068   -3.8749   -0.2576 O   0  0  0  0  0  0  0  0  0  0  0  0
    1.0918   -2.6815   -0.0822 C   0  0  0  0  0  0  0  0  0  0  0  0
    2.7144   -2.6556    0.6050 C   0  0  0  0  0  0  0  0  0  0  0  0
    3.3900   -3.9944    0.6595 C   0  0  0  0  0  0  0  0  0  0  0  0
    3.7304   -1.1707    0.3975 C   0  0  0  0  0  0  0  0  0  0  0  0
    3.0428    0.2702   -0.6275 C   0  0  0  0  0  0  0  0  0  0  0  0
    1.2942    0.2189   -1.2466 C   0  0  0  0  0  0  0  0  0  0  0  0
    0.3429   -1.3561   -0.9428 C   0  0  0  0  0  0  0  0  0  0  0  0
   -1.0746   -1.3760   -0.6266 C   0  0  0  0  0  0  0  0  0  0  0  0
   -1.7519   -0.0970   -0.5362 C   0  0  0  0  0  0  0  0  0  0  0  0
   -1.0489    1.2148   -0.8498 C   0  0  0  0  0  0  0  0  0  0  0  0
    0.4328    1.3883   -1.1196 C   0  0  0  0  0  0  0  0  0  0  0  0
    3.6529    1.5143   -0.5411 N   0  0  0  0  0  0  0  0  0  0  0  0
    4.8974    1.2625   -0.1972 C   0  0  0  0  0  0  0  0  0  0  0  0
    5.5761    0.1499   -0.0718 N   0  0  0  0  0  0  0  0  0  0  0  0
    6.8477    0.4188   -0.2628 C   0  0  0  0  0  0  0  0  0  0  0  0
    6.9372    1.7921   -0.3125 C   0  0  0  0  0  0  0  0  0  0  0  0
    5.6931    2.3025   -0.2098 N   0  0  0  0  0  0  0  0  0  0  0  0
    5.2971    3.2142   -0.3037 H   0  0  0  0  0  0  0  0  0  0  0  0
    8.1134    2.4451   -0.4216 C   0  0  0  0  0  0  0  0  0  0  0  0
    9.2363    1.6362   -0.4715 C   0  0  0  0  0  0  0  0  0  0  0  0
    9.1736    0.2366   -0.4704 C   0  0  0  0  0  0  0  0  0  0  0  0
    7.9547   -0.4208   -0.3808 C   0  0  0  0  0  0  0  0  0  0  0  0
    0.7420    0.8160    1.4622 H   0  0  0  0  0  0  0  0  0  0  0  0
    0.3308   -1.0057    1.6302 H   0  0  0  0  0  0  0  0  0  0  0  0
    0.0593    0.0284    0.3523 H   0  0  0  0  0  0  0  0  0  0  0  0
    2.5286    0.0183    0.9226 H   0  0  0  0  0  0  0  0  0  0  0  0
    5.9743   -1.9119   -2.4728 H   0  0  0  0  0  0  0  0  0  0  0  0
    5.2115   -4.0888   -1.5169 H   0  0  0  0  0  0  0  0  0  0  0  0
    3.9967   -6.0254   -1.9587 H   0  0  0  0  0  0  0  0  0  0  0  0
    3.1054   -8.0048   -0.7437 H   0  0  0  0  0  0  0  0  0  0  0  0
    0.5994   -8.1205   -0.6172 H   0  0  0  0  0  0  0  0  0  0  0  0
    2.6788   -4.7929    0.8345 H   0  0  0  0  0  0  0  0  0  0  0  0
    4.3514   -3.9060    1.1099 H   0  0  0  0  0  0  0  0  0  0  0  0
    3.7883   -4.4035   -0.2488 H   0  0  0  0  0  0  0  0  0  0  0  0
    4.7693   -1.4966    0.5831 H   0  0  0  0  0  0  0  0  0  0  0  0
   -1.4927   -2.2333   -0.0007 H   0  0  0  0  0  0  0  0  0  0  0  0
   -2.7813   -0.0974   -0.1292 H   0  0  0  0  0  0  0  0  0  0  0  0
   -1.6567    2.1277   -0.9024 H   0  0  0  0  0  0  0  0  0  0  0  0
    0.8912    2.1040   -0.3269 H   0  0  0  0  0  0  0  0  0  0  0  0
    3.0157    2.1527   -0.0918 H   0  0  0  0  0  0  0  0  0  0  0  0
    8.1113    3.5156   -0.4203 H   0  0  0  0  0  0  0  0  0  0  0  0
   10.1893    2.1373   -0.5088 H   0  0  0  0  0  0  0  0  0  0  0  0
   10.0916   -0.3373   -0.5193 H   0  0  0  0  0  0  0  0  0  0  0  0
    7.8940   -1.5067   -0.3745 H   0  0  0  0  0  0  0  0  0  0  0  0
  1  2  1  0  0  0  0
  1 38  1  0  0  0  0
  1 39  1  0  0  0  0
  1 40  1  0  0  0  0
  2  3  1  0  0  0  0
  2 41  1  0  0  0  0
  3  4  2  0  0  0  0
  3  8  1  0  0  0  0
  4  5  1  0  0  0  0
  5  6  2  0  0  0  0
  5 42  1  0  0  0  0
  6  7  1  0  0  0  0
  6 43  1  0  0  0  0
  7  8  2  0  0  0  0
  7  9  1  0  0  0  0
  9 10  2  0  0  0  0
  9 14  1  0  0  0  0
 10 11  1  0  0  0  0
 10 44  1  0  0  0  0
 11 12  2  0  0  0  0
 11 45  1  0  0  0  0
 12 13  1  0  0  0  0
 12 46  1  0  0  0  0
 13 14  2  0  0  0  0
 14 15  1  0  0  0  0
 15 16  1  0  0  0  0
 16 17  2  0  0  0  0
 16 22  1  0  0  0  0
 17 18  1  0  0  0  0
 17 19  1  0  0  0  0
 18 47  1  0  0  0  0
 18 48  1  0  0  0  0
 18 49  1  0  0  0  0
 19 20  2  0  0  0  0
 19 50  1  0  0  0  0
 20 21  1  0  0  0  0
 20 27  1  0  0  0  0
 21 22  2  0  0  0  0
 21 26  1  0  0  0  0
 22 23  1  0  0  0  0
 23 24  2  0  0  0  0
 23 51  1  0  0  0  0
 24 25  1  0  0  0  0
 24 52  1  0  0  0  0
 25 26  2  0  0  0  0
 25 53  1  0  0  0  0
 26 54  1  0  0  0  0
 27 28  1  0  0  0  0
 27 55  1  0  0  0  0
 28 29  2  0  0  0  0
 28 32  1  0  0  0  0
 29 30  1  0  0  0  0
 30 31  2  0  0  0  0
 30 37  1  0  0  0  0
 31 32  1  0  0  0  0
 31 34  1  0  0  0  0
 32 33  1  0  0  0  0
 34 35  2  0  0  0  0
 34 56  1  0  0  0  0
 35 36  1  0  0  0  0
 35 57  1  0  0  0  0
 36 37  2  0  0  0  0
 36 58  1  0  0  0  0
 37 59  1  0  0  0  0
M  END
$$$$
