BZF
 OpenBabel04121316093D

 15 16  0  0  0  0  0  0  0  0999 V2000
    2.1157   -0.6979   -0.0003 C   0  0  0  0  0  0  0  0  0  0  0  0
    2.1445    0.6995    0.0006 C   0  0  0  0  0  0  0  0  0  0  0  0
    0.9585    1.4455   -0.0006 C   0  0  0  0  0  0  0  0  0  0  0  0
   -0.2683    0.7611   -0.0005 C   0  0  0  0  0  0  0  0  0  0  0  0
   -0.2583   -0.6290   -0.0002 C   0  0  0  0  0  0  0  0  0  0  0  0
    0.9034   -1.3990   -0.0005 C   0  0  0  0  0  0  0  0  0  0  0  0
   -1.5359   -1.1065    0.0006 O   0  0  0  0  0  0  0  0  0  0  0  0
   -2.3622   -0.0265    0.0007 C   0  0  0  0  0  0  0  0  0  0  0  0
   -1.6343    1.1418   -0.0005 C   0  0  0  0  0  0  0  0  0  0  0  0
    3.0529   -1.2508   -0.0007 H   0  0  0  0  0  0  0  0  0  0  0  0
    3.1000    1.2198    0.0022 H   0  0  0  0  0  0  0  0  0  0  0  0
    0.9870    2.5302   -0.0011 H   0  0  0  0  0  0  0  0  0  0  0  0
    0.8662   -2.4816   -0.0007 H   0  0  0  0  0  0  0  0  0  0  0  0
   -3.4204   -0.2449    0.0016 H   0  0  0  0  0  0  0  0  0  0  0  0
   -2.0329    2.1451   -0.0007 H   0  0  0  0  0  0  0  0  0  0  0  0
  1  2  2  0  0  0  0
  1  6  1  0  0  0  0
  1 10  1  0  0  0  0
  2  3  1  0  0  0  0
  2 11  1  0  0  0  0
  3  4  2  0  0  0  0
  3 12  1  0  0  0  0
  4  5  1  0  0  0  0
  4  9  1  0  0  0  0
  5  6  2  0  0  0  0
  5  7  1  0  0  0  0
  6 13  1  0  0  0  0
  7  8  1  0  0  0  0
  8  9  2  0  0  0  0
  8 14  1  0  0  0  0
  9 15  1  0  0  0  0
M  END
$$$$
