BZI
 OpenBabel04121316093D

 15 16  0  0  0  0  0  0  0  0999 V2000
    2.1197    0.7182    0.0006 C   0  0  0  0  0  0  0  0  0  0  0  0
    2.1175   -0.6791   -0.0003 C   0  0  0  0  0  0  0  0  0  0  0  0
    0.9130   -1.3952   -0.0006 C   0  0  0  0  0  0  0  0  0  0  0  0
   -0.2943   -0.6813   -0.0001 C   0  0  0  0  0  0  0  0  0  0  0  0
   -0.2597    0.7095   -0.0006 C   0  0  0  0  0  0  0  0  0  0  0  0
    0.9252    1.4481   -0.0006 C   0  0  0  0  0  0  0  0  0  0  0  0
   -1.5803    1.0794   -0.0005 N   0  0  0  0  0  0  0  0  0  0  0  0
   -1.9310    2.0255   -0.0006 H   0  0  0  0  0  0  0  0  0  0  0  0
   -2.3371   -0.0583    0.0007 C   0  0  0  0  0  0  0  0  0  0  0  0
   -1.5906   -1.1387    0.0007 N   0  0  0  0  0  0  0  0  0  0  0  0
    3.0691    1.2503    0.0024 H   0  0  0  0  0  0  0  0  0  0  0  0
    3.0608   -1.2201   -0.0008 H   0  0  0  0  0  0  0  0  0  0  0  0
    0.9046   -2.4794   -0.0007 H   0  0  0  0  0  0  0  0  0  0  0  0
    0.9282    2.5323   -0.0012 H   0  0  0  0  0  0  0  0  0  0  0  0
   -3.4188   -0.0347    0.0016 H   0  0  0  0  0  0  0  0  0  0  0  0
  1  2  2  0  0  0  0
  1  6  1  0  0  0  0
  1 11  1  0  0  0  0
  2  3  1  0  0  0  0
  2 12  1  0  0  0  0
  3  4  2  0  0  0  0
  3 13  1  0  0  0  0
  4  5  1  0  0  0  0
  4 10  1  0  0  0  0
  5  6  2  0  0  0  0
  5  7  1  0  0  0  0
  6 14  1  0  0  0  0
  7  8  1  0  0  0  0
  7  9  1  0  0  0  0
  9 10  2  0  0  0  0
  9 15  1  0  0  0  0
M  END
$$$$
