BZP
 OpenBabel04121316093D

 19 19  0  0  0  0  0  0  0  0999 V2000
    1.1189    0.2157   -0.1159 O   0  0  0  0  0  0  0  0  0  0  0  0
    2.4583    0.1110   -0.0041 C   0  0  0  0  0  0  0  0  0  0  0  0
    3.0662   -0.7556   -0.6192 O   0  0  0  0  0  0  0  0  0  0  0  0
    3.0441    1.0034    0.8664 N   0  0  0  0  0  0  0  0  0  0  0  0
    4.4443    0.7917    1.2524 C   0  0  0  0  0  0  0  0  0  0  0  0
    5.3489    1.9441    0.7818 C   0  0  0  0  0  0  0  0  0  0  0  0
    4.8587    3.2519    1.2561 N   0  0  0  0  0  0  0  0  0  0  0  0
    3.4782    3.4536    0.7847 C   0  0  0  0  0  0  0  0  0  0  0  0
    2.5272    2.3234    1.2454 C   0  0  0  0  0  0  0  0  0  0  0  0
    0.7214    0.7856    0.5586 H   0  0  0  0  0  0  0  0  0  0  0  0
    4.8281   -0.1605    0.8727 H   0  0  0  0  0  0  0  0  0  0  0  0
    4.4639    0.7377    2.3479 H   0  0  0  0  0  0  0  0  0  0  0  0
    5.4064    1.9520   -0.3135 H   0  0  0  0  0  0  0  0  0  0  0  0
    6.3635    1.7880    1.1634 H   0  0  0  0  0  0  0  0  0  0  0  0
    5.4604    3.9884    0.8880 H   0  0  0  0  0  0  0  0  0  0  0  0
    3.4775    3.5163   -0.3109 H   0  0  0  0  0  0  0  0  0  0  0  0
    3.1114    4.4129    1.1650 H   0  0  0  0  0  0  0  0  0  0  0  0
    1.5360    2.5048    0.8246 H   0  0  0  0  0  0  0  0  0  0  0  0
    2.4458    2.3311    2.3385 H   0  0  0  0  0  0  0  0  0  0  0  0
  1  2  1  0  0  0  0
  1 10  1  0  0  0  0
  2  3  2  0  0  0  0
  2  4  1  0  0  0  0
  4  5  1  0  0  0  0
  4  9  1  0  0  0  0
  5  6  1  0  0  0  0
  5 11  1  0  0  0  0
  5 12  1  0  0  0  0
  6  7  1  0  0  0  0
  6 13  1  0  0  0  0
  6 14  1  0  0  0  0
  7  8  1  0  0  0  0
  7 15  1  0  0  0  0
  8  9  1  0  0  0  0
  8 16  1  0  0  0  0
  8 17  1  0  0  0  0
  9 18  1  0  0  0  0
  9 19  1  0  0  0  0
M  END
$$$$
