BZQ
 OpenBabel04121316093D

 24 25  0  0  0  0  0  0  0  0999 V2000
    1.0192   -0.1180    0.1230 O   0  0  0  0  0  0  0  0  0  0  0  0
    2.2536   -0.0863    0.0945 C   0  0  0  0  0  0  0  0  0  0  0  0
    2.9865   -1.3191   -0.2918 C   0  0  0  0  0  0  0  0  0  0  0  0
    4.1514   -1.2869   -1.0741 C   0  0  0  0  0  0  0  0  0  0  0  0
    4.7506   -2.4745   -1.4894 C   0  0  0  0  0  0  0  0  0  0  0  0
    4.2163   -3.6960   -1.0881 C   0  0  0  0  0  0  0  0  0  0  0  0
    3.0978   -3.7328   -0.2545 C   0  0  0  0  0  0  0  0  0  0  0  0
    2.4569   -2.5488    0.1080 C   0  0  0  0  0  0  0  0  0  0  0  0
    2.9611    1.1816    0.4043 C   0  0  0  0  0  0  0  0  0  0  0  0
    2.2529    2.3857    0.3273 C   0  0  0  0  0  0  0  0  0  0  0  0
    2.9372    3.5980    0.4142 C   0  0  0  0  0  0  0  0  0  0  0  0
    4.3091    3.6098    0.6679 C   0  0  0  0  0  0  0  0  0  0  0  0
    4.9897    2.4152    0.8830 C   0  0  0  0  0  0  0  0  0  0  0  0
    4.3197    1.2040    0.7417 C   0  0  0  0  0  0  0  0  0  0  0  0
    4.6052   -0.3500   -1.3849 H   0  0  0  0  0  0  0  0  0  0  0  0
    5.6270   -2.4426   -2.1321 H   0  0  0  0  0  0  0  0  0  0  0  0
    4.6675   -4.6222   -1.4335 H   0  0  0  0  0  0  0  0  0  0  0  0
    2.7146   -4.6849    0.1019 H   0  0  0  0  0  0  0  0  0  0  0  0
    1.5432   -2.5828    0.6983 H   0  0  0  0  0  0  0  0  0  0  0  0
    1.1742    2.3824    0.1777 H   0  0  0  0  0  0  0  0  0  0  0  0
    2.4011    4.5331    0.2752 H   0  0  0  0  0  0  0  0  0  0  0  0
    4.8466    4.5526    0.7146 H   0  0  0  0  0  0  0  0  0  0  0  0
    6.0435    2.4179    1.1474 H   0  0  0  0  0  0  0  0  0  0  0  0
    4.8847    0.2876    0.8825 H   0  0  0  0  0  0  0  0  0  0  0  0
  1  2  2  0  0  0  0
  2  3  1  0  0  0  0
  2  9  1  0  0  0  0
  3  4  2  0  0  0  0
  3  8  1  0  0  0  0
  4  5  1  0  0  0  0
  4 15  1  0  0  0  0
  5  6  2  0  0  0  0
  5 16  1  0  0  0  0
  6  7  1  0  0  0  0
  6 17  1  0  0  0  0
  7  8  2  0  0  0  0
  7 18  1  0  0  0  0
  8 19  1  0  0  0  0
  9 10  2  0  0  0  0
  9 14  1  0  0  0  0
 10 11  1  0  0  0  0
 10 20  1  0  0  0  0
 11 12  2  0  0  0  0
 11 21  1  0  0  0  0
 12 13  1  0  0  0  0
 12 22  1  0  0  0  0
 13 14  2  0  0  0  0
 13 23  1  0  0  0  0
 14 24  1  0  0  0  0
M  END
$$$$
