BZZ
 OpenBabel04121316093D

 19 19  0  0  0  0  0  0  0  0999 V2000
    0.9147   -0.0916   -0.0770 N   0  0  0  0  0  0  0  0  0  0  0  0
    2.3567   -0.0527   -0.0950 N   0  0  0  0  0  0  0  0  0  0  0  0
    2.9100   -1.3669    0.2770 C   0  0  0  0  0  0  0  0  0  0  0  0
    4.4278   -1.3871    0.2921 C   0  0  0  0  0  0  0  0  0  0  0  0
    5.1050   -2.5994    0.0733 C   0  0  0  0  0  0  0  0  0  0  0  0
    6.4909   -2.6762    0.2431 C   0  0  0  0  0  0  0  0  0  0  0  0
    7.2234   -1.5378    0.5614 C   0  0  0  0  0  0  0  0  0  0  0  0
    6.5764   -0.3143    0.7074 C   0  0  0  0  0  0  0  0  0  0  0  0
    5.1869   -0.2532    0.6160 C   0  0  0  0  0  0  0  0  0  0  0  0
    0.5350    0.8085   -0.3856 H   0  0  0  0  0  0  0  0  0  0  0  0
    0.5430   -0.2456    0.8637 H   0  0  0  0  0  0  0  0  0  0  0  0
    2.7142    0.6449    0.5594 H   0  0  0  0  0  0  0  0  0  0  0  0
    2.5435   -2.1270   -0.4246 H   0  0  0  0  0  0  0  0  0  0  0  0
    2.5688   -1.6443    1.2836 H   0  0  0  0  0  0  0  0  0  0  0  0
    4.5579   -3.4918   -0.2190 H   0  0  0  0  0  0  0  0  0  0  0  0
    6.9986   -3.6315    0.1277 H   0  0  0  0  0  0  0  0  0  0  0  0
    8.2999   -1.5954    0.6956 H   0  0  0  0  0  0  0  0  0  0  0  0
    7.1423    0.5895    0.9047 H   0  0  0  0  0  0  0  0  0  0  0  0
    4.7167    0.7078    0.8034 H   0  0  0  0  0  0  0  0  0  0  0  0
  1  2  1  0  0  0  0
  1 10  1  0  0  0  0
  1 11  1  0  0  0  0
  2  3  1  0  0  0  0
  2 12  1  0  0  0  0
  3  4  1  0  0  0  0
  3 13  1  0  0  0  0
  3 14  1  0  0  0  0
  4  5  2  0  0  0  0
  4  9  1  0  0  0  0
  5  6  1  0  0  0  0
  5 15  1  0  0  0  0
  6  7  2  0  0  0  0
  6 16  1  0  0  0  0
  7  8  1  0  0  0  0
  7 17  1  0  0  0  0
  8  9  2  0  0  0  0
  8 18  1  0  0  0  0
  9 19  1  0  0  0  0
M  END
$$$$
