C0Y
 OpenBabel04121316093D

 40 41  0  0  0  0  0  0  0  0999 V2000
    0.9983    0.1197   -0.2488 O   0  0  0  0  0  0  0  0  0  0  0  0
    2.2164    0.0625   -0.1331 C   0  0  0  0  0  0  0  0  0  0  0  0
    2.8879    0.5576    1.0984 C   0  0  0  0  0  0  0  0  0  0  0  0
    2.8413    1.9100    1.4342 C   0  0  0  0  0  0  0  0  0  0  0  0
    3.5403    2.3734    2.5521 C   0  0  0  0  0  0  0  0  0  0  0  0
    4.3702    1.5047    3.2578 C   0  0  0  0  0  0  0  0  0  0  0  0
    4.4334    0.1359    2.9432 C   0  0  0  0  0  0  0  0  0  0  0  0
    3.6103   -0.3281    1.8956 C   0  0  0  0  0  0  0  0  0  0  0  0
    5.4073   -0.8073    3.6648 C   0  0  0  0  0  0  0  0  0  0  0  0
    6.8604   -0.3472    3.4015 C   0  0  0  0  0  0  0  0  0  0  0  0
    5.1218   -0.8295    5.1789 C   0  0  0  0  0  0  0  0  0  0  0  0
    5.2921   -2.2589    3.1474 C   0  0  0  0  0  0  0  0  0  0  0  0
    5.1522    1.9960    4.2655 O   0  0  0  0  0  0  0  0  0  0  0  0
    3.0966   -0.3266   -1.1325 N   0  0  0  0  0  0  0  0  0  0  0  0
    3.4163   -1.7396   -1.3297 C   0  0  0  0  0  0  0  0  0  0  0  0
    2.7695   -2.3194   -2.5948 C   0  0  0  0  0  0  0  0  0  0  0  0
    3.0970   -1.5288   -3.7475 O   0  0  0  0  0  0  0  0  0  0  0  0
    2.5995   -0.1912   -3.5847 C   0  0  0  0  0  0  0  0  0  0  0  0
    3.2137    0.4787   -2.3479 C   0  0  0  0  0  0  0  0  0  0  0  0
    2.2698    2.6028    0.8253 H   0  0  0  0  0  0  0  0  0  0  0  0
    3.4485    3.4123    2.8517 H   0  0  0  0  0  0  0  0  0  0  0  0
    3.5222   -1.3847    1.6673 H   0  0  0  0  0  0  0  0  0  0  0  0
    7.0687    0.6562    3.7853 H   0  0  0  0  0  0  0  0  0  0  0  0
    7.0782   -0.3264    2.3264 H   0  0  0  0  0  0  0  0  0  0  0  0
    7.5806   -1.0190    3.8801 H   0  0  0  0  0  0  0  0  0  0  0  0
    5.2536    0.1455    5.6560 H   0  0  0  0  0  0  0  0  0  0  0  0
    5.7987   -1.5169    5.6965 H   0  0  0  0  0  0  0  0  0  0  0  0
    4.0911   -1.1450    5.3772 H   0  0  0  0  0  0  0  0  0  0  0  0
    5.5018   -2.3137    2.0712 H   0  0  0  0  0  0  0  0  0  0  0  0
    4.2850   -2.6590    3.3183 H   0  0  0  0  0  0  0  0  0  0  0  0
    5.9987   -2.9262    3.6485 H   0  0  0  0  0  0  0  0  0  0  0  0
    5.0752    2.9600    4.3240 H   0  0  0  0  0  0  0  0  0  0  0  0
    3.1256   -2.3286   -0.4554 H   0  0  0  0  0  0  0  0  0  0  0  0
    4.5063   -1.7783   -1.4363 H   0  0  0  0  0  0  0  0  0  0  0  0
    1.6796   -2.3796   -2.5009 H   0  0  0  0  0  0  0  0  0  0  0  0
    3.1494   -3.3312   -2.7724 H   0  0  0  0  0  0  0  0  0  0  0  0
    1.5058   -0.2202   -3.5328 H   0  0  0  0  0  0  0  0  0  0  0  0
    2.8765    0.3699   -4.4844 H   0  0  0  0  0  0  0  0  0  0  0  0
    2.7850    1.4739   -2.1924 H   0  0  0  0  0  0  0  0  0  0  0  0
    4.2921    0.5885   -2.5108 H   0  0  0  0  0  0  0  0  0  0  0  0
  1  2  2  0  0  0  0
  2  3  1  0  0  0  0
  2 14  1  0  0  0  0
  3  4  2  0  0  0  0
  3  8  1  0  0  0  0
  4  5  1  0  0  0  0
  4 20  1  0  0  0  0
  5  6  2  0  0  0  0
  5 21  1  0  0  0  0
  6  7  1  0  0  0  0
  6 13  1  0  0  0  0
  7  8  2  0  0  0  0
  7  9  1  0  0  0  0
  8 22  1  0  0  0  0
  9 10  1  0  0  0  0
  9 11  1  0  0  0  0
  9 12  1  0  0  0  0
 10 23  1  0  0  0  0
 10 24  1  0  0  0  0
 10 25  1  0  0  0  0
 11 26  1  0  0  0  0
 11 27  1  0  0  0  0
 11 28  1  0  0  0  0
 12 29  1  0  0  0  0
 12 30  1  0  0  0  0
 12 31  1  0  0  0  0
 13 32  1  0  0  0  0
 14 15  1  0  0  0  0
 14 19  1  0  0  0  0
 15 16  1  0  0  0  0
 15 33  1  0  0  0  0
 15 34  1  0  0  0  0
 16 17  1  0  0  0  0
 16 35  1  0  0  0  0
 16 36  1  0  0  0  0
 17 18  1  0  0  0  0
 18 19  1  0  0  0  0
 18 37  1  0  0  0  0
 18 38  1  0  0  0  0
 19 39  1  0  0  0  0
 19 40  1  0  0  0  0
M  END
$$$$
