C0Z
 OpenBabel04121316093D

 59 63  0  0  1  0  0  0  0  0999 V2000
    0.9489   -0.0740    0.0570 Cl  0  0  0  0  0  0  0  0  0  0  0  0
    2.6676   -0.0564    0.0933 C   0  0  0  0  0  0  0  0  0  0  0  0
    3.3447    1.1607    0.0284 C   0  0  0  0  0  0  0  0  0  0  0  0
    4.7354    1.1810    0.0388 C   0  0  0  0  0  0  0  0  0  0  0  0
    5.4421   -0.0231    0.0609 C   0  0  0  0  0  0  0  0  0  0  0  0
    4.7575   -1.2607    0.1056 C   0  0  0  0  0  0  0  0  0  0  0  0
    3.3632   -1.2625    0.1556 C   0  0  0  0  0  0  0  0  0  0  0  0
    5.4774   -2.4615    0.0351 C   0  0  0  0  0  0  0  0  0  0  0  0
    6.8373   -2.4417   -0.2487 C   0  0  0  0  0  0  0  0  0  0  0  0
    7.5027   -1.2243   -0.1945 C   0  0  0  0  0  0  0  0  0  0  0  0
    6.8258   -0.0201    0.0101 C   0  0  0  0  0  0  0  0  0  0  0  0
    9.2429   -1.1087   -0.1442 S   0  0  0  0  0  0  0  0  0  0  0  0
    9.6763   -0.3732   -1.3173 O   0  0  0  0  0  0  0  0  0  0  0  0
    9.5254   -0.6462    1.1908 O   0  0  0  0  0  0  0  0  0  0  0  0
    9.8544   -2.6757   -0.3250 N   0  0  0  0  0  0  0  0  0  0  0  0
   11.3454   -2.7763   -0.3003 C   0  0  1  0  0  0  0  0  0  0  0  0
   11.7200   -2.7120   -1.3296 H   0  0  0  0  0  0  0  0  0  0  0  0
   11.9926   -1.7473    0.6058 C   0  0  0  0  0  0  0  0  0  0  0  0
   13.3245   -2.3336    0.9541 C   0  0  0  0  0  0  0  0  0  0  0  0
   13.0459   -3.7504    1.0403 N   0  0  0  0  0  0  0  0  0  0  0  0
   11.8826   -4.0720    0.2978 C   0  0  0  0  0  0  0  0  0  0  0  0
   11.3658   -5.1648    0.1068 O   0  0  0  0  0  0  0  0  0  0  0  0
   13.8370   -4.6481    1.8139 C   0  0  0  0  0  0  0  0  0  0  0  0
   13.6050   -6.0306    1.8163 C   0  0  0  0  0  0  0  0  0  0  0  0
   14.3456   -6.9195    2.6252 C   0  0  0  0  0  0  0  0  0  0  0  0
   15.3798   -6.4493    3.4238 C   0  0  0  0  0  0  0  0  0  0  0  0
   15.6015   -5.0760    3.4266 C   0  0  0  0  0  0  0  0  0  0  0  0
   14.8652   -4.1817    2.6396 C   0  0  0  0  0  0  0  0  0  0  0  0
   16.6823   -4.6755    4.3622 C   0  0  0  0  0  0  0  0  0  0  0  0
   17.1271   -5.9968    4.9974 C   0  0  0  0  0  0  0  0  0  0  0  0
   16.2804   -7.1845    4.4129 C   0  0  2  0  0  0  0  0  0  0  0  0
   15.6534   -7.5799    5.2237 H   0  0  0  0  0  0  0  0  0  0  0  0
   17.1402   -8.2827    3.8842 N   0  0  0  0  0  0  0  0  0  0  0  0
   16.3727   -9.3459    3.2232 C   0  0  0  0  0  0  0  0  0  0  0  0
   17.9049   -8.9355    4.9655 C   0  0  0  0  0  0  0  0  0  0  0  0
    2.7984    2.0959   -0.0429 H   0  0  0  0  0  0  0  0  0  0  0  0
    5.2608    2.1321   -0.0247 H   0  0  0  0  0  0  0  0  0  0  0  0
    2.8197   -2.2032    0.1798 H   0  0  0  0  0  0  0  0  0  0  0  0
    4.9800   -3.4187    0.1729 H   0  0  0  0  0  0  0  0  0  0  0  0
    7.3512   -3.3715   -0.4638 H   0  0  0  0  0  0  0  0  0  0  0  0
    7.3885    0.9074    0.1174 H   0  0  0  0  0  0  0  0  0  0  0  0
    9.4931   -3.1243   -1.1705 H   0  0  0  0  0  0  0  0  0  0  0  0
   11.4457   -1.6761    1.5519 H   0  0  0  0  0  0  0  0  0  0  0  0
   12.0558   -0.7551    0.1498 H   0  0  0  0  0  0  0  0  0  0  0  0
   13.6537   -1.8930    1.8986 H   0  0  0  0  0  0  0  0  0  0  0  0
   14.0574   -2.1403    0.1649 H   0  0  0  0  0  0  0  0  0  0  0  0
   12.8377   -6.4680    1.1858 H   0  0  0  0  0  0  0  0  0  0  0  0
   14.0706   -7.9680    2.5962 H   0  0  0  0  0  0  0  0  0  0  0  0
   15.1120   -3.1292    2.7191 H   0  0  0  0  0  0  0  0  0  0  0  0
   16.2980   -3.9760    5.1120 H   0  0  0  0  0  0  0  0  0  0  0  0
   17.4955   -4.2063    3.8002 H   0  0  0  0  0  0  0  0  0  0  0  0
   17.0011   -5.9371    6.0876 H   0  0  0  0  0  0  0  0  0  0  0  0
   18.2079   -6.1089    4.8413 H   0  0  0  0  0  0  0  0  0  0  0  0
   17.0363  -10.1381    2.8543 H   0  0  0  0  0  0  0  0  0  0  0  0
   15.8674   -8.9865    2.3275 H   0  0  0  0  0  0  0  0  0  0  0  0
   15.6406   -9.8068    3.8976 H   0  0  0  0  0  0  0  0  0  0  0  0
   18.5346   -9.7414    4.5628 H   0  0  0  0  0  0  0  0  0  0  0  0
   17.2465   -9.3833    5.7206 H   0  0  0  0  0  0  0  0  0  0  0  0
   18.5879   -8.2453    5.4672 H   0  0  0  0  0  0  0  0  0  0  0  0
  1  2  1  0  0  0  0
  2  3  2  0  0  0  0
  2  7  1  0  0  0  0
  3  4  1  0  0  0  0
  3 36  1  0  0  0  0
  4  5  2  0  0  0  0
  4 37  1  0  0  0  0
  5  6  1  0  0  0  0
  5 11  1  0  0  0  0
  6  7  2  0  0  0  0
  6  8  1  0  0  0  0
  7 38  1  0  0  0  0
  8  9  2  0  0  0  0
  8 39  1  0  0  0  0
  9 10  1  0  0  0  0
  9 40  1  0  0  0  0
 10 11  2  0  0  0  0
 10 12  1  0  0  0  0
 11 41  1  0  0  0  0
 12 13  2  0  0  0  0
 12 14  2  0  0  0  0
 12 15  1  0  0  0  0
 15 16  1  0  0  0  0
 15 42  1  0  0  0  0
 16 17  1  6  0  0  0
 16 18  1  0  0  0  0
 16 21  1  0  0  0  0
 18 19  1  0  0  0  0
 18 43  1  0  0  0  0
 18 44  1  0  0  0  0
 19 20  1  0  0  0  0
 19 45  1  0  0  0  0
 19 46  1  0  0  0  0
 20 21  1  0  0  0  0
 20 23  1  0  0  0  0
 21 22  2  0  0  0  0
 23 24  2  0  0  0  0
 23 28  1  0  0  0  0
 24 25  1  0  0  0  0
 24 47  1  0  0  0  0
 25 26  2  0  0  0  0
 25 48  1  0  0  0  0
 26 27  1  0  0  0  0
 26 31  1  0  0  0  0
 27 28  2  0  0  0  0
 27 29  1  0  0  0  0
 28 49  1  0  0  0  0
 29 30  1  0  0  0  0
 29 50  1  0  0  0  0
 29 51  1  0  0  0  0
 30 31  1  0  0  0  0
 30 52  1  0  0  0  0
 30 53  1  0  0  0  0
 31 33  1  0  0  0  0
 31 32  1  1  0  0  0
 33 34  1  0  0  0  0
 33 35  1  0  0  0  0
 34 54  1  0  0  0  0
 34 55  1  0  0  0  0
 34 56  1  0  0  0  0
 35 57  1  0  0  0  0
 35 58  1  0  0  0  0
 35 59  1  0  0  0  0
M  END
$$$$
