C15
 OpenBabel04121316093D

 60 59  0  0  0  0  0  0  0  0999 V2000
    0.9127    0.0708   -0.0075 C   0  0  0  0  0  0  0  0  0  0  0  0
    2.4284    0.0716   -0.0007 C   0  0  0  0  0  0  0  0  0  0  0  0
    2.9507    0.2473    1.4174 C   0  0  0  0  0  0  0  0  0  0  0  0
    4.4698    0.2484    1.4267 C   0  0  0  0  0  0  0  0  0  0  0  0
    4.9807    0.4242    2.8456 C   0  0  0  0  0  0  0  0  0  0  0  0
    6.4968    0.4249    2.8510 C   0  0  0  0  0  0  0  0  0  0  0  0
    7.0055    0.6005    4.2676 C   0  0  0  0  0  0  0  0  0  0  0  0
    8.5191    0.5997    4.2610 C   0  0  0  0  0  0  0  0  0  0  0  0
    9.0358    0.7734    5.6695 C   0  0  0  0  0  0  0  0  0  0  0  0
   10.5519    0.7653    5.6417 C   0  0  0  0  0  0  0  0  0  0  0  0
   11.0535    0.9292    7.0526 C   0  0  0  0  0  0  0  0  0  0  0  0
   12.5723    0.8928    7.0841 C   0  0  0  0  0  0  0  0  0  0  0  0
   13.0917    1.1222    8.5123 N   0  3  0  0  0  0  0  0  0  0  0  0
   12.6182    2.4702    9.0891 C   0  0  0  0  0  0  0  0  0  0  0  0
   13.0740    3.6295    8.2159 C   0  0  0  0  0  0  0  0  0  0  0  0
   12.5777    4.9645    8.7259 C   0  0  0  0  0  0  0  0  0  0  0  0
   13.2139    6.2461    7.6563 S   0  0  0  0  0  0  0  0  0  0  0  0
   14.6354    6.3301    7.8711 O   0  0  0  0  0  0  0  0  0  0  0  0
   12.6185    6.0717    6.3489 O   0  0  0  0  0  0  0  0  0  0  0  0
   12.5176    7.4902    8.4055 O   0  0  0  0  0  0  0  0  0  0  0  0
   12.6096   -0.0196    9.4151 C   0  0  0  0  0  0  0  0  0  0  0  0
   14.6221    1.0666    8.4941 C   0  0  0  0  0  0  0  0  0  0  0  0
    0.5387   -0.0554   -1.0267 H   0  0  0  0  0  0  0  0  0  0  0  0
    0.5241    1.0139    0.3899 H   0  0  0  0  0  0  0  0  0  0  0  0
    0.5241   -0.7469    0.6079 H   0  0  0  0  0  0  0  0  0  0  0  0
    2.7998    0.8825   -0.6382 H   0  0  0  0  0  0  0  0  0  0  0  0
    2.7998   -0.8702   -0.4211 H   0  0  0  0  0  0  0  0  0  0  0  0
    2.5785   -0.5630    2.0565 H   0  0  0  0  0  0  0  0  0  0  0  0
    2.5785    1.1890    1.8396 H   0  0  0  0  0  0  0  0  0  0  0  0
    4.8482    1.0599    0.7930 H   0  0  0  0  0  0  0  0  0  0  0  0
    4.8482   -0.6931    1.0101 H   0  0  0  0  0  0  0  0  0  0  0  0
    4.6070   -0.3868    3.4829 H   0  0  0  0  0  0  0  0  0  0  0  0
    4.6070    1.3661    3.2658 H   0  0  0  0  0  0  0  0  0  0  0  0
    6.8747    1.2362    2.2165 H   0  0  0  0  0  0  0  0  0  0  0  0
    6.8748   -0.5167    2.4337 H   0  0  0  0  0  0  0  0  0  0  0  0
    6.6332   -0.2106    4.9056 H   0  0  0  0  0  0  0  0  0  0  0  0
    6.6331    1.5426    4.6885 H   0  0  0  0  0  0  0  0  0  0  0  0
    8.8948    1.4117    3.6267 H   0  0  0  0  0  0  0  0  0  0  0  0
    8.8944   -0.3425    3.8435 H   0  0  0  0  0  0  0  0  0  0  0  0
    8.6640   -0.0352    6.3124 H   0  0  0  0  0  0  0  0  0  0  0  0
    8.6677    1.7157    6.0961 H   0  0  0  0  0  0  0  0  0  0  0  0
   10.9257    1.5836    5.0156 H   0  0  0  0  0  0  0  0  0  0  0  0
   10.9214   -0.1775    5.2236 H   0  0  0  0  0  0  0  0  0  0  0  0
   10.6294    0.1244    7.6605 H   0  0  0  0  0  0  0  0  0  0  0  0
   10.6579    1.8733    7.4398 H   0  0  0  0  0  0  0  0  0  0  0  0
   13.0059    1.6592    6.4329 H   0  0  0  0  0  0  0  0  0  0  0  0
   12.9562   -0.0746    6.7421 H   0  0  0  0  0  0  0  0  0  0  0  0
   13.0212    2.5477   10.1041 H   0  0  0  0  0  0  0  0  0  0  0  0
   11.5272    2.4386    9.1775 H   0  0  0  0  0  0  0  0  0  0  0  0
   12.7207    3.5167    7.1864 H   0  0  0  0  0  0  0  0  0  0  0  0
   14.1662    3.6659    8.1716 H   0  0  0  0  0  0  0  0  0  0  0  0
   12.9455    5.1531    9.7382 H   0  0  0  0  0  0  0  0  0  0  0  0
   11.4857    5.0103    8.7068 H   0  0  0  0  0  0  0  0  0  0  0  0
   13.0978    7.8275    9.1207 H   0  0  0  0  0  0  0  0  0  0  0  0
   11.5198    0.0046    9.4811 H   0  0  0  0  0  0  0  0  0  0  0  0
   13.0304    0.1261   10.4118 H   0  0  0  0  0  0  0  0  0  0  0  0
   12.9481   -0.9641    8.9779 H   0  0  0  0  0  0  0  0  0  0  0  0
   15.0037    1.8392    7.8237 H   0  0  0  0  0  0  0  0  0  0  0  0
   14.9299    0.0866    8.1223 H   0  0  0  0  0  0  0  0  0  0  0  0
   14.9760    1.2298    9.5158 H   0  0  0  0  0  0  0  0  0  0  0  0
  1  2  1  0  0  0  0
  1 23  1  0  0  0  0
  1 24  1  0  0  0  0
  1 25  1  0  0  0  0
  2  3  1  0  0  0  0
  2 26  1  0  0  0  0
  2 27  1  0  0  0  0
  3  4  1  0  0  0  0
  3 28  1  0  0  0  0
  3 29  1  0  0  0  0
  4  5  1  0  0  0  0
  4 30  1  0  0  0  0
  4 31  1  0  0  0  0
  5  6  1  0  0  0  0
  5 32  1  0  0  0  0
  5 33  1  0  0  0  0
  6  7  1  0  0  0  0
  6 34  1  0  0  0  0
  6 35  1  0  0  0  0
  7  8  1  0  0  0  0
  7 36  1  0  0  0  0
  7 37  1  0  0  0  0
  8  9  1  0  0  0  0
  8 38  1  0  0  0  0
  8 39  1  0  0  0  0
  9 10  1  0  0  0  0
  9 40  1  0  0  0  0
  9 41  1  0  0  0  0
 10 11  1  0  0  0  0
 10 42  1  0  0  0  0
 10 43  1  0  0  0  0
 11 12  1  0  0  0  0
 11 44  1  0  0  0  0
 11 45  1  0  0  0  0
 12 13  1  0  0  0  0
 12 46  1  0  0  0  0
 12 47  1  0  0  0  0
 13 14  1  0  0  0  0
 13 21  1  0  0  0  0
 13 22  1  0  0  0  0
 14 15  1  0  0  0  0
 14 48  1  0  0  0  0
 14 49  1  0  0  0  0
 15 16  1  0  0  0  0
 15 50  1  0  0  0  0
 15 51  1  0  0  0  0
 16 17  1  0  0  0  0
 16 52  1  0  0  0  0
 16 53  1  0  0  0  0
 17 18  2  0  0  0  0
 17 19  2  0  0  0  0
 17 20  1  0  0  0  0
 20 54  1  0  0  0  0
 21 55  1  0  0  0  0
 21 56  1  0  0  0  0
 21 57  1  0  0  0  0
 22 58  1  0  0  0  0
 22 59  1  0  0  0  0
 22 60  1  0  0  0  0
M  CHG  1  13   1
M  END
$$$$
