C17
 OpenBabel04121316093D

 33 35  0  0  0  0  0  0  0  0999 V2000
    1.0693    0.2727    0.0325 O   0  0  0  0  0  0  0  0  0  0  0  0
    2.2868    0.1155    0.0718 C   0  0  0  0  0  0  0  0  0  0  0  0
    2.9741   -1.2073    0.0917 C   0  0  0  0  0  0  0  0  0  0  0  0
    4.3085   -1.2109   -0.0218 C   0  0  0  0  0  0  0  0  0  0  0  0
    5.0974   -2.4513   -0.0632 C   0  0  0  0  0  0  0  0  0  0  0  0
    6.3233   -2.3951   -0.1860 O   0  0  0  0  0  0  0  0  0  0  0  0
    4.4230   -3.6519    0.0547 O   0  0  0  0  0  0  0  0  0  0  0  0
    3.0202   -3.6687    0.1111 C   0  0  0  0  0  0  0  0  0  0  0  0
    2.2840   -2.4856    0.1335 C   0  0  0  0  0  0  0  0  0  0  0  0
    0.8979   -2.5650    0.1151 C   0  0  0  0  0  0  0  0  0  0  0  0
    0.2807   -3.7668   -0.1356 C   0  0  0  0  0  0  0  0  0  0  0  0
    1.0080   -4.9416   -0.0231 C   0  0  0  0  0  0  0  0  0  0  0  0
    2.3911   -4.9061    0.1252 C   0  0  0  0  0  0  0  0  0  0  0  0
    0.4326   -6.1687   -0.0121 O   0  0  0  0  0  0  0  0  0  0  0  0
   -0.9942   -6.1666   -0.0619 C   0  0  0  0  0  0  0  0  0  0  0  0
   -1.4865   -7.5717    0.0865 C   0  0  0  0  0  0  0  0  0  0  0  0
   -0.5899   -8.6469    0.1448 C   0  0  0  0  0  0  0  0  0  0  0  0
   -1.0579   -9.9501    0.1886 C   0  0  0  0  0  0  0  0  0  0  0  0
   -2.4223  -10.1908    0.0575 C   0  0  0  0  0  0  0  0  0  0  0  0
   -3.3196   -9.1246    0.0107 C   0  0  0  0  0  0  0  0  0  0  0  0
   -2.8635   -7.8150    0.0952 C   0  0  0  0  0  0  0  0  0  0  0  0
   -4.9984   -9.4246   -0.2050 Cl  0  0  0  0  0  0  0  0  0  0  0  0
    2.9428    0.9938    0.0809 H   0  0  0  0  0  0  0  0  0  0  0  0
    4.8900   -0.3022   -0.1099 H   0  0  0  0  0  0  0  0  0  0  0  0
    0.2495   -1.7092    0.2520 H   0  0  0  0  0  0  0  0  0  0  0  0
   -0.7742   -3.7361   -0.3835 H   0  0  0  0  0  0  0  0  0  0  0  0
    2.9598   -5.8267    0.2211 H   0  0  0  0  0  0  0  0  0  0  0  0
   -1.3125   -5.7975   -1.0465 H   0  0  0  0  0  0  0  0  0  0  0  0
   -1.4243   -5.5525    0.7419 H   0  0  0  0  0  0  0  0  0  0  0  0
    0.4854   -8.4740    0.1406 H   0  0  0  0  0  0  0  0  0  0  0  0
   -0.3511  -10.7670    0.2934 H   0  0  0  0  0  0  0  0  0  0  0  0
   -2.7773  -11.2128   -0.0133 H   0  0  0  0  0  0  0  0  0  0  0  0
   -3.5691   -6.9876    0.1287 H   0  0  0  0  0  0  0  0  0  0  0  0
  1  2  2  0  0  0  0
  2  3  1  0  0  0  0
  2 23  1  0  0  0  0
  3  4  2  0  0  0  0
  3  9  1  0  0  0  0
  4  5  1  0  0  0  0
  4 24  1  0  0  0  0
  5  6  2  0  0  0  0
  5  7  1  0  0  0  0
  7  8  1  0  0  0  0
  8  9  2  0  0  0  0
  8 13  1  0  0  0  0
  9 10  1  0  0  0  0
 10 11  2  0  0  0  0
 10 25  1  0  0  0  0
 11 12  1  0  0  0  0
 11 26  1  0  0  0  0
 12 13  2  0  0  0  0
 12 14  1  0  0  0  0
 13 27  1  0  0  0  0
 14 15  1  0  0  0  0
 15 16  1  0  0  0  0
 15 28  1  0  0  0  0
 15 29  1  0  0  0  0
 16 17  2  0  0  0  0
 16 21  1  0  0  0  0
 17 18  1  0  0  0  0
 17 30  1  0  0  0  0
 18 19  2  0  0  0  0
 18 31  1  0  0  0  0
 19 20  1  0  0  0  0
 19 32  1  0  0  0  0
 20 21  2  0  0  0  0
 20 22  1  0  0  0  0
 21 33  1  0  0  0  0
M  END
$$$$
