C18
 OpenBabel04121316093D

 39 41  0  0  0  0  0  0  0  0999 V2000
    0.9008    0.0690    0.0590 C   0  0  0  0  0  0  0  0  0  0  0  0
    2.3508    0.0469    0.0477 N   0  0  0  0  0  0  0  0  0  0  0  0
    2.8346   -1.1783    0.6733 C   0  0  0  0  0  0  0  0  0  0  0  0
    4.3299   -1.1670    0.6481 C   0  0  0  0  0  0  0  0  0  0  0  0
    5.0192   -1.7404   -0.3465 C   0  0  0  0  0  0  0  0  0  0  0  0
    6.4832   -1.7536   -0.3993 C   0  0  0  0  0  0  0  0  0  0  0  0
    7.0645   -2.3035   -1.3373 O   0  0  0  0  0  0  0  0  0  0  0  0
    7.1639   -1.1243    0.6299 O   0  0  0  0  0  0  0  0  0  0  0  0
    6.4632   -0.5766    1.7204 C   0  0  0  0  0  0  0  0  0  0  0  0
    5.0712   -0.5805    1.7564 C   0  0  0  0  0  0  0  0  0  0  0  0
    4.4289   -0.0914    2.8903 C   0  0  0  0  0  0  0  0  0  0  0  0
    5.1622    0.1892    4.0242 C   0  0  0  0  0  0  0  0  0  0  0  0
    6.5478    0.2994    3.9455 C   0  0  0  0  0  0  0  0  0  0  0  0
    7.2091   -0.0570    2.7725 C   0  0  0  0  0  0  0  0  0  0  0  0
    7.3249    0.7673    4.9643 O   0  0  0  0  0  0  0  0  0  0  0  0
    6.5907    1.1834    6.1160 C   0  0  0  0  0  0  0  0  0  0  0  0
    7.5580    1.8054    7.0680 C   0  0  0  0  0  0  0  0  0  0  0  0
    7.5577    3.1906    7.2641 C   0  0  0  0  0  0  0  0  0  0  0  0
    8.4867    3.7688    8.1205 C   0  0  0  0  0  0  0  0  0  0  0  0
    9.4941    2.9828    8.6801 C   0  0  0  0  0  0  0  0  0  0  0  0
    9.5035    1.6050    8.4710 C   0  0  0  0  0  0  0  0  0  0  0  0
    8.5020    1.0044    7.7205 C   0  0  0  0  0  0  0  0  0  0  0  0
   10.7753    0.6442    9.1145 Cl  0  0  0  0  0  0  0  0  0  0  0  0
    0.5460    0.9723   -0.4425 H   0  0  0  0  0  0  0  0  0  0  0  0
    0.5157    0.0654    1.0834 H   0  0  0  0  0  0  0  0  0  0  0  0
    0.5027   -0.7961   -0.4797 H   0  0  0  0  0  0  0  0  0  0  0  0
    2.7158    0.8605    0.5431 H   0  0  0  0  0  0  0  0  0  0  0  0
    2.4636   -2.0597    0.1391 H   0  0  0  0  0  0  0  0  0  0  0  0
    2.4463   -1.2848    1.6940 H   0  0  0  0  0  0  0  0  0  0  0  0
    4.5105   -2.2077   -1.1811 H   0  0  0  0  0  0  0  0  0  0  0  0
    3.3549    0.0430    2.9500 H   0  0  0  0  0  0  0  0  0  0  0  0
    4.6077    0.3239    4.9463 H   0  0  0  0  0  0  0  0  0  0  0  0
    8.2881    0.0357    2.6946 H   0  0  0  0  0  0  0  0  0  0  0  0
    6.1190    0.3172    6.5957 H   0  0  0  0  0  0  0  0  0  0  0  0
    5.8198    1.9206    5.8496 H   0  0  0  0  0  0  0  0  0  0  0  0
    6.8402    3.8213    6.7420 H   0  0  0  0  0  0  0  0  0  0  0  0
    8.4382    4.8331    8.3305 H   0  0  0  0  0  0  0  0  0  0  0  0
   10.2733    3.4513    9.2724 H   0  0  0  0  0  0  0  0  0  0  0  0
    8.4702   -0.0769    7.6059 H   0  0  0  0  0  0  0  0  0  0  0  0
  1  2  1  0  0  0  0
  1 24  1  0  0  0  0
  1 25  1  0  0  0  0
  1 26  1  0  0  0  0
  2  3  1  0  0  0  0
  2 27  1  0  0  0  0
  3  4  1  0  0  0  0
  3 28  1  0  0  0  0
  3 29  1  0  0  0  0
  4  5  2  0  0  0  0
  4 10  1  0  0  0  0
  5  6  1  0  0  0  0
  5 30  1  0  0  0  0
  6  7  2  0  0  0  0
  6  8  1  0  0  0  0
  8  9  1  0  0  0  0
  9 10  2  0  0  0  0
  9 14  1  0  0  0  0
 10 11  1  0  0  0  0
 11 12  2  0  0  0  0
 11 31  1  0  0  0  0
 12 13  1  0  0  0  0
 12 32  1  0  0  0  0
 13 14  2  0  0  0  0
 13 15  1  0  0  0  0
 14 33  1  0  0  0  0
 15 16  1  0  0  0  0
 16 17  1  0  0  0  0
 16 34  1  0  0  0  0
 16 35  1  0  0  0  0
 17 18  2  0  0  0  0
 17 22  1  0  0  0  0
 18 19  1  0  0  0  0
 18 36  1  0  0  0  0
 19 20  2  0  0  0  0
 19 37  1  0  0  0  0
 20 21  1  0  0  0  0
 20 38  1  0  0  0  0
 21 22  2  0  0  0  0
 21 23  1  0  0  0  0
 22 39  1  0  0  0  0
M  END
$$$$
