C1C
 OpenBabel04121316093D

 40 43  0  0  0  0  0  0  0  0999 V2000
    1.1330   -0.7054   -0.7376 O   0  0  0  0  0  0  0  0  0  0  0  0
    2.4177   -0.5421   -0.3655 C   0  0  0  0  0  0  0  0  0  0  0  0
    2.9366   -1.0555    0.6089 O   0  0  0  0  0  0  0  0  0  0  0  0
    3.0616    0.3365   -1.3343 C   0  0  0  0  0  0  0  0  0  0  0  0
    3.7412   -0.5534   -2.1744 C   0  0  0  0  0  0  0  0  0  0  0  0
    4.3609   -0.0991   -3.2993 C   0  0  0  0  0  0  0  0  0  0  0  0
    4.2185    1.2302   -3.6534 C   0  0  0  0  0  0  0  0  0  0  0  0
    3.4445    2.1432   -2.8689 C   0  0  0  0  0  0  0  0  0  0  0  0
    2.9599    1.7559   -1.5521 C   0  0  0  0  0  0  0  0  0  0  0  0
    2.4894    2.8701   -0.5085 C   0  0  0  0  0  0  0  0  0  0  0  0
    2.9449    4.2325   -0.5613 C   0  0  0  0  0  0  0  0  0  0  0  0
    2.3967    5.2414    0.2580 C   0  0  0  0  0  0  0  0  0  0  0  0
    1.5422    4.9342    1.3020 C   0  0  0  0  0  0  0  0  0  0  0  0
    1.1174    3.6335    1.4860 C   0  0  0  0  0  0  0  0  0  0  0  0
    1.5715    2.6428    0.5944 C   0  0  0  0  0  0  0  0  0  0  0  0
    1.1888    1.3982    1.0497 C   0  0  0  0  0  0  0  0  0  0  0  0
    0.1687    1.0509    1.9212 C   0  0  0  0  0  0  0  0  0  0  0  0
   -0.3414    2.0589    2.6795 C   0  0  0  0  0  0  0  0  0  0  0  0
    0.2670    3.3085    2.5752 C   0  0  0  0  0  0  0  0  0  0  0  0
    4.2037    4.6531   -1.2727 C   0  0  0  0  0  0  0  0  0  0  0  0
    5.1772    3.9579   -1.3413 O   0  0  0  0  0  0  0  0  0  0  0  0
    4.1384    5.8750   -1.8798 O   0  0  0  0  0  0  0  0  0  0  0  0
    3.2505    3.4056   -3.4845 C   0  0  0  0  0  0  0  0  0  0  0  0
    3.9731    3.8299   -4.5979 C   0  0  0  0  0  0  0  0  0  0  0  0
    4.6658    2.9027   -5.3422 C   0  0  0  0  0  0  0  0  0  0  0  0
    4.8313    1.6207   -4.8447 C   0  0  0  0  0  0  0  0  0  0  0  0
    0.6431   -1.0334    0.0414 H   0  0  0  0  0  0  0  0  0  0  0  0
    3.7555   -1.6189   -1.9408 H   0  0  0  0  0  0  0  0  0  0  0  0
    4.8744   -0.8233   -3.9219 H   0  0  0  0  0  0  0  0  0  0  0  0
    2.6886    6.2808    0.1630 H   0  0  0  0  0  0  0  0  0  0  0  0
    1.2431    5.7183    1.9906 H   0  0  0  0  0  0  0  0  0  0  0  0
    2.0141    0.7276    1.1200 H   0  0  0  0  0  0  0  0  0  0  0  0
   -0.0304    0.0025    2.1243 H   0  0  0  0  0  0  0  0  0  0  0  0
   -1.1034    1.8397    3.4158 H   0  0  0  0  0  0  0  0  0  0  0  0
    0.0999    4.0256    3.3731 H   0  0  0  0  0  0  0  0  0  0  0  0
    3.4410    6.4937   -1.6142 H   0  0  0  0  0  0  0  0  0  0  0  0
    2.5781    4.1433   -3.0612 H   0  0  0  0  0  0  0  0  0  0  0  0
    4.0037    4.8856   -4.8543 H   0  0  0  0  0  0  0  0  0  0  0  0
    5.0375    3.1681   -6.3240 H   0  0  0  0  0  0  0  0  0  0  0  0
    5.4649    0.9255   -5.3891 H   0  0  0  0  0  0  0  0  0  0  0  0
  1  2  1  0  0  0  0
  1 27  1  0  0  0  0
  2  3  2  0  0  0  0
  2  4  1  0  0  0  0
  4  5  2  0  0  0  0
  4  9  1  0  0  0  0
  5  6  1  0  0  0  0
  5 28  1  0  0  0  0
  6  7  2  0  0  0  0
  6 29  1  0  0  0  0
  7  8  1  0  0  0  0
  7 26  1  0  0  0  0
  8  9  2  0  0  0  0
  8 23  1  0  0  0  0
  9 10  1  0  0  0  0
 10 11  2  0  0  0  0
 10 15  1  0  0  0  0
 11 12  1  0  0  0  0
 11 20  1  0  0  0  0
 12 13  2  0  0  0  0
 12 30  1  0  0  0  0
 13 14  1  0  0  0  0
 13 31  1  0  0  0  0
 14 15  2  0  0  0  0
 14 19  1  0  0  0  0
 15 16  1  0  0  0  0
 16 17  2  0  0  0  0
 16 32  1  0  0  0  0
 17 18  1  0  0  0  0
 17 33  1  0  0  0  0
 18 19  2  0  0  0  0
 18 34  1  0  0  0  0
 19 35  1  0  0  0  0
 20 21  2  0  0  0  0
 20 22  1  0  0  0  0
 22 36  1  0  0  0  0
 23 24  2  0  0  0  0
 23 37  1  0  0  0  0
 24 25  1  0  0  0  0
 24 38  1  0  0  0  0
 25 26  2  0  0  0  0
 25 39  1  0  0  0  0
 26 40  1  0  0  0  0
M  END
$$$$
