C1E
 OpenBabel04121316093D

 26 26  0  0  0  0  0  0  0  0999 V2000
    1.1619    0.1660    0.1271 O   0  0  0  0  0  0  0  0  0  0  0  0
    2.3443   -0.0098   -0.0842 C   0  0  0  0  0  0  0  0  0  0  0  0
    2.9117   -1.1260   -0.7915 C   0  0  0  0  0  0  0  0  0  0  0  0
    3.8259   -0.8568   -1.8129 C   0  0  0  0  0  0  0  0  0  0  0  0
    4.3127   -1.9130   -2.5440 C   0  0  0  0  0  0  0  0  0  0  0  0
    3.9613   -3.2089   -2.1656 C   0  0  0  0  0  0  0  0  0  0  0  0
    3.1561   -3.4551   -1.0434 C   0  0  0  0  0  0  0  0  0  0  0  0
    2.5697   -2.3997   -0.3749 C   0  0  0  0  0  0  0  0  0  0  0  0
    3.3034    0.9681    0.3858 C   0  0  0  0  0  0  0  0  0  0  0  0
    4.5852    1.0512    0.6811 C   0  0  0  0  0  0  0  0  0  0  0  0
    4.9792    2.2730    1.3523 C   0  0  0  0  0  0  0  0  0  0  0  0
    4.2133    3.2412    1.9450 C   0  0  0  0  0  0  0  0  0  0  0  0
    2.6860    3.5167    2.1430 C   0  0  0  0  0  0  0  0  0  0  0  0
    2.3804    4.5876    2.6755 O   0  0  0  0  0  0  0  0  0  0  0  0
    1.6251    2.7542    1.8086 O   0  0  0  0  0  0  0  0  0  0  0  0
    4.9479    4.3080    2.5243 O   0  0  0  0  0  0  0  0  0  0  0  0
    6.7411    2.4173    1.3950 Cl  0  0  0  0  0  0  0  0  0  0  0  0
    4.1511    0.1586   -2.0340 H   0  0  0  0  0  0  0  0  0  0  0  0
    4.9562   -1.7188   -3.3954 H   0  0  0  0  0  0  0  0  0  0  0  0
    4.3214   -4.0425   -2.7568 H   0  0  0  0  0  0  0  0  0  0  0  0
    2.9763   -4.4680   -0.7001 H   0  0  0  0  0  0  0  0  0  0  0  0
    1.8925   -2.5467    0.4637 H   0  0  0  0  0  0  0  0  0  0  0  0
    2.8144    1.9039    0.4064 H   0  0  0  0  0  0  0  0  0  0  0  0
    5.3011    0.2624    0.4418 H   0  0  0  0  0  0  0  0  0  0  0  0
    1.4205    1.8918    1.3865 H   0  0  0  0  0  0  0  0  0  0  0  0
    5.8985    4.1350    2.4168 H   0  0  0  0  0  0  0  0  0  0  0  0
  1  2  2  0  0  0  0
  2  3  1  0  0  0  0
  2  9  1  0  0  0  0
  3  4  2  0  0  0  0
  3  8  1  0  0  0  0
  4  5  1  0  0  0  0
  4 18  1  0  0  0  0
  5  6  2  0  0  0  0
  5 19  1  0  0  0  0
  6  7  1  0  0  0  0
  6 20  1  0  0  0  0
  7  8  2  0  0  0  0
  7 21  1  0  0  0  0
  8 22  1  0  0  0  0
  9 10  2  0  0  0  0
  9 23  1  0  0  0  0
 10 11  1  0  0  0  0
 10 24  1  0  0  0  0
 11 12  2  0  0  0  0
 11 17  1  0  0  0  0
 12 13  1  0  0  0  0
 12 16  1  0  0  0  0
 13 14  2  0  0  0  0
 13 15  1  0  0  0  0
 15 25  1  0  0  0  0
 16 26  1  0  0  0  0
M  END
$$$$
