C1R
 OpenBabel04121316093D

 28 28  0  0  0  0  0  0  0  0999 V2000
    0.9726   -0.0481    0.0959 O   0  0  0  0  0  0  0  0  0  0  0  0
    2.2025   -0.0560    0.0755 C   0  0  0  0  0  0  0  0  0  0  0  0
    2.9861   -0.5662   -1.0949 C   0  0  0  0  0  0  0  0  0  0  0  0
    4.4782   -0.4416   -0.8227 C   0  0  0  0  0  0  0  0  0  0  0  0
    5.2446   -0.9457   -2.0286 C   0  0  0  0  0  0  0  0  0  0  0  0
    6.7691   -0.8705   -1.8174 C   0  0  0  0  0  0  0  0  0  0  0  0
    7.3645   -2.2760   -1.6535 C   0  0  0  0  0  0  0  0  0  0  0  0
    7.2134   -3.0903   -2.9416 C   0  0  0  0  0  0  0  0  0  0  0  0
    7.8246   -2.4060   -4.0826 N   0  0  0  0  0  0  0  0  0  0  0  0
    7.2756   -1.0626   -4.2824 C   0  0  0  0  0  0  0  0  0  0  0  0
    7.4354   -0.2023   -3.0275 C   0  0  0  0  0  0  0  0  0  0  0  0
    2.7839    0.3182    0.9335 H   0  0  0  0  0  0  0  0  0  0  0  0
    2.7125    0.0178   -1.9808 H   0  0  0  0  0  0  0  0  0  0  0  0
    2.7176   -1.6147   -1.2657 H   0  0  0  0  0  0  0  0  0  0  0  0
    4.7541   -1.0216    0.0659 H   0  0  0  0  0  0  0  0  0  0  0  0
    4.7440    0.6041   -0.6277 H   0  0  0  0  0  0  0  0  0  0  0  0
    4.9394   -0.3563   -2.9013 H   0  0  0  0  0  0  0  0  0  0  0  0
    4.9141   -1.9714   -2.2210 H   0  0  0  0  0  0  0  0  0  0  0  0
    6.9998   -0.2797   -0.9215 H   0  0  0  0  0  0  0  0  0  0  0  0
    6.8822   -2.7969   -0.8178 H   0  0  0  0  0  0  0  0  0  0  0  0
    8.4301   -2.1932   -1.3999 H   0  0  0  0  0  0  0  0  0  0  0  0
    6.1591   -3.2913   -3.1615 H   0  0  0  0  0  0  0  0  0  0  0  0
    7.6819   -4.0695   -2.8051 H   0  0  0  0  0  0  0  0  0  0  0  0
    7.6588   -2.9583   -4.9233 H   0  0  0  0  0  0  0  0  0  0  0  0
    6.2200   -1.1329   -4.5721 H   0  0  0  0  0  0  0  0  0  0  0  0
    7.7920   -0.5794   -5.1177 H   0  0  0  0  0  0  0  0  0  0  0  0
    7.0011    0.7917   -3.1918 H   0  0  0  0  0  0  0  0  0  0  0  0
    8.5020   -0.0460   -2.8193 H   0  0  0  0  0  0  0  0  0  0  0  0
  1  2  2  0  0  0  0
  2  3  1  0  0  0  0
  2 12  1  0  0  0  0
  3  4  1  0  0  0  0
  3 13  1  0  0  0  0
  3 14  1  0  0  0  0
  4  5  1  0  0  0  0
  4 15  1  0  0  0  0
  4 16  1  0  0  0  0
  5  6  1  0  0  0  0
  5 17  1  0  0  0  0
  5 18  1  0  0  0  0
  6  7  1  0  0  0  0
  6 11  1  0  0  0  0
  6 19  1  0  0  0  0
  7  8  1  0  0  0  0
  7 20  1  0  0  0  0
  7 21  1  0  0  0  0
  8  9  1  0  0  0  0
  8 22  1  0  0  0  0
  8 23  1  0  0  0  0
  9 10  1  0  0  0  0
  9 24  1  0  0  0  0
 10 11  1  0  0  0  0
 10 25  1  0  0  0  0
 10 26  1  0  0  0  0
 11 27  1  0  0  0  0
 11 28  1  0  0  0  0
M  END
$$$$
