C2A
 OpenBabel04121316093D

 17 17  0  0  0  0  0  0  0  0999 V2000
    1.0291    0.1116    0.0590 N   0  0  0  0  0  0  0  0  0  0  0  0
    2.4866    0.0781    0.0595 C   0  0  0  0  0  0  0  0  0  0  0  0
    3.0040   -0.0279   -1.3517 C   0  0  0  0  0  0  0  0  0  0  0  0
    3.2291    1.1261   -2.1133 C   0  0  0  0  0  0  0  0  0  0  0  0
    3.5966    1.0315   -3.4583 C   0  0  0  0  0  0  0  0  0  0  0  0
    3.6666   -0.2201   -4.0695 C   0  0  0  0  0  0  0  0  0  0  0  0
    3.4489   -1.3702   -3.3184 C   0  0  0  0  0  0  0  0  0  0  0  0
    3.1628   -1.2851   -1.9544 C   0  0  0  0  0  0  0  0  0  0  0  0
    3.4787   -2.9123   -4.0830 Cl  0  0  0  0  0  0  0  0  0  0  0  0
    0.6867    0.1154    1.0166 H   0  0  0  0  0  0  0  0  0  0  0  0
    0.6748   -0.7410   -0.3727 H   0  0  0  0  0  0  0  0  0  0  0  0
    2.8429   -0.7670    0.6588 H   0  0  0  0  0  0  0  0  0  0  0  0
    2.8716    0.9882    0.5327 H   0  0  0  0  0  0  0  0  0  0  0  0
    3.0904    2.1095   -1.6672 H   0  0  0  0  0  0  0  0  0  0  0  0
    3.7933    1.9319   -4.0317 H   0  0  0  0  0  0  0  0  0  0  0  0
    3.8769   -0.2876   -5.1344 H   0  0  0  0  0  0  0  0  0  0  0  0
    3.0278   -2.1911   -1.3726 H   0  0  0  0  0  0  0  0  0  0  0  0
  1  2  1  0  0  0  0
  1 10  1  0  0  0  0
  1 11  1  0  0  0  0
  2  3  1  0  0  0  0
  2 12  1  0  0  0  0
  2 13  1  0  0  0  0
  3  4  2  0  0  0  0
  3  8  1  0  0  0  0
  4  5  1  0  0  0  0
  4 14  1  0  0  0  0
  5  6  2  0  0  0  0
  5 15  1  0  0  0  0
  6  7  1  0  0  0  0
  6 16  1  0  0  0  0
  7  8  2  0  0  0  0
  7  9  1  0  0  0  0
  8 17  1  0  0  0  0
M  END
$$$$
