C3B
 OpenBabel04121316093D

 34 35  0  0  1  0  0  0  0  0999 V2000
    1.3075    1.1410    0.5443 O   0  0  0  0  0  0  0  0  0  0  0  0
    2.6017    0.5755    0.3346 C   0  0  0  0  0  0  0  0  0  0  0  0
    2.9991   -0.8488    0.9540 C   0  0  1  0  0  0  0  0  0  0  0  0
    2.9363   -0.6912    2.0401 H   0  0  0  0  0  0  0  0  0  0  0  0
    2.2359   -2.0783    0.7782 O   0  0  0  0  0  0  0  0  0  0  0  0
    2.2355   -2.7964   -0.4762 C   0  0  2  0  0  0  0  0  0  0  0  0
    1.6665   -3.7259   -0.3189 H   0  0  0  0  0  0  0  0  0  0  0  0
    3.6886   -3.1602   -0.8768 C   0  0  1  0  0  0  0  0  0  0  0  0
    3.6880   -3.5881   -1.8863 H   0  0  0  0  0  0  0  0  0  0  0  0
    4.5242   -1.8665   -0.8470 C   0  0  2  0  0  0  0  0  0  0  0  0
    5.5690   -2.1312   -1.0301 H   0  0  0  0  0  0  0  0  0  0  0  0
    4.4524   -1.1356    0.5258 C   0  0  2  0  0  0  0  0  0  0  0  0
    4.9949   -0.1868    0.4717 H   0  0  0  0  0  0  0  0  0  0  0  0
    5.0921   -1.9046    1.5499 O   0  0  0  0  0  0  0  0  0  0  0  0
    4.1573   -0.9999   -1.9299 O   0  0  0  0  0  0  0  0  0  0  0  0
    4.3081   -4.1535   -0.0431 O   0  0  0  0  0  0  0  0  0  0  0  0
    1.5458   -1.9983   -1.4925 N   0  0  0  0  0  0  0  0  0  0  0  0
    1.1506   -2.4188   -2.7629 C   0  0  0  0  0  0  0  0  0  0  0  0
    0.4314   -1.5547   -3.5092 C   0  0  0  0  0  0  0  0  0  0  0  0
    0.5280   -0.1351   -3.0712 C   0  0  0  0  0  0  0  0  0  0  0  0
    0.7064    0.1213   -1.8163 N   0  0  0  0  0  0  0  0  0  0  0  0
    0.7129   -1.0029   -1.0224 C   0  0  0  0  0  0  0  0  0  0  0  0
    0.0842   -1.0606    0.0304 O   0  0  0  0  0  0  0  0  0  0  0  0
    0.4613    0.9030   -3.9521 N   0  0  0  0  0  0  0  0  0  0  0  0
    0.8088    1.0751   -0.3042 H   0  0  0  0  0  0  0  0  0  0  0  0
    3.2437    1.3330    0.7897 H   0  0  0  0  0  0  0  0  0  0  0  0
    2.8460    0.6253   -0.7280 H   0  0  0  0  0  0  0  0  0  0  0  0
    5.9346   -2.2321    1.1915 H   0  0  0  0  0  0  0  0  0  0  0  0
    3.1851   -0.9999   -2.0297 H   0  0  0  0  0  0  0  0  0  0  0  0
    3.6645   -4.8518    0.1680 H   0  0  0  0  0  0  0  0  0  0  0  0
    1.2983   -3.4561   -3.0405 H   0  0  0  0  0  0  0  0  0  0  0  0
   -0.1571   -1.7751   -4.3815 H   0  0  0  0  0  0  0  0  0  0  0  0
   -0.0860    0.8166   -4.7974 H   0  0  0  0  0  0  0  0  0  0  0  0
    0.5492    1.8481   -3.5857 H   0  0  0  0  0  0  0  0  0  0  0  0
  1  2  1  0  0  0  0
  1 25  1  0  0  0  0
  2  3  1  0  0  0  0
  2 26  1  0  0  0  0
  2 27  1  0  0  0  0
  3  4  1  1  0  0  0
  3  5  1  0  0  0  0
  3 12  1  0  0  0  0
  5  6  1  0  0  0  0
  6  8  1  0  0  0  0
  6 17  1  0  0  0  0
  6  7  1  1  0  0  0
  8  9  1  6  0  0  0
  8 10  1  0  0  0  0
  8 16  1  0  0  0  0
 10 12  1  0  0  0  0
 10 15  1  0  0  0  0
 10 11  1  6  0  0  0
 12 13  1  6  0  0  0
 12 14  1  0  0  0  0
 14 28  1  0  0  0  0
 15 29  1  0  0  0  0
 16 30  1  0  0  0  0
 17 18  1  0  0  0  0
 17 22  1  0  0  0  0
 18 19  2  0  0  0  0
 18 31  1  0  0  0  0
 19 20  1  0  0  0  0
 19 32  1  0  0  0  0
 20 21  2  0  0  0  0
 20 24  1  0  0  0  0
 21 22  1  0  0  0  0
 22 23  2  0  0  0  0
 24 33  1  0  0  0  0
 24 34  1  0  0  0  0
M  END
$$$$
