C4M
 OpenBabel04121316093D

 55 56  0  0  1  0  0  0  0  0999 V2000
    0.8578    1.8505   -2.1002 C   0  0  0  0  0  0  0  0  0  0  0  0
    0.4713    1.7833   -3.4731 O   0  0  0  0  0  0  0  0  0  0  0  0
    0.4332    0.5001   -3.9597 C   0  0  0  0  0  0  0  0  0  0  0  0
   -0.8124    0.0183   -4.3670 C   0  0  0  0  0  0  0  0  0  0  0  0
   -0.9436   -1.2746   -4.9003 C   0  0  0  0  0  0  0  0  0  0  0  0
   -2.3203   -1.7624   -5.2842 C   0  0  0  0  0  0  0  0  0  0  0  0
    0.2111   -2.0875   -5.0617 C   0  0  0  0  0  0  0  0  0  0  0  0
    1.4892   -1.5783   -4.7208 C   0  0  0  0  0  0  0  0  0  0  0  0
    1.5926   -0.2677   -4.1637 C   0  0  0  0  0  0  0  0  0  0  0  0
    2.9527    0.3053   -3.8296 C   0  0  0  0  0  0  0  0  0  0  0  0
    2.7971   -2.2984   -4.8833 C   0  0  0  0  0  0  0  0  0  0  0  0
   -0.0989   -3.7290   -5.7160 S   0  0  0  0  0  0  0  0  0  0  0  0
   -0.8935   -4.4477   -4.7312 O   0  0  0  0  0  0  0  0  0  0  0  0
   -0.5334   -3.5837   -7.0820 O   0  0  0  0  0  0  0  0  0  0  0  0
    1.3234   -4.5649   -5.7410 N   0  0  0  0  0  0  0  0  0  0  0  0
    1.2794   -5.8550   -6.4188 C   0  0  0  0  0  0  0  0  0  0  0  0
    2.6712   -6.4746   -6.4212 C   0  0  2  0  0  0  0  0  0  0  0  0
    2.5372   -7.2678   -7.1558 H   0  0  0  0  0  0  0  0  0  0  0  0
    3.1657   -7.0553   -5.0460 C   0  0  2  0  0  0  0  0  0  0  0  0
    4.2549   -6.9304   -4.9737 H   0  0  0  0  0  0  0  0  0  0  0  0
    2.8838   -8.5760   -4.9468 C   0  0  0  0  0  0  0  0  0  0  0  0
    3.5131   -9.4304   -6.0389 C   0  0  0  0  0  0  0  0  0  0  0  0
    4.1909   -8.8912   -7.1426 C   0  0  0  0  0  0  0  0  0  0  0  0
    4.3513   -9.5942   -8.3250 C   0  0  0  0  0  0  0  0  0  0  0  0
    4.1106  -10.9513   -8.3217 C   0  0  0  0  0  0  0  0  0  0  0  0
    3.6936  -11.5707   -7.1429 C   0  0  0  0  0  0  0  0  0  0  0  0
    3.3211  -10.8092   -6.0305 C   0  0  0  0  0  0  0  0  0  0  0  0
    2.5991   -6.3262   -3.8859 N   0  0  0  0  0  0  0  0  0  0  0  0
    3.6440   -5.5677   -6.9666 O   0  0  0  0  0  0  0  0  0  0  0  0
    0.8175    2.8966   -1.7865 H   0  0  0  0  0  0  0  0  0  0  0  0
    1.8887    1.5544   -1.9301 H   0  0  0  0  0  0  0  0  0  0  0  0
    0.2018    1.2506   -1.4636 H   0  0  0  0  0  0  0  0  0  0  0  0
   -1.6907    0.6540   -4.2635 H   0  0  0  0  0  0  0  0  0  0  0  0
   -3.0904   -1.0087   -5.1008 H   0  0  0  0  0  0  0  0  0  0  0  0
   -2.5898   -2.6409   -4.6907 H   0  0  0  0  0  0  0  0  0  0  0  0
   -2.3602   -2.0081   -6.3499 H   0  0  0  0  0  0  0  0  0  0  0  0
    3.7943   -0.3306   -4.0981 H   0  0  0  0  0  0  0  0  0  0  0  0
    3.0783    0.4069   -2.7541 H   0  0  0  0  0  0  0  0  0  0  0  0
    3.1046    1.2524   -4.3526 H   0  0  0  0  0  0  0  0  0  0  0  0
    2.8084   -3.2065   -5.4458 H   0  0  0  0  0  0  0  0  0  0  0  0
    3.2129   -2.5165   -3.8927 H   0  0  0  0  0  0  0  0  0  0  0  0
    3.4807   -1.6925   -5.4841 H   0  0  0  0  0  0  0  0  0  0  0  0
    1.7511   -4.6780   -4.8149 H   0  0  0  0  0  0  0  0  0  0  0  0
    0.9508   -5.7193   -7.4531 H   0  0  0  0  0  0  0  0  0  0  0  0
    0.5854   -6.5184   -5.8954 H   0  0  0  0  0  0  0  0  0  0  0  0
    1.7935   -8.7231   -4.9876 H   0  0  0  0  0  0  0  0  0  0  0  0
    3.2174   -8.9520   -3.9706 H   0  0  0  0  0  0  0  0  0  0  0  0
    4.5420   -7.8736   -7.1654 H   0  0  0  0  0  0  0  0  0  0  0  0
    4.6665   -9.0687   -9.2234 H   0  0  0  0  0  0  0  0  0  0  0  0
    4.2764  -11.5219   -9.2286 H   0  0  0  0  0  0  0  0  0  0  0  0
    3.6246  -12.6522   -7.1048 H   0  0  0  0  0  0  0  0  0  0  0  0
    2.8716  -11.2974   -5.1694 H   0  0  0  0  0  0  0  0  0  0  0  0
    2.9566   -6.7315   -3.0192 H   0  0  0  0  0  0  0  0  0  0  0  0
    1.5886   -6.4863   -3.8468 H   0  0  0  0  0  0  0  0  0  0  0  0
    4.5255   -5.9723   -6.9095 H   0  0  0  0  0  0  0  0  0  0  0  0
  1  2  1  0  0  0  0
  1 30  1  0  0  0  0
  1 31  1  0  0  0  0
  1 32  1  0  0  0  0
  2  3  1  0  0  0  0
  3  4  2  0  0  0  0
  3  9  1  0  0  0  0
  4  5  1  0  0  0  0
  4 33  1  0  0  0  0
  5  6  1  0  0  0  0
  5  7  2  0  0  0  0
  6 34  1  0  0  0  0
  6 35  1  0  0  0  0
  6 36  1  0  0  0  0
  7  8  1  0  0  0  0
  7 12  1  0  0  0  0
  8  9  2  0  0  0  0
  8 11  1  0  0  0  0
  9 10  1  0  0  0  0
 10 37  1  0  0  0  0
 10 38  1  0  0  0  0
 10 39  1  0  0  0  0
 11 40  1  0  0  0  0
 11 41  1  0  0  0  0
 11 42  1  0  0  0  0
 12 13  2  0  0  0  0
 12 14  2  0  0  0  0
 12 15  1  0  0  0  0
 15 16  1  0  0  0  0
 15 43  1  0  0  0  0
 16 44  1  0  0  0  0
 16 45  1  0  0  0  0
 17 29  1  0  0  0  0
 17 18  1  6  0  0  0
 17 16  1  0  0  0  0
 19 21  1  0  0  0  0
 19 28  1  0  0  0  0
 19 20  1  1  0  0  0
 19 17  1  0  0  0  0
 21 22  1  0  0  0  0
 21 46  1  0  0  0  0
 21 47  1  0  0  0  0
 22 23  2  0  0  0  0
 22 27  1  0  0  0  0
 23 24  1  0  0  0  0
 23 48  1  0  0  0  0
 24 25  2  0  0  0  0
 24 49  1  0  0  0  0
 25 26  1  0  0  0  0
 25 50  1  0  0  0  0
 26 27  2  0  0  0  0
 26 51  1  0  0  0  0
 27 52  1  0  0  0  0
 28 53  1  0  0  0  0
 28 54  1  0  0  0  0
 29 55  1  0  0  0  0
M  END
$$$$
