C4P
 OpenBabel04121316093D

 61 63  0  0  1  0  0  0  0  0999 V2000
    1.0119   -0.3703    0.1997 O   0  0  0  0  0  0  0  0  0  0  0  0
    2.2280   -0.2289    0.0931 C   0  0  0  0  0  0  0  0  0  0  0  0
    2.9378    0.8744   -0.6878 C   0  0  1  0  0  0  0  0  0  0  0  0
    2.6217    0.8193   -1.7383 H   0  0  0  0  0  0  0  0  0  0  0  0
    2.4847    2.1245   -0.1099 N   0  0  0  0  0  0  0  0  0  0  0  0
    1.2188    2.6056   -0.3799 C   0  0  0  0  0  0  0  0  0  0  0  0
    0.3745    1.9910   -1.0245 O   0  0  0  0  0  0  0  0  0  0  0  0
    0.9911    4.0241    0.1224 C   0  0  1  0  0  0  0  0  0  0  0  0
    1.3286    4.1157    1.1631 H   0  0  0  0  0  0  0  0  0  0  0  0
    1.8434    4.8447   -0.7556 N   0  0  0  0  0  0  0  0  0  0  0  0
    3.1844    5.0556   -0.5510 C   0  0  0  0  0  0  0  0  0  0  0  0
    3.8297    4.4981    0.3146 O   0  0  0  0  0  0  0  0  0  0  0  0
    3.6639    6.0528   -1.3556 N   0  0  0  0  0  0  0  0  0  0  0  0
    4.0210    5.8320   -2.7505 C   0  0  0  0  0  0  0  0  0  0  0  0
    3.5188    7.0301   -3.5551 C   0  0  0  0  0  0  0  0  0  0  0  0
    4.0472    8.2661   -3.0299 O   0  0  0  0  0  0  0  0  0  0  0  0
    3.7061    8.4414   -1.6390 C   0  0  0  0  0  0  0  0  0  0  0  0
    4.2203    7.2709   -0.7911 C   0  0  0  0  0  0  0  0  0  0  0  0
   -0.5230    4.3387    0.0293 C   0  0  0  0  0  0  0  0  0  0  0  0
   -0.9156    5.7082    0.5366 C   0  0  0  0  0  0  0  0  0  0  0  0
   -2.0787    5.9089    1.2889 C   0  0  0  0  0  0  0  0  0  0  0  0
   -2.4859    7.2109    1.6051 C   0  0  0  0  0  0  0  0  0  0  0  0
   -1.6881    8.3062    1.2704 C   0  0  0  0  0  0  0  0  0  0  0  0
   -0.4857    8.1064    0.6213 C   0  0  0  0  0  0  0  0  0  0  0  0
   -0.1520    6.8324    0.2016 C   0  0  0  0  0  0  0  0  0  0  0  0
    4.4694    0.7075   -0.5714 C   0  0  0  0  0  0  0  0  0  0  0  0
    5.2820    1.9388   -1.6460 S   0  0  0  0  0  0  0  0  0  0  0  0
    7.0746    1.6909   -1.2832 C   0  0  0  0  0  0  0  0  0  0  0  0
    7.8403    2.7518   -2.0521 C   0  0  0  0  0  0  0  0  0  0  0  0
    7.6463    4.1074   -1.7366 C   0  0  0  0  0  0  0  0  0  0  0  0
    8.0504    5.1027   -2.6242 C   0  0  0  0  0  0  0  0  0  0  0  0
    8.7838    4.7661   -3.7576 C   0  0  0  0  0  0  0  0  0  0  0  0
    9.1359    3.4370   -3.9870 C   0  0  0  0  0  0  0  0  0  0  0  0
    8.6256    2.4265   -3.1670 C   0  0  0  0  0  0  0  0  0  0  0  0
    2.8833   -0.9004    0.6620 H   0  0  0  0  0  0  0  0  0  0  0  0
    3.1936    2.8322    0.1016 H   0  0  0  0  0  0  0  0  0  0  0  0
    1.4115    5.3181   -1.5336 H   0  0  0  0  0  0  0  0  0  0  0  0
    3.6159    4.8850   -3.1179 H   0  0  0  0  0  0  0  0  0  0  0  0
    5.1159    5.7810   -2.8047 H   0  0  0  0  0  0  0  0  0  0  0  0
    2.4239    7.0737   -3.5205 H   0  0  0  0  0  0  0  0  0  0  0  0
    3.8272    6.9466   -4.6009 H   0  0  0  0  0  0  0  0  0  0  0  0
    2.6147    8.5252   -1.5581 H   0  0  0  0  0  0  0  0  0  0  0  0
    4.1420    9.3850   -1.2991 H   0  0  0  0  0  0  0  0  0  0  0  0
    3.9208    7.3766    0.2563 H   0  0  0  0  0  0  0  0  0  0  0  0
    5.3134    7.2066   -0.8431 H   0  0  0  0  0  0  0  0  0  0  0  0
   -1.0794    3.5707    0.5902 H   0  0  0  0  0  0  0  0  0  0  0  0
   -0.8677    4.2520   -1.0113 H   0  0  0  0  0  0  0  0  0  0  0  0
   -2.6852    5.0689    1.6253 H   0  0  0  0  0  0  0  0  0  0  0  0
   -3.4289    7.3782    2.1174 H   0  0  0  0  0  0  0  0  0  0  0  0
   -1.9968    9.3177    1.5087 H   0  0  0  0  0  0  0  0  0  0  0  0
    0.1969    8.9215    0.4063 H   0  0  0  0  0  0  0  0  0  0  0  0
    0.7370    6.7720   -0.4018 H   0  0  0  0  0  0  0  0  0  0  0  0
    4.7656   -0.2931   -0.8988 H   0  0  0  0  0  0  0  0  0  0  0  0
    4.7887    0.8466    0.4682 H   0  0  0  0  0  0  0  0  0  0  0  0
    7.3650    0.6886   -1.6159 H   0  0  0  0  0  0  0  0  0  0  0  0
    7.2934    1.7806   -0.2134 H   0  0  0  0  0  0  0  0  0  0  0  0
    7.0963    4.3855   -0.8391 H   0  0  0  0  0  0  0  0  0  0  0  0
    7.7633    6.1351   -2.4440 H   0  0  0  0  0  0  0  0  0  0  0  0
    9.0779    5.5397   -4.4618 H   0  0  0  0  0  0  0  0  0  0  0  0
    9.7748    3.1864   -4.8299 H   0  0  0  0  0  0  0  0  0  0  0  0
    8.8127    1.3887   -3.4323 H   0  0  0  0  0  0  0  0  0  0  0  0
  1  2  2  0  0  0  0
  2  3  1  0  0  0  0
  2 35  1  0  0  0  0
  3  4  1  6  0  0  0
  3  5  1  0  0  0  0
  3 26  1  0  0  0  0
  5  6  1  0  0  0  0
  5 36  1  0  0  0  0
  6  7  2  0  0  0  0
  6  8  1  0  0  0  0
  8  9  1  1  0  0  0
  8 10  1  0  0  0  0
  8 19  1  0  0  0  0
 10 11  1  0  0  0  0
 10 37  1  0  0  0  0
 11 12  2  0  0  0  0
 11 13  1  0  0  0  0
 13 14  1  0  0  0  0
 13 18  1  0  0  0  0
 14 15  1  0  0  0  0
 14 38  1  0  0  0  0
 14 39  1  0  0  0  0
 15 16  1  0  0  0  0
 15 40  1  0  0  0  0
 15 41  1  0  0  0  0
 16 17  1  0  0  0  0
 17 18  1  0  0  0  0
 17 42  1  0  0  0  0
 17 43  1  0  0  0  0
 18 44  1  0  0  0  0
 18 45  1  0  0  0  0
 19 20  1  0  0  0  0
 19 46  1  0  0  0  0
 19 47  1  0  0  0  0
 20 21  2  0  0  0  0
 20 25  1  0  0  0  0
 21 22  1  0  0  0  0
 21 48  1  0  0  0  0
 22 23  2  0  0  0  0
 22 49  1  0  0  0  0
 23 24  1  0  0  0  0
 23 50  1  0  0  0  0
 24 25  2  0  0  0  0
 24 51  1  0  0  0  0
 25 52  1  0  0  0  0
 26 27  1  0  0  0  0
 26 53  1  0  0  0  0
 26 54  1  0  0  0  0
 27 28  1  0  0  0  0
 28 29  1  0  0  0  0
 28 55  1  0  0  0  0
 28 56  1  0  0  0  0
 29 30  2  0  0  0  0
 29 34  1  0  0  0  0
 30 31  1  0  0  0  0
 30 57  1  0  0  0  0
 31 32  2  0  0  0  0
 31 58  1  0  0  0  0
 32 33  1  0  0  0  0
 32 59  1  0  0  0  0
 33 34  2  0  0  0  0
 33 60  1  0  0  0  0
 34 61  1  0  0  0  0
M  END
$$$$
