C50
 OpenBabel04121316093D

 42 43  0  0  0  0  0  0  0  0999 V2000
    0.9998   -0.1854   -0.0989 N   0  0  0  0  0  0  0  0  0  0  0  0
    2.3507   -0.1427   -0.0828 C   0  0  0  0  0  0  0  0  0  0  0  0
    2.8392    1.0277   -0.0912 N   0  0  0  0  0  0  0  0  0  0  0  0
    4.2913    1.1823   -0.0513 C   0  0  0  0  0  0  0  0  0  0  0  0
    5.0702   -0.0425   -0.1897 N   0  0  0  0  0  0  0  0  0  0  0  0
    4.3620   -1.2148   -0.0925 C   0  0  0  0  0  0  0  0  0  0  0  0
    3.0667   -1.3019   -0.0515 N   0  0  0  0  0  0  0  0  0  0  0  0
    5.0988   -2.3513   -0.0739 N   0  0  0  0  0  0  0  0  0  0  0  0
    6.4826   -0.0930    0.0911 O   0  0  0  0  0  0  0  0  0  0  0  0
    7.0861    1.1800   -0.0990 C   0  0  0  0  0  0  0  0  0  0  0  0
    8.5755    1.2674   -0.0215 C   0  0  0  0  0  0  0  0  0  0  0  0
    8.9087    2.7608   -0.0685 C   0  0  0  0  0  0  0  0  0  0  0  0
   10.3132    2.8400   -0.1678 O   0  0  0  0  0  0  0  0  0  0  0  0
   10.8591    4.0830   -0.0498 C   0  0  0  0  0  0  0  0  0  0  0  0
   10.1646    5.2683   -0.3116 C   0  0  0  0  0  0  0  0  0  0  0  0
   10.7660    6.4912   -0.0414 C   0  0  0  0  0  0  0  0  0  0  0  0
   12.1281    6.5355    0.2448 C   0  0  0  0  0  0  0  0  0  0  0  0
   12.8595    5.3530    0.3885 C   0  0  0  0  0  0  0  0  0  0  0  0
   12.2066    4.1229    0.3322 C   0  0  0  0  0  0  0  0  0  0  0  0
   13.0125    2.6492    0.7768 Cl  0  0  0  0  0  0  0  0  0  0  0  0
   14.5670    5.4777    0.6073 Cl  0  0  0  0  0  0  0  0  0  0  0  0
    4.4656    1.7941    1.3618 C   0  0  0  0  0  0  0  0  0  0  0  0
    4.4911    2.0273   -1.3383 C   0  0  0  0  0  0  0  0  0  0  0  0
    0.5206    0.7031   -0.0727 H   0  0  0  0  0  0  0  0  0  0  0  0
    0.4988   -1.0511   -0.0574 H   0  0  0  0  0  0  0  0  0  0  0  0
    6.1052   -2.2939   -0.0972 H   0  0  0  0  0  0  0  0  0  0  0  0
    4.6338   -3.2466   -0.0710 H   0  0  0  0  0  0  0  0  0  0  0  0
    6.7553    1.8814    0.6520 H   0  0  0  0  0  0  0  0  0  0  0  0
    6.8923    1.5482   -1.0924 H   0  0  0  0  0  0  0  0  0  0  0  0
    9.0119    0.7568   -0.8845 H   0  0  0  0  0  0  0  0  0  0  0  0
    8.9672    0.7957    0.8818 H   0  0  0  0  0  0  0  0  0  0  0  0
    8.5336    3.2752    0.8320 H   0  0  0  0  0  0  0  0  0  0  0  0
    8.4404    3.2289   -0.9467 H   0  0  0  0  0  0  0  0  0  0  0  0
    9.1607    5.2708   -0.7262 H   0  0  0  0  0  0  0  0  0  0  0  0
   10.1785    7.4053   -0.0781 H   0  0  0  0  0  0  0  0  0  0  0  0
   12.6201    7.4989    0.3411 H   0  0  0  0  0  0  0  0  0  0  0  0
    3.9844    1.1310    2.0959 H   0  0  0  0  0  0  0  0  0  0  0  0
    3.9933    2.7768    1.4298 H   0  0  0  0  0  0  0  0  0  0  0  0
    5.4597    1.8926    1.7882 H   0  0  0  0  0  0  0  0  0  0  0  0
    4.1557    1.4252   -2.2001 H   0  0  0  0  0  0  0  0  0  0  0  0
    5.4831    2.3455   -1.6309 H   0  0  0  0  0  0  0  0  0  0  0  0
    3.9097    2.9491   -1.3165 H   0  0  0  0  0  0  0  0  0  0  0  0
  1  2  1  0  0  0  0
  1 24  1  0  0  0  0
  1 25  1  0  0  0  0
  2  3  2  0  0  0  0
  2  7  1  0  0  0  0
  3  4  1  0  0  0  0
  4  5  1  0  0  0  0
  4 22  1  0  0  0  0
  4 23  1  0  0  0  0
  5  6  1  0  0  0  0
  5  9  1  0  0  0  0
  6  7  2  0  0  0  0
  6  8  1  0  0  0  0
  8 26  1  0  0  0  0
  8 27  1  0  0  0  0
  9 10  1  0  0  0  0
 10 11  1  0  0  0  0
 10 28  1  0  0  0  0
 10 29  1  0  0  0  0
 11 12  1  0  0  0  0
 11 30  1  0  0  0  0
 11 31  1  0  0  0  0
 12 13  1  0  0  0  0
 12 32  1  0  0  0  0
 12 33  1  0  0  0  0
 13 14  1  0  0  0  0
 14 15  2  0  0  0  0
 14 19  1  0  0  0  0
 15 16  1  0  0  0  0
 15 34  1  0  0  0  0
 16 17  2  0  0  0  0
 16 35  1  0  0  0  0
 17 18  1  0  0  0  0
 17 36  1  0  0  0  0
 18 19  2  0  0  0  0
 18 21  1  0  0  0  0
 19 20  1  0  0  0  0
 22 37  1  0  0  0  0
 22 38  1  0  0  0  0
 22 39  1  0  0  0  0
 23 40  1  0  0  0  0
 23 41  1  0  0  0  0
 23 42  1  0  0  0  0
M  END
$$$$
