C52
 OpenBabel04121316093D

 44 47  0  0  0  0  0  0  0  0999 V2000
    0.8828    0.0772   -0.0437 N   0  0  0  0  0  0  0  0  0  0  0  0
    2.2379    0.0676   -0.0435 C   0  0  0  0  0  0  0  0  0  0  0  0
    2.8474    1.2571   -0.1073 N   0  0  0  0  0  0  0  0  0  0  0  0
    4.1760    1.2222   -0.0558 C   0  0  0  0  0  0  0  0  0  0  0  0
    4.8690    0.0372    0.0167 C   0  0  0  0  0  0  0  0  0  0  0  0
    4.1542   -1.1440   -0.0147 C   0  0  0  0  0  0  0  0  0  0  0  0
    2.8264   -1.1334    0.0132 N   0  0  0  0  0  0  0  0  0  0  0  0
    4.8791   -2.3145   -0.0936 C   0  0  0  0  0  0  0  0  0  0  0  0
    6.2386   -2.2634   -0.3965 C   0  0  0  0  0  0  0  0  0  0  0  0
    6.9783   -1.0869   -0.2241 C   0  0  0  0  0  0  0  0  0  0  0  0
    6.2382    0.0213    0.1492 C   0  0  0  0  0  0  0  0  0  0  0  0
    8.4646   -1.0216   -0.2720 C   0  0  0  0  0  0  0  0  0  0  0  0
    9.2034    0.1191   -0.2532 C   0  0  0  0  0  0  0  0  0  0  0  0
    8.7369    1.5560   -0.2770 C   0  0  0  0  0  0  0  0  0  0  0  0
   10.6382    0.0456   -0.0547 C   0  0  0  0  0  0  0  0  0  0  0  0
   11.2261   -1.1101    0.2626 C   0  0  0  0  0  0  0  0  0  0  0  0
   10.5635   -2.3118    0.1295 N   0  0  0  0  0  0  0  0  0  0  0  0
    9.2325   -2.3315   -0.3216 C   0  0  0  0  0  0  0  0  0  0  0  0
    8.7058   -3.3298   -0.7864 O   0  0  0  0  0  0  0  0  0  0  0  0
   11.2661   -3.5622    0.0821 C   0  0  0  0  0  0  0  0  0  0  0  0
   12.5915   -3.6118   -0.3589 C   0  0  0  0  0  0  0  0  0  0  0  0
   13.2262   -4.8365   -0.5429 C   0  0  0  0  0  0  0  0  0  0  0  0
   12.5034   -6.0208   -0.4158 C   0  0  0  0  0  0  0  0  0  0  0  0
   11.1690   -5.9971    0.0003 C   0  0  0  0  0  0  0  0  0  0  0  0
   10.5981   -4.7696    0.3381 C   0  0  0  0  0  0  0  0  0  0  0  0
   10.3512   -7.2594    0.0409 C   0  0  0  0  0  0  0  0  0  0  0  0
   10.2793   -7.8715   -1.1748 F   0  0  0  0  0  0  0  0  0  0  0  0
   10.8794   -8.1802    0.8922 F   0  0  0  0  0  0  0  0  0  0  0  0
    9.0619   -7.0770    0.4411 F   0  0  0  0  0  0  0  0  0  0  0  0
    0.4310    0.9684   -0.1240 H   0  0  0  0  0  0  0  0  0  0  0  0
    0.4282   -0.8168   -0.0313 H   0  0  0  0  0  0  0  0  0  0  0  0
    4.6871    2.1798   -0.1207 H   0  0  0  0  0  0  0  0  0  0  0  0
    4.4012   -3.2813    0.0222 H   0  0  0  0  0  0  0  0  0  0  0  0
    6.6689   -3.2031   -0.7228 H   0  0  0  0  0  0  0  0  0  0  0  0
    6.6678    0.9024    0.5953 H   0  0  0  0  0  0  0  0  0  0  0  0
    7.7276    1.7053   -0.6545 H   0  0  0  0  0  0  0  0  0  0  0  0
    9.3228    2.1642   -0.9672 H   0  0  0  0  0  0  0  0  0  0  0  0
    8.8054    1.9791    0.7349 H   0  0  0  0  0  0  0  0  0  0  0  0
   11.2211    0.9601   -0.0881 H   0  0  0  0  0  0  0  0  0  0  0  0
   12.2618   -1.1361    0.5779 H   0  0  0  0  0  0  0  0  0  0  0  0
   13.1230   -2.7097   -0.6463 H   0  0  0  0  0  0  0  0  0  0  0  0
   14.2719   -4.8602   -0.8329 H   0  0  0  0  0  0  0  0  0  0  0  0
   12.9773   -6.9690   -0.6573 H   0  0  0  0  0  0  0  0  0  0  0  0
    9.5835   -4.7637    0.7385 H   0  0  0  0  0  0  0  0  0  0  0  0
  1  2  1  0  0  0  0
  1 30  1  0  0  0  0
  1 31  1  0  0  0  0
  2  3  2  0  0  0  0
  2  7  1  0  0  0  0
  3  4  1  0  0  0  0
  4  5  2  0  0  0  0
  4 32  1  0  0  0  0
  5  6  1  0  0  0  0
  5 11  1  0  0  0  0
  6  7  2  0  0  0  0
  6  8  1  0  0  0  0
  8  9  2  0  0  0  0
  8 33  1  0  0  0  0
  9 10  1  0  0  0  0
  9 34  1  0  0  0  0
 10 11  2  0  0  0  0
 10 12  1  0  0  0  0
 11 35  1  0  0  0  0
 12 13  2  0  0  0  0
 12 18  1  0  0  0  0
 13 14  1  0  0  0  0
 13 15  1  0  0  0  0
 14 36  1  0  0  0  0
 14 37  1  0  0  0  0
 14 38  1  0  0  0  0
 15 16  2  0  0  0  0
 15 39  1  0  0  0  0
 16 17  1  0  0  0  0
 16 40  1  0  0  0  0
 17 18  1  0  0  0  0
 17 20  1  0  0  0  0
 18 19  2  0  0  0  0
 20 21  2  0  0  0  0
 20 25  1  0  0  0  0
 21 22  1  0  0  0  0
 21 41  1  0  0  0  0
 22 23  2  0  0  0  0
 22 42  1  0  0  0  0
 23 24  1  0  0  0  0
 23 43  1  0  0  0  0
 24 25  2  0  0  0  0
 24 26  1  0  0  0  0
 25 44  1  0  0  0  0
 26 27  1  0  0  0  0
 26 28  1  0  0  0  0
 26 29  1  0  0  0  0
M  END
$$$$
