C5B
 OpenBabel04121316093D

 23 23  0  0  1  0  0  0  0  0999 V2000
    4.9954    0.6399    1.0022 O   0  0  0  0  0  0  0  0  0  0  0  0
    4.7020   -0.6414    0.7034 C   0  0  0  0  0  0  0  0  0  0  0  0
    5.5724   -1.4480    0.4005 O   0  0  0  0  0  0  0  0  0  0  0  0
    3.2199   -0.9706    0.7512 C   0  0  2  0  0  0  0  0  0  0  0  0
    2.6804   -0.1982    0.1896 H   0  0  0  0  0  0  0  0  0  0  0  0
    2.6832   -1.1071    2.1692 C   0  0  0  0  0  0  0  0  0  0  0  0
    3.0587   -2.5298    2.5620 C   0  0  0  0  0  0  0  0  0  0  0  0
    2.8471   -3.3653    1.2755 C   0  0  1  0  0  0  0  0  0  0  0  0
    2.9587   -2.3460    0.1163 C   0  0  0  0  0  0  0  0  0  0  0  0
    3.9364   -4.3580    1.1792 N   0  0  0  0  0  0  0  0  0  0  0  0
    1.4960   -4.1461    1.4139 C   0  0  0  0  0  0  0  0  0  0  0  0
    1.2744   -4.9455    2.3181 O   0  0  0  0  0  0  0  0  0  0  0  0
    0.5384   -3.9223    0.4903 O   0  0  0  0  0  0  0  0  0  0  0  0
    4.2427    1.2029    1.2614 H   0  0  0  0  0  0  0  0  0  0  0  0
    1.5905   -1.0051    2.1761 H   0  0  0  0  0  0  0  0  0  0  0  0
    3.0961   -0.3692    2.8636 H   0  0  0  0  0  0  0  0  0  0  0  0
    2.4603   -2.8753    3.4127 H   0  0  0  0  0  0  0  0  0  0  0  0
    4.1072   -2.5405    2.8902 H   0  0  0  0  0  0  0  0  0  0  0  0
    2.0634   -2.2570   -0.4941 H   0  0  0  0  0  0  0  0  0  0  0  0
    3.7395   -2.6309   -0.5999 H   0  0  0  0  0  0  0  0  0  0  0  0
    4.8461   -3.8945    1.1148 H   0  0  0  0  0  0  0  0  0  0  0  0
    3.8385   -4.9250    0.3390 H   0  0  0  0  0  0  0  0  0  0  0  0
    0.7187   -3.3409   -0.2622 H   0  0  0  0  0  0  0  0  0  0  0  0
  1  2  1  0  0  0  0
  1 14  1  0  0  0  0
  2  3  2  0  0  0  0
  4  6  1  0  0  0  0
  4  9  1  0  0  0  0
  4  5  1  6  0  0  0
  4  2  1  0  0  0  0
  6  7  1  0  0  0  0
  6 15  1  0  0  0  0
  6 16  1  0  0  0  0
  7  8  1  0  0  0  0
  7 17  1  0  0  0  0
  7 18  1  0  0  0  0
  8  9  1  0  0  0  0
  8 11  1  1  0  0  0
  8 10  1  0  0  0  0
  9 19  1  0  0  0  0
  9 20  1  0  0  0  0
 10 21  1  0  0  0  0
 10 22  1  0  0  0  0
 11 12  2  0  0  0  0
 11 13  1  0  0  0  0
 13 23  1  0  0  0  0
M  END
$$$$
