C5G
 OpenBabel04121316093D

 61 63  0  0  1  0  0  0  0  0999 V2000
    4.4215    3.2784   -2.5610 O   0  0  0  0  0  0  0  0  0  0  0  0
    4.9261    2.1100   -1.9803 C   0  0  0  0  0  0  0  0  0  0  0  0
    6.1813    1.7161   -1.3523 C   0  0  1  0  0  0  0  0  0  0  0  0
    6.0448    1.7793   -0.2534 H   0  0  0  0  0  0  0  0  0  0  0  0
    6.3617    0.3101   -1.7290 O   0  0  0  0  0  0  0  0  0  0  0  0
    6.3156   -0.0451   -3.1534 C   0  0  2  0  0  0  0  0  0  0  0  0
    5.4450    0.2677   -3.7342 H   0  0  0  0  0  0  0  0  0  0  0  0
    6.2063   -1.5069   -3.4173 O   0  0  0  0  0  0  0  0  0  0  0  0
    4.6482   -2.1024   -2.9832 P   0  0  2  0  0  0  0  0  0  0  0  0
    4.7873   -1.4446   -1.5930 O   0  0  0  0  0  0  0  0  0  0  0  0
    4.9572   -3.6527   -2.2805 O   0  0  0  0  0  0  0  0  0  0  0  0
    5.2072   -3.4748   -0.5780 P   0  0  1  0  0  0  0  0  0  0  0  0
    6.5961   -2.8855   -0.7686 O   0  0  0  0  0  0  0  0  0  0  0  0
    3.5617   -2.5579   -0.3903 O   0  0  0  0  0  0  0  0  0  0  0  0
    2.5258   -2.0484   -1.4943 C   0  0  0  0  0  0  0  0  0  0  0  0
    1.9783   -0.5623   -1.6670 C   0  0  1  0  0  0  0  0  0  0  0  0
    1.1345   -0.5965   -2.3700 H   0  0  0  0  0  0  0  0  0  0  0  0
    1.7061   -0.1449   -0.3640 O   0  0  0  0  0  0  0  0  0  0  0  0
    1.4330    1.2311   -0.4349 C   0  0  2  0  0  0  0  0  0  0  0  0
    0.4337    1.3431   -0.8369 H   0  0  0  0  0  0  0  0  0  0  0  0
    2.3376    1.8812   -1.4509 C   0  0  1  0  0  0  0  0  0  0  0  0
    3.0427    2.4433   -0.8072 H   0  0  0  0  0  0  0  0  0  0  0  0
    2.7875    0.6263   -2.3147 C   0  0  2  0  0  0  0  0  0  0  0  0
    3.7827    0.2709   -2.1562 H   0  0  0  0  0  0  0  0  0  0  0  0
    2.8014    0.8238   -3.7539 O   0  0  0  0  0  0  0  0  0  0  0  0
    1.8376    2.9523   -2.2560 O   0  0  0  0  0  0  0  0  0  0  0  0
    1.5740    1.7965    0.8792 N   0  0  0  0  0  0  0  0  0  0  0  0
    2.5354    1.3885    1.7862 C   0  0  0  0  0  0  0  0  0  0  0  0
    2.7870    2.1377    2.8642 C   0  0  0  0  0  0  0  0  0  0  0  0
    1.7930    3.2052    3.1167 C   0  0  0  0  0  0  0  0  0  0  0  0
    0.9259    3.5997    2.2539 N   0  0  0  0  0  0  0  0  0  0  0  0
    0.9034    3.0204    1.0028 C   0  0  0  0  0  0  0  0  0  0  0  0
    0.3625    3.5331    0.0666 O   0  0  0  0  0  0  0  0  0  0  0  0
    1.7622    3.8084    4.3362 N   0  0  0  0  0  0  0  0  0  0  0  0
    5.4572   -3.2968    1.1246 O   0  0  0  0  0  0  0  0  0  0  0  0
    4.4923   -2.8393   -4.5406 O   0  0  0  0  0  0  0  0  0  0  0  0
    7.4820    0.7828   -3.7394 C   0  0  1  0  0  0  0  0  0  0  0  0
    7.4644    0.7068   -4.8280 H   0  0  0  0  0  0  0  0  0  0  0  0
    7.4208    2.3212   -3.3362 C   0  0  2  0  0  0  0  0  0  0  0  0
    8.3646    2.7931   -3.5919 H   0  0  0  0  0  0  0  0  0  0  0  0
    7.2556    2.6007   -1.8129 C   0  0  2  0  0  0  0  0  0  0  0  0
    6.9792    3.6409   -1.5799 H   0  0  0  0  0  0  0  0  0  0  0  0
    8.3220    2.2394   -0.9430 O   0  0  0  0  0  0  0  0  0  0  0  0
    6.4603    3.0000   -4.1892 O   0  0  0  0  0  0  0  0  0  0  0  0
    8.6953    0.2093   -3.2580 O   0  0  0  0  0  0  0  0  0  0  0  0
    3.5236    3.0584   -2.9484 H   0  0  0  0  0  0  0  0  0  0  0  0
    4.8980    1.5405   -2.8600 H   0  0  0  0  0  0  0  0  0  0  0  0
    4.3709    1.6362   -1.1986 H   0  0  0  0  0  0  0  0  0  0  0  0
    2.1635   -2.9191   -2.0463 H   0  0  0  0  0  0  0  0  0  0  0  0
    2.9316   -1.7300   -2.4175 H   0  0  0  0  0  0  0  0  0  0  0  0
    3.5019    1.4491   -4.0615 H   0  0  0  0  0  0  0  0  0  0  0  0
    1.7814    3.7394   -1.6603 H   0  0  0  0  0  0  0  0  0  0  0  0
    3.1184    0.4889    1.5836 H   0  0  0  0  0  0  0  0  0  0  0  0
    3.5907    1.9639    3.5631 H   0  0  0  0  0  0  0  0  0  0  0  0
    2.2713    3.4276    5.1196 H   0  0  0  0  0  0  0  0  0  0  0  0
    0.9266    4.3466    4.5378 H   0  0  0  0  0  0  0  0  0  0  0  0
    6.0667   -3.9939    1.4177 H   0  0  0  0  0  0  0  0  0  0  0  0
    3.8307   -3.5538   -4.5196 H   0  0  0  0  0  0  0  0  0  0  0  0
    9.1589    2.3455   -1.4073 H   0  0  0  0  0  0  0  0  0  0  0  0
    5.5680    3.0948   -3.7979 H   0  0  0  0  0  0  0  0  0  0  0  0
    8.4569   -0.7168   -3.0354 H   0  0  0  0  0  0  0  0  0  0  0  0
  1  2  1  0  0  0  0
  1 46  1  0  0  0  0
  2  3  1  0  0  0  0
  2 47  1  0  0  0  0
  2 48  1  0  0  0  0
  3  4  1  1  0  0  0
  3  5  1  0  0  0  0
  3 41  1  0  0  0  0
  5  6  1  0  0  0  0
  6  7  1  6  0  0  0
  6  8  1  0  0  0  0
  6 37  1  0  0  0  0
  9 11  1  1  0  0  0
  9 36  1  0  0  0  0
  9 10  2  0  0  0  0
  9  8  1  0  0  0  0
 12 11  1  6  0  0  0
 12 13  2  0  0  0  0
 12 14  1  0  0  0  0
 12 35  1  0  0  0  0
 14 15  1  0  0  0  0
 15 16  1  0  0  0  0
 15 49  1  0  0  0  0
 15 50  1  0  0  0  0
 16 17  1  6  0  0  0
 16 18  1  0  0  0  0
 16 23  1  0  0  0  0
 18 19  1  0  0  0  0
 19 21  1  0  0  0  0
 19 27  1  0  0  0  0
 19 20  1  6  0  0  0
 21 22  1  1  0  0  0
 21 23  1  0  0  0  0
 21 26  1  0  0  0  0
 23 24  1  1  0  0  0
 23 25  1  0  0  0  0
 25 51  1  0  0  0  0
 26 52  1  0  0  0  0
 27 28  1  0  0  0  0
 27 32  1  0  0  0  0
 28 29  2  0  0  0  0
 28 53  1  0  0  0  0
 29 30  1  0  0  0  0
 29 54  1  0  0  0  0
 30 31  2  0  0  0  0
 30 34  1  0  0  0  0
 31 32  1  0  0  0  0
 32 33  2  0  0  0  0
 34 55  1  0  0  0  0
 34 56  1  0  0  0  0
 35 57  1  0  0  0  0
 36 58  1  0  0  0  0
 37 38  1  6  0  0  0
 37 39  1  0  0  0  0
 37 45  1  0  0  0  0
 39 41  1  0  0  0  0
 39 44  1  0  0  0  0
 39 40  1  6  0  0  0
 41 42  1  1  0  0  0
 41 43  1  0  0  0  0
 43 59  1  0  0  0  0
 44 60  1  0  0  0  0
 45 61  1  0  0  0  0
M  END
$$$$
