C5M
 OpenBabel04121316093D

 68 70  0  0  1  0  0  0  0  0999 V2000
   -4.0795    3.4703   -8.5649 C   0  0  0  0  0  0  0  0  0  0  0  0
   -3.5604    2.4644   -7.6945 O   0  0  0  0  0  0  0  0  0  0  0  0
   -2.1888    2.4569   -7.7029 C   0  0  0  0  0  0  0  0  0  0  0  0
   -1.4916    3.4699   -7.0565 C   0  0  0  0  0  0  0  0  0  0  0  0
   -0.0924    3.4514   -7.0153 C   0  0  0  0  0  0  0  0  0  0  0  0
    0.6099    4.5884   -6.3177 C   0  0  0  0  0  0  0  0  0  0  0  0
    0.6189    2.3741   -7.6097 C   0  0  0  0  0  0  0  0  0  0  0  0
   -0.0869    1.3075   -8.2251 C   0  0  0  0  0  0  0  0  0  0  0  0
   -1.5110    1.3701   -8.2762 C   0  0  0  0  0  0  0  0  0  0  0  0
   -2.3302    0.2832   -8.9352 C   0  0  0  0  0  0  0  0  0  0  0  0
    0.5240    0.0860   -8.8517 C   0  0  0  0  0  0  0  0  0  0  0  0
    2.4037    2.5046   -7.4956 S   0  0  0  0  0  0  0  0  0  0  0  0
    2.8079    3.6798   -8.2499 O   0  0  0  0  0  0  0  0  0  0  0  0
    2.7812    2.2966   -6.1228 O   0  0  0  0  0  0  0  0  0  0  0  0
    3.0581    1.2618   -8.3798 N   0  0  0  0  0  0  0  0  0  0  0  0
    4.5041    1.0972   -8.2458 C   0  0  0  0  0  0  0  0  0  0  0  0
    4.8603   -0.2072   -8.9601 C   0  0  2  0  0  0  0  0  0  0  0  0
    3.9935   -0.8515   -9.1029 H   0  0  0  0  0  0  0  0  0  0  0  0
    5.9396   -0.9678   -8.1069 C   0  0  2  0  0  0  0  0  0  0  0  0
    6.6801   -0.2408   -7.7471 H   0  0  0  0  0  0  0  0  0  0  0  0
    6.7299   -2.0529   -8.8717 C   0  0  0  0  0  0  0  0  0  0  0  0
    7.5009   -1.5391  -10.0648 C   0  0  0  0  0  0  0  0  0  0  0  0
    7.7011   -0.1673  -10.2785 C   0  0  0  0  0  0  0  0  0  0  0  0
    7.8564    0.3119  -11.5713 C   0  0  0  0  0  0  0  0  0  0  0  0
    8.1486   -0.5758  -12.5919 C   0  0  0  0  0  0  0  0  0  0  0  0
    8.2575   -1.9379  -12.3135 C   0  0  0  0  0  0  0  0  0  0  0  0
    7.8545   -2.4314  -11.0751 C   0  0  0  0  0  0  0  0  0  0  0  0
    5.3494   -1.5270   -6.8698 N   0  0  0  0  0  0  0  0  0  0  0  0
    4.2764   -2.4668   -7.1597 C   0  0  0  0  0  0  0  0  0  0  0  0
    3.6439   -2.9622   -5.9054 C   0  0  0  0  0  0  0  0  0  0  0  0
    3.7379   -4.3208   -5.5997 C   0  0  0  0  0  0  0  0  0  0  0  0
    3.1267   -4.8110   -4.4579 C   0  0  0  0  0  0  0  0  0  0  0  0
    2.3225   -3.9688   -3.6894 C   0  0  0  0  0  0  0  0  0  0  0  0
    2.2165   -2.6147   -4.0040 C   0  0  0  0  0  0  0  0  0  0  0  0
    2.9219   -2.0924   -5.0765 C   0  0  0  0  0  0  0  0  0  0  0  0
    1.1858   -1.5908   -3.0859 Cl  0  0  0  0  0  0  0  0  0  0  0  0
    5.1875    0.0928  -10.3101 O   0  0  0  0  0  0  0  0  0  0  0  0
   -5.1716    3.4243   -8.5120 H   0  0  0  0  0  0  0  0  0  0  0  0
   -3.7818    3.2781   -9.6014 H   0  0  0  0  0  0  0  0  0  0  0  0
   -3.7722    4.4760   -8.2597 H   0  0  0  0  0  0  0  0  0  0  0  0
   -2.0415    4.2731   -6.5715 H   0  0  0  0  0  0  0  0  0  0  0  0
   -0.0978    5.3166   -5.9132 H   0  0  0  0  0  0  0  0  0  0  0  0
    1.2499    5.1265   -7.0219 H   0  0  0  0  0  0  0  0  0  0  0  0
    1.2029    4.2129   -5.4787 H   0  0  0  0  0  0  0  0  0  0  0  0
   -1.7283   -0.5069   -9.3881 H   0  0  0  0  0  0  0  0  0  0  0  0
   -2.9260    0.7050   -9.7493 H   0  0  0  0  0  0  0  0  0  0  0  0
   -2.9758   -0.2013   -8.1976 H   0  0  0  0  0  0  0  0  0  0  0  0
    1.5669   -0.0896   -8.6819 H   0  0  0  0  0  0  0  0  0  0  0  0
    0.3710    0.1145   -9.9367 H   0  0  0  0  0  0  0  0  0  0  0  0
    0.0922   -0.8169   -8.4113 H   0  0  0  0  0  0  0  0  0  0  0  0
    2.7842    1.3465   -9.3558 H   0  0  0  0  0  0  0  0  0  0  0  0
    4.7815    1.0838   -7.1886 H   0  0  0  0  0  0  0  0  0  0  0  0
    4.9942    1.9441   -8.7341 H   0  0  0  0  0  0  0  0  0  0  0  0
    6.0147   -2.8026   -9.2385 H   0  0  0  0  0  0  0  0  0  0  0  0
    7.4194   -2.5720   -8.1935 H   0  0  0  0  0  0  0  0  0  0  0  0
    7.4794    0.5660   -9.5086 H   0  0  0  0  0  0  0  0  0  0  0  0
    7.6682    1.3634  -11.7718 H   0  0  0  0  0  0  0  0  0  0  0  0
    8.2852   -0.2021  -13.6000 H   0  0  0  0  0  0  0  0  0  0  0  0
    8.5958   -2.6220  -13.0824 H   0  0  0  0  0  0  0  0  0  0  0  0
    7.7570   -3.5035  -10.9210 H   0  0  0  0  0  0  0  0  0  0  0  0
    4.9769   -0.7749   -6.2887 H   0  0  0  0  0  0  0  0  0  0  0  0
    4.6646   -3.3164   -7.7278 H   0  0  0  0  0  0  0  0  0  0  0  0
    3.4597   -2.0389   -7.7459 H   0  0  0  0  0  0  0  0  0  0  0  0
    4.2924   -4.9902   -6.2549 H   0  0  0  0  0  0  0  0  0  0  0  0
    3.2716   -5.8497   -4.1806 H   0  0  0  0  0  0  0  0  0  0  0  0
    1.7805   -4.3760   -2.8435 H   0  0  0  0  0  0  0  0  0  0  0  0
    2.8970   -1.0232   -5.2802 H   0  0  0  0  0  0  0  0  0  0  0  0
    4.5273    0.6603  -10.7299 H   0  0  0  0  0  0  0  0  0  0  0  0
  1  2  1  0  0  0  0
  1 38  1  0  0  0  0
  1 39  1  0  0  0  0
  1 40  1  0  0  0  0
  2  3  1  0  0  0  0
  3  4  2  0  0  0  0
  3  9  1  0  0  0  0
  4  5  1  0  0  0  0
  4 41  1  0  0  0  0
  5  6  1  0  0  0  0
  5  7  2  0  0  0  0
  6 42  1  0  0  0  0
  6 43  1  0  0  0  0
  6 44  1  0  0  0  0
  7  8  1  0  0  0  0
  7 12  1  0  0  0  0
  8  9  2  0  0  0  0
  8 11  1  0  0  0  0
  9 10  1  0  0  0  0
 10 45  1  0  0  0  0
 10 46  1  0  0  0  0
 10 47  1  0  0  0  0
 11 48  1  0  0  0  0
 11 49  1  0  0  0  0
 11 50  1  0  0  0  0
 12 13  2  0  0  0  0
 12 14  2  0  0  0  0
 12 15  1  0  0  0  0
 15 16  1  0  0  0  0
 15 51  1  0  0  0  0
 16 52  1  0  0  0  0
 16 53  1  0  0  0  0
 17 37  1  0  0  0  0
 17 18  1  6  0  0  0
 17 16  1  0  0  0  0
 19 21  1  0  0  0  0
 19 28  1  0  0  0  0
 19 20  1  1  0  0  0
 19 17  1  0  0  0  0
 21 22  1  0  0  0  0
 21 54  1  0  0  0  0
 21 55  1  0  0  0  0
 22 23  2  0  0  0  0
 22 27  1  0  0  0  0
 23 24  1  0  0  0  0
 23 56  1  0  0  0  0
 24 25  2  0  0  0  0
 24 57  1  0  0  0  0
 25 26  1  0  0  0  0
 25 58  1  0  0  0  0
 26 27  2  0  0  0  0
 26 59  1  0  0  0  0
 27 60  1  0  0  0  0
 28 29  1  0  0  0  0
 28 61  1  0  0  0  0
 29 30  1  0  0  0  0
 29 62  1  0  0  0  0
 29 63  1  0  0  0  0
 30 31  2  0  0  0  0
 30 35  1  0  0  0  0
 31 32  1  0  0  0  0
 31 64  1  0  0  0  0
 32 33  2  0  0  0  0
 32 65  1  0  0  0  0
 33 34  1  0  0  0  0
 33 66  1  0  0  0  0
 34 35  2  0  0  0  0
 34 36  1  0  0  0  0
 35 67  1  0  0  0  0
 37 68  1  0  0  0  0
M  END
$$$$
