C5P
 OpenBabel04121316093D

 35 36  0  0  1  0  0  0  0  0999 V2000
    2.8207    0.1141   -1.3226 O   0  0  0  0  0  0  0  0  0  0  0  0
    2.3408   -0.0020    0.0285 C   0  0  2  0  0  0  0  0  0  0  0  0
    1.2503    0.0335   -0.0173 H   0  0  0  0  0  0  0  0  0  0  0  0
    2.9023    1.1053    0.8929 C   0  0  2  0  0  0  0  0  0  0  0  0
    2.2694    1.1840    1.7832 H   0  0  0  0  0  0  0  0  0  0  0  0
    2.9682    2.3795    0.2713 O   0  0  0  0  0  0  0  0  0  0  0  0
    4.2727    0.5578    1.2321 C   0  0  2  0  0  0  0  0  0  0  0  0
    4.9904    0.7061    0.4144 H   0  0  0  0  0  0  0  0  0  0  0  0
    4.1145   -0.8644    1.3715 O   0  0  0  0  0  0  0  0  0  0  0  0
    2.8834   -1.2580    0.7410 C   0  0  1  0  0  0  0  0  0  0  0  0
    3.1634   -2.0306    0.0126 H   0  0  0  0  0  0  0  0  0  0  0  0
    1.9088   -1.8796    1.6594 N   0  0  0  0  0  0  0  0  0  0  0  0
    0.8297   -2.5214    1.0694 C   0  0  0  0  0  0  0  0  0  0  0  0
    0.0483   -3.3460    1.7611 C   0  0  0  0  0  0  0  0  0  0  0  0
    0.2016   -3.2793    3.2212 C   0  0  0  0  0  0  0  0  0  0  0  0
    1.1694   -2.6384    3.7959 N   0  0  0  0  0  0  0  0  0  0  0  0
    2.1386   -2.0243    3.0341 C   0  0  0  0  0  0  0  0  0  0  0  0
    3.1520   -1.6029    3.5961 O   0  0  0  0  0  0  0  0  0  0  0  0
   -0.7292   -3.8838    4.0110 N   0  0  0  0  0  0  0  0  0  0  0  0
    4.8716    1.2064    2.4632 C   0  0  0  0  0  0  0  0  0  0  0  0
    3.8585    1.5924    3.4127 O   0  0  0  0  0  0  0  0  0  0  0  0
    4.4820    2.3945    4.8129 P   0  0  0  0  0  0  0  0  0  0  0  0
    5.7718    1.5805    4.8305 O   0  0  0  0  0  0  0  0  0  0  0  0
    4.7238    3.7390    3.9263 O   0  0  0  0  0  0  0  0  0  0  0  0
    5.1056    3.1966    6.2132 O   0  0  0  0  0  0  0  0  0  0  0  0
    3.7843   -0.0255   -1.3332 H   0  0  0  0  0  0  0  0  0  0  0  0
    3.3635    2.2559   -0.6108 H   0  0  0  0  0  0  0  0  0  0  0  0
    0.6743   -2.3815    0.0029 H   0  0  0  0  0  0  0  0  0  0  0  0
   -0.7124   -3.9742    1.3225 H   0  0  0  0  0  0  0  0  0  0  0  0
   -1.5766   -4.2874    3.6377 H   0  0  0  0  0  0  0  0  0  0  0  0
   -0.7043   -3.6753    5.0024 H   0  0  0  0  0  0  0  0  0  0  0  0
    5.5838    0.5084    2.9126 H   0  0  0  0  0  0  0  0  0  0  0  0
    5.4038    2.1163    2.1618 H   0  0  0  0  0  0  0  0  0  0  0  0
    4.1583    3.7309    3.1329 H   0  0  0  0  0  0  0  0  0  0  0  0
    5.3201    2.4991    6.8584 H   0  0  0  0  0  0  0  0  0  0  0  0
  1 26  1  0  0  0  0
  2  4  1  0  0  0  0
  2 10  1  0  0  0  0
  2  3  1  1  0  0  0
  2  1  1  0  0  0  0
  4  7  1  0  0  0  0
  4  6  1  0  0  0  0
  4  5  1  1  0  0  0
  6 27  1  0  0  0  0
  7  9  1  0  0  0  0
  7 20  1  0  0  0  0
  7  8  1  6  0  0  0
  9 10  1  0  0  0  0
 10 12  1  0  0  0  0
 10 11  1  6  0  0  0
 12 13  1  0  0  0  0
 12 17  1  0  0  0  0
 13 14  2  0  0  0  0
 13 28  1  0  0  0  0
 14 15  1  0  0  0  0
 14 29  1  0  0  0  0
 15 16  2  0  0  0  0
 15 19  1  0  0  0  0
 16 17  1  0  0  0  0
 17 18  2  0  0  0  0
 19 30  1  0  0  0  0
 19 31  1  0  0  0  0
 20 21  1  0  0  0  0
 20 32  1  0  0  0  0
 20 33  1  0  0  0  0
 21 22  1  0  0  0  0
 22 23  2  0  0  0  0
 22 24  1  0  0  0  0
 22 25  1  0  0  0  0
 24 34  1  0  0  0  0
 25 35  1  0  0  0  0
M  END
$$$$
