C72
 OpenBabel04121316093D

 45 48  0  0  1  0  0  0  0  0999 V2000
    0.9162    0.1105    0.0487 Cl  0  0  0  0  0  0  0  0  0  0  0  0
    2.6299    0.1478    0.0045 C   0  0  0  0  0  0  0  0  0  0  0  0
    3.2938    1.3738    0.0061 C   0  0  0  0  0  0  0  0  0  0  0  0
    4.6670    1.4190   -0.1953 C   0  0  0  0  0  0  0  0  0  0  0  0
    5.3942    0.2349   -0.2812 C   0  0  0  0  0  0  0  0  0  0  0  0
    4.7189   -0.9952   -0.1245 C   0  0  0  0  0  0  0  0  0  0  0  0
    3.3366   -1.0437   -0.0558 C   0  0  0  0  0  0  0  0  0  0  0  0
    6.8175    0.2901   -0.5931 C   0  0  0  0  0  0  0  0  0  0  0  0
    7.6690    1.3534   -0.8148 C   0  0  0  0  0  0  0  0  0  0  0  0
    9.0142    0.9457   -1.1419 C   0  0  0  0  0  0  0  0  0  0  0  0
    9.1109   -0.4498   -1.1528 C   0  0  0  0  0  0  0  0  0  0  0  0
    7.6184   -1.1711   -0.8141 S   0  0  0  0  0  0  0  0  0  0  0  0
   10.2925   -1.1413   -1.4231 C   0  0  0  0  0  0  0  0  0  0  0  0
   11.3664   -0.3197   -1.6760 C   0  0  0  0  0  0  0  0  0  0  0  0
   11.3220    1.0302   -1.6955 N   0  0  0  0  0  0  0  0  0  0  0  0
   10.1696    1.7071   -1.4456 C   0  0  0  0  0  0  0  0  0  0  0  0
   10.1725    3.0929   -1.5193 N   0  0  0  0  0  0  0  0  0  0  0  0
   11.4590    3.7744   -1.6648 C   0  0  1  0  0  0  0  0  0  0  0  0
   12.2831    3.0588   -1.5940 H   0  0  0  0  0  0  0  0  0  0  0  0
   11.5761    4.4306   -3.0423 C   0  0  0  0  0  0  0  0  0  0  0  0
   10.8221    5.7526   -3.1250 C   0  0  0  0  0  0  0  0  0  0  0  0
   11.2470    6.6846   -1.9952 C   0  0  0  0  0  0  0  0  0  0  0  0
   10.9842    6.0813   -0.6862 N   0  0  0  0  0  0  0  0  0  0  0  0
   11.7068    4.8060   -0.5429 C   0  0  0  0  0  0  0  0  0  0  0  0
   10.3381   -2.6271   -1.4302 C   0  0  0  0  0  0  0  0  0  0  0  0
    9.3692   -3.3540   -1.2092 O   0  0  0  0  0  0  0  0  0  0  0  0
   11.5174   -3.2407   -1.6975 N   0  0  0  0  0  0  0  0  0  0  0  0
    2.7527    2.3040    0.1334 H   0  0  0  0  0  0  0  0  0  0  0  0
    5.1552    2.3827   -0.3028 H   0  0  0  0  0  0  0  0  0  0  0  0
    5.2486   -1.9474   -0.0949 H   0  0  0  0  0  0  0  0  0  0  0  0
    2.8403   -2.0094   -0.0612 H   0  0  0  0  0  0  0  0  0  0  0  0
    7.3635    2.3903   -0.7600 H   0  0  0  0  0  0  0  0  0  0  0  0
   12.3496   -0.7154   -1.8923 H   0  0  0  0  0  0  0  0  0  0  0  0
    9.3600    3.6065   -1.2121 H   0  0  0  0  0  0  0  0  0  0  0  0
   11.2463    3.7557   -3.8397 H   0  0  0  0  0  0  0  0  0  0  0  0
   12.6400    4.6369   -3.2182 H   0  0  0  0  0  0  0  0  0  0  0  0
    9.7411    5.5748   -3.0763 H   0  0  0  0  0  0  0  0  0  0  0  0
   11.0295    6.2271   -4.0907 H   0  0  0  0  0  0  0  0  0  0  0  0
   10.6968    7.6282   -2.0753 H   0  0  0  0  0  0  0  0  0  0  0  0
   12.3116    6.9367   -2.0882 H   0  0  0  0  0  0  0  0  0  0  0  0
    9.9852    5.9098   -0.5954 H   0  0  0  0  0  0  0  0  0  0  0  0
   11.4599    4.3682    0.4313 H   0  0  0  0  0  0  0  0  0  0  0  0
   12.7825    5.0226   -0.5185 H   0  0  0  0  0  0  0  0  0  0  0  0
   12.3900   -2.7839   -1.8977 H   0  0  0  0  0  0  0  0  0  0  0  0
   11.4826   -4.2526   -1.6894 H   0  0  0  0  0  0  0  0  0  0  0  0
  1  2  1  0  0  0  0
  2  3  2  0  0  0  0
  2  7  1  0  0  0  0
  3  4  1  0  0  0  0
  3 28  1  0  0  0  0
  4  5  2  0  0  0  0
  4 29  1  0  0  0  0
  5  6  1  0  0  0  0
  5  8  1  0  0  0  0
  6  7  2  0  0  0  0
  6 30  1  0  0  0  0
  7 31  1  0  0  0  0
  8  9  2  0  0  0  0
  8 12  1  0  0  0  0
  9 10  1  0  0  0  0
  9 32  1  0  0  0  0
 10 11  2  0  0  0  0
 10 16  1  0  0  0  0
 11 12  1  0  0  0  0
 11 13  1  0  0  0  0
 13 14  2  0  0  0  0
 13 25  1  0  0  0  0
 14 15  1  0  0  0  0
 14 33  1  0  0  0  0
 15 16  2  0  0  0  0
 16 17  1  0  0  0  0
 17 18  1  0  0  0  0
 17 34  1  0  0  0  0
 18 19  1  1  0  0  0
 18 20  1  0  0  0  0
 18 24  1  0  0  0  0
 20 21  1  0  0  0  0
 20 35  1  0  0  0  0
 20 36  1  0  0  0  0
 21 22  1  0  0  0  0
 21 37  1  0  0  0  0
 21 38  1  0  0  0  0
 22 23  1  0  0  0  0
 22 39  1  0  0  0  0
 22 40  1  0  0  0  0
 23 24  1  0  0  0  0
 23 41  1  0  0  0  0
 24 42  1  0  0  0  0
 24 43  1  0  0  0  0
 25 26  2  0  0  0  0
 25 27  1  0  0  0  0
 27 44  1  0  0  0  0
 27 45  1  0  0  0  0
M  END
$$$$
