C73
 OpenBabel04121316093D

 44 46  0  0  1  0  0  0  0  0999 V2000
    6.7224   -9.8219    4.3046 N   0  0  0  0  0  0  0  0  0  0  0  0
    6.5876   -9.1527    3.1308 C   0  0  0  0  0  0  0  0  0  0  0  0
    7.4806   -8.5126    2.6692 O   0  0  0  0  0  0  0  0  0  0  0  0
    5.3599   -9.3906    2.5674 N   0  0  0  0  0  0  0  0  0  0  0  0
    4.9724   -8.5891    1.5559 C   0  0  0  0  0  0  0  0  0  0  0  0
    4.3070   -9.4031    0.1964 S   0  0  0  0  0  0  0  0  0  0  0  0
    3.8682   -7.9228   -0.5994 C   0  0  0  0  0  0  0  0  0  0  0  0
    3.8186   -7.0767    0.5016 C   0  0  0  0  0  0  0  0  0  0  0  0
    5.0101   -7.2296    1.4747 C   0  0  0  0  0  0  0  0  0  0  0  0
    5.9270   -6.1618    2.4302 C   0  0  0  0  0  0  0  0  0  0  0  0
    6.0983   -6.4007    3.6348 O   0  0  0  0  0  0  0  0  0  0  0  0
    6.4361   -4.7020    2.0255 N   0  0  0  0  0  0  0  0  0  0  0  0
    5.5775   -3.6324    1.1989 C   0  0  1  0  0  0  0  0  0  0  0  0
    5.4250   -2.7901    1.8704 H   0  0  0  0  0  0  0  0  0  0  0  0
    5.1863   -3.0484   -0.3089 C   0  0  0  0  0  0  0  0  0  0  0  0
    5.6412   -3.7926   -1.5684 C   0  0  0  0  0  0  0  0  0  0  0  0
    5.3187   -5.2126   -1.3707 C   0  0  0  0  0  0  0  0  0  0  0  0
    5.5521   -5.4829   -0.0303 N   0  0  0  0  0  0  0  0  0  0  0  0
    4.6180   -4.6766    0.9719 C   0  0  0  0  0  0  0  0  0  0  0  0
    3.3793   -7.7702   -2.0422 C   0  0  0  0  0  0  0  0  0  0  0  0
    2.9346   -8.9214   -2.6576 C   0  0  0  0  0  0  0  0  0  0  0  0
    2.6717   -8.9719   -4.0332 C   0  0  0  0  0  0  0  0  0  0  0  0
    2.7457   -7.8432   -4.8432 C   0  0  0  0  0  0  0  0  0  0  0  0
    3.0280   -6.6357   -4.2748 C   0  0  0  0  0  0  0  0  0  0  0  0
    3.3325   -6.6189   -2.9094 C   0  0  0  0  0  0  0  0  0  0  0  0
    2.4870   -7.9352   -6.5313 Cl  0  0  0  0  0  0  0  0  0  0  0  0
    7.6235   -9.7178    4.7417 H   0  0  0  0  0  0  0  0  0  0  0  0
    6.0179  -10.4415    4.6491 H   0  0  0  0  0  0  0  0  0  0  0  0
    4.6707  -10.0183    2.9354 H   0  0  0  0  0  0  0  0  0  0  0  0
    3.2419   -6.1972    0.3044 H   0  0  0  0  0  0  0  0  0  0  0  0
    6.6825   -4.2841    2.9212 H   0  0  0  0  0  0  0  0  0  0  0  0
    5.3336   -1.9836   -0.4003 H   0  0  0  0  0  0  0  0  0  0  0  0
    4.0607   -3.0747   -0.3937 H   0  0  0  0  0  0  0  0  0  0  0  0
    6.7069   -3.6811   -1.7180 H   0  0  0  0  0  0  0  0  0  0  0  0
    5.0728   -3.4755   -2.4541 H   0  0  0  0  0  0  0  0  0  0  0  0
    5.7477   -5.9314   -2.0809 H   0  0  0  0  0  0  0  0  0  0  0  0
    4.2527   -5.2787   -1.3122 H   0  0  0  0  0  0  0  0  0  0  0  0
    6.4765   -5.8521    0.2231 H   0  0  0  0  0  0  0  0  0  0  0  0
    4.3005   -5.1015    1.9438 H   0  0  0  0  0  0  0  0  0  0  0  0
    3.6071   -4.4408    0.6453 H   0  0  0  0  0  0  0  0  0  0  0  0
    2.7961   -9.8134   -2.0606 H   0  0  0  0  0  0  0  0  0  0  0  0
    2.4221   -9.9326   -4.4572 H   0  0  0  0  0  0  0  0  0  0  0  0
    3.0552   -5.7050   -4.8472 H   0  0  0  0  0  0  0  0  0  0  0  0
    3.5489   -5.5839   -2.7130 H   0  0  0  0  0  0  0  0  0  0  0  0
  1  2  1  0  0  0  0
  1 27  1  0  0  0  0
  1 28  1  0  0  0  0
  2  3  2  0  0  0  0
  2  4  1  0  0  0  0
  4  5  1  0  0  0  0
  4 29  1  0  0  0  0
  5  6  1  0  0  0  0
  5  9  2  0  0  0  0
  6  7  1  0  0  0  0
  7  8  2  0  0  0  0
  7 20  1  0  0  0  0
  8  9  1  0  0  0  0
  8 30  1  0  0  0  0
  9 10  1  0  0  0  0
 10 11  2  0  0  0  0
 10 12  1  0  0  0  0
 12 31  1  0  0  0  0
 13 15  1  0  0  0  0
 13 19  1  0  0  0  0
 13 14  1  1  0  0  0
 13 12  1  0  0  0  0
 15 16  1  0  0  0  0
 15 32  1  0  0  0  0
 15 33  1  0  0  0  0
 16 17  1  0  0  0  0
 16 34  1  0  0  0  0
 16 35  1  0  0  0  0
 17 18  1  0  0  0  0
 17 36  1  0  0  0  0
 17 37  1  0  0  0  0
 18 19  1  0  0  0  0
 18 38  1  0  0  0  0
 19 39  1  0  0  0  0
 19 40  1  0  0  0  0
 20 21  2  0  0  0  0
 20 25  1  0  0  0  0
 21 22  1  0  0  0  0
 21 41  1  0  0  0  0
 22 23  2  0  0  0  0
 22 42  1  0  0  0  0
 23 24  1  0  0  0  0
 23 26  1  0  0  0  0
 24 25  2  0  0  0  0
 24 43  1  0  0  0  0
 25 44  1  0  0  0  0
M  END
$$$$
