C7M
 OpenBabel04121316093D

 67 70  0  0  1  0  0  0  0  0999 V2000
   15.1474    1.6981    0.8134 C   0  0  0  0  0  0  0  0  0  0  0  0
   15.3847    0.8805    1.9545 O   0  0  0  0  0  0  0  0  0  0  0  0
   14.2315    0.5780    2.6223 C   0  0  0  0  0  0  0  0  0  0  0  0
   13.9455    1.2629    3.8019 C   0  0  0  0  0  0  0  0  0  0  0  0
   12.9565    0.7811    4.6565 C   0  0  0  0  0  0  0  0  0  0  0  0
   12.1924   -0.3217    4.2707 C   0  0  0  0  0  0  0  0  0  0  0  0
   12.3943   -0.9327    3.0281 C   0  0  0  0  0  0  0  0  0  0  0  0
   13.4634   -0.5180    2.2314 C   0  0  0  0  0  0  0  0  0  0  0  0
   11.0660   -0.9708    5.4588 S   0  0  0  0  0  0  0  0  0  0  0  0
   11.8164   -1.5351    6.5454 O   0  0  0  0  0  0  0  0  0  0  0  0
    9.9875   -0.0173    5.6679 O   0  0  0  0  0  0  0  0  0  0  0  0
   10.3528   -2.3044    4.6703 N   0  0  0  0  0  0  0  0  0  0  0  0
    9.3361   -2.9462    5.5368 C   0  0  0  0  0  0  0  0  0  0  0  0
    8.9636   -4.2800    4.8695 C   0  0  2  0  0  0  0  0  0  0  0  0
    8.9272   -4.0708    3.8082 H   0  0  0  0  0  0  0  0  0  0  0  0
    7.5727   -4.8276    5.3837 C   0  0  2  0  0  0  0  0  0  0  0  0
    7.1609   -4.1675    6.1574 H   0  0  0  0  0  0  0  0  0  0  0  0
    7.5881   -6.2726    5.8835 C   0  0  0  0  0  0  0  0  0  0  0  0
    8.5406   -6.4673    7.0207 C   0  0  0  0  0  0  0  0  0  0  0  0
    9.1311   -5.3841    7.6845 C   0  0  0  0  0  0  0  0  0  0  0  0
   10.3063   -5.5385    8.3930 C   0  0  0  0  0  0  0  0  0  0  0  0
   10.7158   -6.8187    8.7100 C   0  0  0  0  0  0  0  0  0  0  0  0
    9.9874   -7.9195    8.2545 C   0  0  0  0  0  0  0  0  0  0  0  0
    8.9588   -7.7526    7.3350 C   0  0  0  0  0  0  0  0  0  0  0  0
    6.5420   -4.7481    4.3012 N   0  3  0  0  0  0  0  0  0  0  0  0
    5.6063   -5.0316    4.6241 H   0  0  0  0  0  0  0  0  0  0  0  0
    6.4052   -3.7431    4.0669 H   0  0  0  0  0  0  0  0  0  0  0  0
    6.8966   -5.4372    3.0417 C   0  0  0  0  0  0  0  0  0  0  0  0
    5.9376   -5.1309    1.9565 C   0  0  0  0  0  0  0  0  0  0  0  0
    5.3240   -6.2586    1.3683 C   0  0  0  0  0  0  0  0  0  0  0  0
    4.5850   -6.1133    0.2134 C   0  0  0  0  0  0  0  0  0  0  0  0
    4.0465   -7.5060   -0.6285 Cl  0  0  0  0  0  0  0  0  0  0  0  0
    4.3202   -4.8401   -0.2612 C   0  0  0  0  0  0  0  0  0  0  0  0
    4.8257   -3.7096    0.4020 C   0  0  0  0  0  0  0  0  0  0  0  0
    5.7314   -3.8154    1.4671 C   0  0  0  0  0  0  0  0  0  0  0  0
    6.3836   -2.6507    1.9627 N   0  0  0  0  0  0  0  0  0  0  0  0
    7.0844   -2.5274    3.1737 N   0  0  0  0  0  0  0  0  0  0  0  0
    6.7778   -1.2013    3.5845 N   0  0  0  0  0  0  0  0  0  0  0  0
    6.5804   -0.4655    2.4687 N   0  0  0  0  0  0  0  0  0  0  0  0
    6.2668   -1.3499    1.5651 C   0  0  0  0  0  0  0  0  0  0  0  0
   10.0884   -5.1584    4.9261 O   0  0  0  0  0  0  0  0  0  0  0  0
   16.1176    1.8958    0.3459 H   0  0  0  0  0  0  0  0  0  0  0  0
   14.7089    2.6586    1.1020 H   0  0  0  0  0  0  0  0  0  0  0  0
   14.5173    1.1876    0.0782 H   0  0  0  0  0  0  0  0  0  0  0  0
   14.5206    2.1415    4.0782 H   0  0  0  0  0  0  0  0  0  0  0  0
   12.8052    1.2459    5.6289 H   0  0  0  0  0  0  0  0  0  0  0  0
   11.7671   -1.7456    2.6790 H   0  0  0  0  0  0  0  0  0  0  0  0
   13.7195   -1.0672    1.3294 H   0  0  0  0  0  0  0  0  0  0  0  0
   11.1074   -2.9894    4.5170 H   0  0  0  0  0  0  0  0  0  0  0  0
    8.4654   -2.2941    5.6469 H   0  0  0  0  0  0  0  0  0  0  0  0
    9.7936   -3.0996    6.5140 H   0  0  0  0  0  0  0  0  0  0  0  0
    7.9162   -6.9211    5.0583 H   0  0  0  0  0  0  0  0  0  0  0  0
    6.5807   -6.6044    6.1587 H   0  0  0  0  0  0  0  0  0  0  0  0
    8.7545   -4.3761    7.5952 H   0  0  0  0  0  0  0  0  0  0  0  0
   10.8765   -4.6645    8.7021 H   0  0  0  0  0  0  0  0  0  0  0  0
   11.5888   -6.9537    9.3391 H   0  0  0  0  0  0  0  0  0  0  0  0
   10.2444   -8.9150    8.5984 H   0  0  0  0  0  0  0  0  0  0  0  0
    8.5040   -8.6212    6.8638 H   0  0  0  0  0  0  0  0  0  0  0  0
    6.9495   -6.5056    3.2603 H   0  0  0  0  0  0  0  0  0  0  0  0
    7.8840   -5.1373    2.6861 H   0  0  0  0  0  0  0  0  0  0  0  0
    5.4722   -7.2593    1.7783 H   0  0  0  0  0  0  0  0  0  0  0  0
    3.7242   -4.7126   -1.1605 H   0  0  0  0  0  0  0  0  0  0  0  0
    4.5001   -2.7360    0.0444 H   0  0  0  0  0  0  0  0  0  0  0  0
    8.0896   -2.5278    2.9331 H   0  0  0  0  0  0  0  0  0  0  0  0
    7.2025   -0.7373    4.3991 H   0  0  0  0  0  0  0  0  0  0  0  0
    5.9755   -1.1403    0.5295 H   0  0  0  0  0  0  0  0  0  0  0  0
    9.8509   -6.0832    4.7426 H   0  0  0  0  0  0  0  0  0  0  0  0
  1  2  1  0  0  0  0
  1 42  1  0  0  0  0
  1 43  1  0  0  0  0
  1 44  1  0  0  0  0
  2  3  1  0  0  0  0
  3  4  2  0  0  0  0
  3  8  1  0  0  0  0
  4  5  1  0  0  0  0
  4 45  1  0  0  0  0
  5  6  2  0  0  0  0
  5 46  1  0  0  0  0
  6  7  1  0  0  0  0
  6  9  1  0  0  0  0
  7  8  2  0  0  0  0
  7 47  1  0  0  0  0
  8 48  1  0  0  0  0
  9 10  2  0  0  0  0
  9 11  2  0  0  0  0
  9 12  1  0  0  0  0
 12 13  1  0  0  0  0
 12 49  1  0  0  0  0
 13 50  1  0  0  0  0
 13 51  1  0  0  0  0
 14 41  1  0  0  0  0
 14 15  1  6  0  0  0
 14 13  1  0  0  0  0
 16 18  1  0  0  0  0
 16 25  1  0  0  0  0
 16 17  1  1  0  0  0
 16 14  1  0  0  0  0
 18 19  1  0  0  0  0
 18 52  1  0  0  0  0
 18 53  1  0  0  0  0
 19 20  2  0  0  0  0
 19 24  1  0  0  0  0
 20 21  1  0  0  0  0
 20 54  1  0  0  0  0
 21 22  2  0  0  0  0
 21 55  1  0  0  0  0
 22 23  1  0  0  0  0
 22 56  1  0  0  0  0
 23 24  2  0  0  0  0
 23 57  1  0  0  0  0
 24 58  1  0  0  0  0
 25 26  1  0  0  0  0
 25 27  1  0  0  0  0
 25 28  1  0  0  0  0
 28 29  1  0  0  0  0
 28 59  1  0  0  0  0
 28 60  1  0  0  0  0
 29 30  2  0  0  0  0
 29 35  1  0  0  0  0
 30 31  1  0  0  0  0
 30 61  1  0  0  0  0
 31 32  1  0  0  0  0
 31 33  2  0  0  0  0
 33 34  1  0  0  0  0
 33 62  1  0  0  0  0
 34 35  2  0  0  0  0
 34 63  1  0  0  0  0
 35 36  1  0  0  0  0
 36 37  1  0  0  0  0
 36 40  1  0  0  0  0
 37 38  1  0  0  0  0
 37 64  1  0  0  0  0
 38 39  1  0  0  0  0
 38 65  1  0  0  0  0
 39 40  2  0  0  0  0
 40 66  1  0  0  0  0
 41 67  1  0  0  0  0
M  CHG  1  25   1
M  END
$$$$
