C8E
 OpenBabel04121316093D

 55 54  0  0  0  0  0  0  0  0999 V2000
    0.9249   -0.0244    0.0762 C   0  0  0  0  0  0  0  0  0  0  0  0
    2.4422   -0.0351    0.0760 C   0  0  0  0  0  0  0  0  0  0  0  0
    2.9693   -1.4644    0.0497 C   0  0  0  0  0  0  0  0  0  0  0  0
    4.4914   -1.4804    0.0494 C   0  0  0  0  0  0  0  0  0  0  0  0
    5.0065   -2.9134    0.0229 C   0  0  0  0  0  0  0  0  0  0  0  0
    6.5262   -2.9250    0.0227 C   0  0  0  0  0  0  0  0  0  0  0  0
    7.0575   -4.3490   -0.0035 C   0  0  0  0  0  0  0  0  0  0  0  0
    8.5735   -4.3283   -0.0031 C   0  0  0  0  0  0  0  0  0  0  0  0
    9.0441   -5.6686   -0.0277 O   0  0  0  0  0  0  0  0  0  0  0  0
   10.4675   -5.6902   -0.0283 C   0  0  0  0  0  0  0  0  0  0  0  0
   10.9388   -7.1305   -0.0548 C   0  0  0  0  0  0  0  0  0  0  0  0
   12.3623   -7.1434   -0.0546 O   0  0  0  0  0  0  0  0  0  0  0  0
   12.8532   -8.4787   -0.0797 C   0  0  0  0  0  0  0  0  0  0  0  0
   14.3708   -8.4423   -0.0790 C   0  0  0  0  0  0  0  0  0  0  0  0
   14.8638   -9.7778   -0.1024 O   0  0  0  0  0  0  0  0  0  0  0  0
   16.2878   -9.7912   -0.1037 C   0  0  0  0  0  0  0  0  0  0  0  0
   16.7646  -11.2332   -0.1297 C   0  0  0  0  0  0  0  0  0  0  0  0
   18.1901  -11.2564   -0.1211 O   0  0  0  0  0  0  0  0  0  0  0  0
   18.6742  -12.5943   -0.1596 C   0  0  0  0  0  0  0  0  0  0  0  0
   20.1968  -12.5891   -0.1537 C   0  0  0  0  0  0  0  0  0  0  0  0
   20.7019  -13.9196   -0.1812 O   0  0  0  0  0  0  0  0  0  0  0  0
    0.5527    1.0035    0.0952 H   0  0  0  0  0  0  0  0  0  0  0  0
    0.5332   -0.5486    0.9538 H   0  0  0  0  0  0  0  0  0  0  0  0
    0.5332   -0.5159   -0.8201 H   0  0  0  0  0  0  0  0  0  0  0  0
    2.8122    0.4830    0.9685 H   0  0  0  0  0  0  0  0  0  0  0  0
    2.8122    0.5155   -0.7968 H   0  0  0  0  0  0  0  0  0  0  0  0
    2.5962   -1.9820   -0.8426 H   0  0  0  0  0  0  0  0  0  0  0  0
    2.5962   -2.0145    0.9223 H   0  0  0  0  0  0  0  0  0  0  0  0
    4.8700   -0.9667    0.9417 H   0  0  0  0  0  0  0  0  0  0  0  0
    4.8700   -0.9342   -0.8234 H   0  0  0  0  0  0  0  0  0  0  0  0
    4.6314   -3.4283   -0.8699 H   0  0  0  0  0  0  0  0  0  0  0  0
    4.6314   -3.4608    0.8962 H   0  0  0  0  0  0  0  0  0  0  0  0
    6.9006   -2.4074    0.9147 H   0  0  0  0  0  0  0  0  0  0  0  0
    6.9006   -2.3749   -0.8496 H   0  0  0  0  0  0  0  0  0  0  0  0
    6.6925   -4.8827   -0.8900 H   0  0  0  0  0  0  0  0  0  0  0  0
    6.6925   -4.9150    0.8627 H   0  0  0  0  0  0  0  0  0  0  0  0
    8.9428   -3.8268    0.8990 H   0  0  0  0  0  0  0  0  0  0  0  0
    8.9428   -3.7941   -0.8863 H   0  0  0  0  0  0  0  0  0  0  0  0
   10.8530   -5.1872    0.8670 H   0  0  0  0  0  0  0  0  0  0  0  0
   10.8528   -5.1546   -0.9045 H   0  0  0  0  0  0  0  0  0  0  0  0
   10.5554   -7.6324   -0.9511 H   0  0  0  0  0  0  0  0  0  0  0  0
   10.5550   -7.6652    0.8221 H   0  0  0  0  0  0  0  0  0  0  0  0
   12.4919   -8.9969   -0.9760 H   0  0  0  0  0  0  0  0  0  0  0  0
   12.4919   -9.0300    0.7966 H   0  0  0  0  0  0  0  0  0  0  0  0
   14.7309   -7.9219    0.8167 H   0  0  0  0  0  0  0  0  0  0  0  0
   14.7311   -7.8904   -0.9555 H   0  0  0  0  0  0  0  0  0  0  0  0
   16.6700   -9.2871    0.7918 H   0  0  0  0  0  0  0  0  0  0  0  0
   16.6692   -9.2555   -0.9811 H   0  0  0  0  0  0  0  0  0  0  0  0
   16.3824  -11.7345   -1.0272 H   0  0  0  0  0  0  0  0  0  0  0  0
   16.3744  -11.7691    0.7441 H   0  0  0  0  0  0  0  0  0  0  0  0
   18.3083  -13.1028   -1.0593 H   0  0  0  0  0  0  0  0  0  0  0  0
   18.3033  -13.1476    0.7114 H   0  0  0  0  0  0  0  0  0  0  0  0
   20.5832  -12.0781    0.7347 H   0  0  0  0  0  0  0  0  0  0  0  0
   20.5802  -12.0498   -1.0256 H   0  0  0  0  0  0  0  0  0  0  0  0
   20.3800  -14.3693    0.6159 H   0  0  0  0  0  0  0  0  0  0  0  0
  1  2  1  0  0  0  0
  1 22  1  0  0  0  0
  1 23  1  0  0  0  0
  1 24  1  0  0  0  0
  2  3  1  0  0  0  0
  2 25  1  0  0  0  0
  2 26  1  0  0  0  0
  3  4  1  0  0  0  0
  3 27  1  0  0  0  0
  3 28  1  0  0  0  0
  4  5  1  0  0  0  0
  4 29  1  0  0  0  0
  4 30  1  0  0  0  0
  5  6  1  0  0  0  0
  5 31  1  0  0  0  0
  5 32  1  0  0  0  0
  6  7  1  0  0  0  0
  6 33  1  0  0  0  0
  6 34  1  0  0  0  0
  7  8  1  0  0  0  0
  7 35  1  0  0  0  0
  7 36  1  0  0  0  0
  8  9  1  0  0  0  0
  8 37  1  0  0  0  0
  8 38  1  0  0  0  0
  9 10  1  0  0  0  0
 10 11  1  0  0  0  0
 10 39  1  0  0  0  0
 10 40  1  0  0  0  0
 11 12  1  0  0  0  0
 11 41  1  0  0  0  0
 11 42  1  0  0  0  0
 12 13  1  0  0  0  0
 13 14  1  0  0  0  0
 13 43  1  0  0  0  0
 13 44  1  0  0  0  0
 14 15  1  0  0  0  0
 14 45  1  0  0  0  0
 14 46  1  0  0  0  0
 15 16  1  0  0  0  0
 16 17  1  0  0  0  0
 16 47  1  0  0  0  0
 16 48  1  0  0  0  0
 17 18  1  0  0  0  0
 17 49  1  0  0  0  0
 17 50  1  0  0  0  0
 18 19  1  0  0  0  0
 19 20  1  0  0  0  0
 19 51  1  0  0  0  0
 19 52  1  0  0  0  0
 20 21  1  0  0  0  0
 20 53  1  0  0  0  0
 20 54  1  0  0  0  0
 21 55  1  0  0  0  0
M  END
$$$$
