C92
 OpenBabel04121316093D

 53 55  0  0  0  0  0  0  0  0999 V2000
    0.9235    0.1216    0.2448 N   0  0  0  0  0  0  0  0  0  0  0  0
    2.2900    0.1555    0.0685 C   0  0  0  0  0  0  0  0  0  0  0  0
    2.9891    1.3555    0.0583 C   0  0  0  0  0  0  0  0  0  0  0  0
    4.3648    1.3545   -0.1735 C   0  0  0  0  0  0  0  0  0  0  0  0
    5.0273    0.1402   -0.2440 C   0  0  0  0  0  0  0  0  0  0  0  0
    4.2547   -1.0072   -0.0513 C   0  0  0  0  0  0  0  0  0  0  0  0
    2.9068   -1.0246    0.0409 N   0  0  0  0  0  0  0  0  0  0  0  0
    6.4164    0.1361   -0.5090 N   0  0  0  0  0  0  0  0  0  0  0  0
    7.1487   -1.0290   -0.5934 C   0  0  0  0  0  0  0  0  0  0  0  0
    6.6444   -2.1370   -0.4022 O   0  0  0  0  0  0  0  0  0  0  0  0
    8.5893   -0.9864   -0.9525 C   0  0  0  0  0  0  0  0  0  0  0  0
    9.2593    0.2311   -1.0782 C   0  0  0  0  0  0  0  0  0  0  0  0
   10.5469    0.2668   -1.6195 C   0  0  0  0  0  0  0  0  0  0  0  0
   11.2344   -0.9263   -1.8499 C   0  0  0  0  0  0  0  0  0  0  0  0
   10.6306   -2.1463   -1.5711 C   0  0  0  0  0  0  0  0  0  0  0  0
    9.2846   -2.1934   -1.2003 C   0  0  0  0  0  0  0  0  0  0  0  0
    8.6144   -3.5420   -1.1274 C   0  0  0  0  0  0  0  0  0  0  0  0
   11.2021    1.5385   -2.0145 C   0  0  0  0  0  0  0  0  0  0  0  0
   12.3177    1.5278   -2.5247 O   0  0  0  0  0  0  0  0  0  0  0  0
   10.4825    2.6953   -1.8149 N   0  0  0  0  0  0  0  0  0  0  0  0
   11.0526    3.9568   -2.1750 C   0  0  0  0  0  0  0  0  0  0  0  0
   10.1186    5.1134   -1.8198 C   0  0  0  0  0  0  0  0  0  0  0  0
   10.8194    6.4282   -2.1409 C   0  0  0  0  0  0  0  0  0  0  0  0
   10.0417    7.6979   -1.8153 C   0  0  0  0  0  0  0  0  0  0  0  0
   11.1444    8.7435   -1.6790 C   0  0  0  0  0  0  0  0  0  0  0  0
   12.2965    8.0163   -1.0027 C   0  0  0  0  0  0  0  0  0  0  0  0
   12.0960    6.5452   -1.3020 C   0  0  0  0  0  0  0  0  0  0  0  0
    0.3911    0.9265   -0.0413 H   0  0  0  0  0  0  0  0  0  0  0  0
    0.5454   -0.7934    0.0125 H   0  0  0  0  0  0  0  0  0  0  0  0
    2.4631    2.2900    0.2005 H   0  0  0  0  0  0  0  0  0  0  0  0
    4.8909    2.2981   -0.2741 H   0  0  0  0  0  0  0  0  0  0  0  0
    4.6698   -2.0007    0.0563 H   0  0  0  0  0  0  0  0  0  0  0  0
    6.8332    1.0306   -0.7209 H   0  0  0  0  0  0  0  0  0  0  0  0
    8.7750    1.1420   -0.7669 H   0  0  0  0  0  0  0  0  0  0  0  0
   12.2425   -0.9113   -2.2588 H   0  0  0  0  0  0  0  0  0  0  0  0
   11.2008   -3.0645   -1.6861 H   0  0  0  0  0  0  0  0  0  0  0  0
    9.2991   -4.3592   -1.3584 H   0  0  0  0  0  0  0  0  0  0  0  0
    7.8036   -3.5880   -1.8661 H   0  0  0  0  0  0  0  0  0  0  0  0
    8.2284   -3.7266   -0.1192 H   0  0  0  0  0  0  0  0  0  0  0  0
    9.5753    2.7112   -1.3864 H   0  0  0  0  0  0  0  0  0  0  0  0
   11.2707    3.9443   -3.2483 H   0  0  0  0  0  0  0  0  0  0  0  0
   12.0080    4.0222   -1.6433 H   0  0  0  0  0  0  0  0  0  0  0  0
    9.8679    5.0681   -0.7504 H   0  0  0  0  0  0  0  0  0  0  0  0
    9.1701    5.0197   -2.3616 H   0  0  0  0  0  0  0  0  0  0  0  0
   11.0701    6.4444   -3.2109 H   0  0  0  0  0  0  0  0  0  0  0  0
    9.4849    7.6009   -0.8770 H   0  0  0  0  0  0  0  0  0  0  0  0
    9.3324    7.9664   -2.6060 H   0  0  0  0  0  0  0  0  0  0  0  0
   10.8227    9.6133   -1.1000 H   0  0  0  0  0  0  0  0  0  0  0  0
   11.4631    9.0941   -2.6679 H   0  0  0  0  0  0  0  0  0  0  0  0
   12.2646    8.1696    0.0816 H   0  0  0  0  0  0  0  0  0  0  0  0
   13.2716    8.3609   -1.3584 H   0  0  0  0  0  0  0  0  0  0  0  0
   11.9925    6.0027   -0.3533 H   0  0  0  0  0  0  0  0  0  0  0  0
   12.9516    6.1129   -1.8315 H   0  0  0  0  0  0  0  0  0  0  0  0
  1  2  1  0  0  0  0
  1 28  1  0  0  0  0
  1 29  1  0  0  0  0
  2  3  2  0  0  0  0
  2  7  1  0  0  0  0
  3  4  1  0  0  0  0
  3 30  1  0  0  0  0
  4  5  2  0  0  0  0
  4 31  1  0  0  0  0
  5  6  1  0  0  0  0
  5  8  1  0  0  0  0
  6  7  2  0  0  0  0
  6 32  1  0  0  0  0
  8  9  1  0  0  0  0
  8 33  1  0  0  0  0
  9 10  2  0  0  0  0
  9 11  1  0  0  0  0
 11 12  2  0  0  0  0
 11 16  1  0  0  0  0
 12 13  1  0  0  0  0
 12 34  1  0  0  0  0
 13 14  2  0  0  0  0
 13 18  1  0  0  0  0
 14 15  1  0  0  0  0
 14 35  1  0  0  0  0
 15 16  2  0  0  0  0
 15 36  1  0  0  0  0
 16 17  1  0  0  0  0
 17 37  1  0  0  0  0
 17 38  1  0  0  0  0
 17 39  1  0  0  0  0
 18 19  2  0  0  0  0
 18 20  1  0  0  0  0
 20 21  1  0  0  0  0
 20 40  1  0  0  0  0
 21 22  1  0  0  0  0
 21 41  1  0  0  0  0
 21 42  1  0  0  0  0
 22 23  1  0  0  0  0
 22 43  1  0  0  0  0
 22 44  1  0  0  0  0
 23 24  1  0  0  0  0
 23 27  1  0  0  0  0
 23 45  1  0  0  0  0
 24 25  1  0  0  0  0
 24 46  1  0  0  0  0
 24 47  1  0  0  0  0
 25 26  1  0  0  0  0
 25 48  1  0  0  0  0
 25 49  1  0  0  0  0
 26 27  1  0  0  0  0
 26 50  1  0  0  0  0
 26 51  1  0  0  0  0
 27 52  1  0  0  0  0
 27 53  1  0  0  0  0
M  END
$$$$
