C95
 OpenBabel04121316093D

 32 34  0  0  0  0  0  0  0  0999 V2000
    0.8641    0.2328    0.1289 N   0  0  0  0  0  0  0  0  0  0  0  0
    2.1260    0.1345   -0.0331 C   0  0  0  0  0  0  0  0  0  0  0  0
    3.0537    1.1159   -0.0672 N   0  0  0  0  0  0  0  0  0  0  0  0
    4.2114    0.7853   -0.7393 C   0  0  0  0  0  0  0  0  0  0  0  0
    4.9302    1.5741   -1.3263 O   0  0  0  0  0  0  0  0  0  0  0  0
    4.3788   -0.6969   -0.7205 C   0  0  0  0  0  0  0  0  0  0  0  0
    5.5189   -1.3784   -0.9324 C   0  0  0  0  0  0  0  0  0  0  0  0
    5.5895   -2.7709   -0.6086 C   0  0  0  0  0  0  0  0  0  0  0  0
    4.9534   -3.4281    0.4436 C   0  0  0  0  0  0  0  0  0  0  0  0
    5.1527   -4.7926    0.3018 C   0  0  0  0  0  0  0  0  0  0  0  0
    6.0359   -4.9367   -0.7372 C   0  0  0  0  0  0  0  0  0  0  0  0
    6.3206   -3.7231   -1.2975 O   0  0  0  0  0  0  0  0  0  0  0  0
    6.5995   -6.1444   -1.2996 C   0  0  0  0  0  0  0  0  0  0  0  0
    7.4868   -6.1656   -2.3697 C   0  0  0  0  0  0  0  0  0  0  0  0
    7.8014   -7.3913   -2.9657 C   0  0  0  0  0  0  0  0  0  0  0  0
    7.3351   -8.6049   -2.4232 C   0  0  0  0  0  0  0  0  0  0  0  0
    6.5953   -8.5805   -1.2448 C   0  0  0  0  0  0  0  0  0  0  0  0
    6.1842   -7.3616   -0.7349 C   0  0  0  0  0  0  0  0  0  0  0  0
    7.6131   -9.8601   -3.1653 C   0  0  0  0  0  0  0  0  0  0  0  0
    8.2226   -9.8574   -4.2328 O   0  0  0  0  0  0  0  0  0  0  0  0
    7.1307  -10.9968   -2.6310 O   0  0  0  0  0  0  0  0  0  0  0  0
    2.8366   -1.3935   -0.3218 S   0  0  0  0  0  0  0  0  0  0  0  0
    0.5305    1.1889    0.1803 H   0  0  0  0  0  0  0  0  0  0  0  0
    2.8378    2.0832    0.1056 H   0  0  0  0  0  0  0  0  0  0  0  0
    6.4249   -0.8897   -1.2826 H   0  0  0  0  0  0  0  0  0  0  0  0
    4.3162   -2.9902    1.1962 H   0  0  0  0  0  0  0  0  0  0  0  0
    4.7043   -5.5703    0.8997 H   0  0  0  0  0  0  0  0  0  0  0  0
    7.9040   -5.2431   -2.7681 H   0  0  0  0  0  0  0  0  0  0  0  0
    8.3993   -7.3957   -3.8761 H   0  0  0  0  0  0  0  0  0  0  0  0
    6.2785   -9.4585   -0.6992 H   0  0  0  0  0  0  0  0  0  0  0  0
    5.5028   -7.3831    0.1120 H   0  0  0  0  0  0  0  0  0  0  0  0
    6.6193  -10.9327   -1.8081 H   0  0  0  0  0  0  0  0  0  0  0  0
  1  2  2  0  0  0  0
  1 23  1  0  0  0  0
  2  3  1  0  0  0  0
  2 22  1  0  0  0  0
  3  4  1  0  0  0  0
  3 24  1  0  0  0  0
  4  5  2  0  0  0  0
  4  6  1  0  0  0  0
  6  7  2  0  0  0  0
  6 22  1  0  0  0  0
  7  8  1  0  0  0  0
  7 25  1  0  0  0  0
  8  9  2  0  0  0  0
  8 12  1  0  0  0  0
  9 10  1  0  0  0  0
  9 26  1  0  0  0  0
 10 11  2  0  0  0  0
 10 27  1  0  0  0  0
 11 12  1  0  0  0  0
 11 13  1  0  0  0  0
 13 14  2  0  0  0  0
 13 18  1  0  0  0  0
 14 15  1  0  0  0  0
 14 28  1  0  0  0  0
 15 16  2  0  0  0  0
 15 29  1  0  0  0  0
 16 17  1  0  0  0  0
 16 19  1  0  0  0  0
 17 18  2  0  0  0  0
 17 30  1  0  0  0  0
 18 31  1  0  0  0  0
 19 20  2  0  0  0  0
 19 21  1  0  0  0  0
 21 32  1  0  0  0  0
M  END
$$$$
