CAC
 OpenBabel04121316093D

 11 10  0  0  0  0  0  0  0  0999 V2000
    1.0099    0.0713    0.0694 O   0  5  0  0  0  0  0  0  0  0  0  0
    2.8599    0.0713    0.0694 As  0  0  0  0  0  0  0  0  0  0  0  0
    3.4111   -1.2875   -0.6947 O   0  0  0  0  0  0  0  0  0  0  0  0
    3.5099    1.6529   -0.8678 C   0  0  0  0  0  0  0  0  0  0  0  0
    3.5099    0.0922    1.9078 C   0  0  0  0  0  0  0  0  0  0  0  0
    3.1533    1.6415   -1.8766 H   0  0  0  0  0  0  0  0  0  0  0  0
    4.5799    1.6529   -0.8678 H   0  0  0  0  0  0  0  0  0  0  0  0
    3.1533    2.5323   -0.3734 H   0  0  0  0  0  0  0  0  0  0  0  0
    3.1532   -0.7757    2.4221 H   0  0  0  0  0  0  0  0  0  0  0  0
    3.1532    0.9715    2.4022 H   0  0  0  0  0  0  0  0  0  0  0  0
    4.5799    0.0922    1.9078 H   0  0  0  0  0  0  0  0  0  0  0  0
  1  2  1  0  0  0  0
  2  3  2  0  0  0  0
  2  4  1  0  0  0  0
  2  5  1  0  0  0  0
  4  6  1  0  0  0  0
  4  7  1  0  0  0  0
  4  8  1  0  0  0  0
  5  9  1  0  0  0  0
  5 10  1  0  0  0  0
  5 11  1  0  0  0  0
M  CHG  1   1  -1
M  END
$$$$
