CAX
 OpenBabel04121316093D

 31 31  0  0  1  0  0  0  0  0999 V2000
    4.3821    0.7744   -1.2641 O   0  0  0  0  0  0  0  0  0  0  0  0
    3.0548    0.6505   -1.7312 C   0  0  0  0  0  0  0  0  0  0  0  0
    2.3363    1.9979   -1.6326 C   0  0  0  0  0  0  0  0  0  0  0  0
    2.3239    2.5321   -0.1768 C   0  0  2  0  0  0  0  0  0  0  0  0
    2.6242    1.7158    0.4931 H   0  0  0  0  0  0  0  0  0  0  0  0
    0.9032    2.9264    0.2437 C   0  0  0  0  0  0  0  0  0  0  0  0
    0.8801    4.3652   -0.1615 C   0  0  0  0  0  0  0  0  0  0  0  0
   -0.1137    4.9430   -0.5687 O   0  0  0  0  0  0  0  0  0  0  0  0
    2.2216    5.0215    0.0758 C   0  0  2  0  0  0  0  0  0  0  0  0
    2.4278    5.6869   -0.7698 H   0  0  0  0  0  0  0  0  0  0  0  0
    3.2070    3.8053    0.0995 C   0  0  0  0  0  0  0  0  0  0  0  0
    3.9237    3.6306    1.4574 C   0  0  0  0  0  0  0  0  0  0  0  0
    4.3163    4.0410   -0.9431 C   0  0  0  0  0  0  0  0  0  0  0  0
    2.1649    5.8205    1.3739 C   0  0  0  0  0  0  0  0  0  0  0  0
    3.1043    0.2040   -3.0695 O   0  0  0  0  0  0  0  0  0  0  0  0
    4.3711    0.6800   -0.2994 H   0  0  0  0  0  0  0  0  0  0  0  0
    2.5294   -0.1087   -1.1422 H   0  0  0  0  0  0  0  0  0  0  0  0
    1.3212    1.8985   -2.0343 H   0  0  0  0  0  0  0  0  0  0  0  0
    2.8164    2.6840   -2.3309 H   0  0  0  0  0  0  0  0  0  0  0  0
    0.7754    2.8765    1.3306 H   0  0  0  0  0  0  0  0  0  0  0  0
    0.1166    2.3427   -0.2396 H   0  0  0  0  0  0  0  0  0  0  0  0
    3.2181    3.4764    2.2797 H   0  0  0  0  0  0  0  0  0  0  0  0
    4.5397    4.5068    1.6908 H   0  0  0  0  0  0  0  0  0  0  0  0
    4.5952    2.7658    1.4408 H   0  0  0  0  0  0  0  0  0  0  0  0
    3.9179    4.2401   -1.9424 H   0  0  0  0  0  0  0  0  0  0  0  0
    4.9904    3.1821   -1.0009 H   0  0  0  0  0  0  0  0  0  0  0  0
    4.9181    4.9183   -0.6871 H   0  0  0  0  0  0  0  0  0  0  0  0
    1.8507    5.1962    2.2190 H   0  0  0  0  0  0  0  0  0  0  0  0
    1.4442    6.6398    1.3093 H   0  0  0  0  0  0  0  0  0  0  0  0
    3.1435    6.2521    1.6052 H   0  0  0  0  0  0  0  0  0  0  0  0
    2.2089    0.2593   -3.4365 H   0  0  0  0  0  0  0  0  0  0  0  0
  1  2  1  0  0  0  0
  1 16  1  0  0  0  0
  2  3  1  0  0  0  0
  2 15  1  0  0  0  0
  2 17  1  0  0  0  0
  3 18  1  0  0  0  0
  3 19  1  0  0  0  0
  4  6  1  0  0  0  0
  4 11  1  0  0  0  0
  4  5  1  1  0  0  0
  4  3  1  0  0  0  0
  6  7  1  0  0  0  0
  6 20  1  0  0  0  0
  6 21  1  0  0  0  0
  7  8  2  0  0  0  0
  7  9  1  0  0  0  0
  9 11  1  0  0  0  0
  9 14  1  0  0  0  0
  9 10  1  6  0  0  0
 11 12  1  0  0  0  0
 11 13  1  0  0  0  0
 12 22  1  0  0  0  0
 12 23  1  0  0  0  0
 12 24  1  0  0  0  0
 13 25  1  0  0  0  0
 13 26  1  0  0  0  0
 13 27  1  0  0  0  0
 14 28  1  0  0  0  0
 14 29  1  0  0  0  0
 14 30  1  0  0  0  0
 15 31  1  0  0  0  0
M  END
$$$$
