CB1
 OpenBabel04121316093D

 26 27  0  0  0  0  0  0  0  0999 V2000
    1.0817    0.1198   -0.2525 N   0  0  0  0  0  0  0  0  0  0  0  0
    2.4460    0.0594   -0.1652 C   0  0  0  0  0  0  0  0  0  0  0  0
    3.1088    0.8098    0.5463 O   0  0  0  0  0  0  0  0  0  0  0  0
    3.0882   -0.9915   -0.9782 C   0  0  0  0  0  0  0  0  0  0  0  0
    3.8985   -0.6034   -2.0880 C   0  0  0  0  0  0  0  0  0  0  0  0
    4.3586   -1.5199   -3.0872 C   0  0  0  0  0  0  0  0  0  0  0  0
    5.2719   -1.0275   -4.0478 N   0  0  0  0  0  0  0  0  0  0  0  0
    5.5177   -1.3743   -5.4265 C   0  0  0  0  0  0  0  0  0  0  0  0
    5.1014    0.0297   -5.0166 C   0  0  0  0  0  0  0  0  0  0  0  0
    4.0728   -2.8816   -2.8188 C   0  0  0  0  0  0  0  0  0  0  0  0
    3.4156   -3.2752   -1.6120 C   0  0  0  0  0  0  0  0  0  0  0  0
    2.8771   -2.3420   -0.7190 C   0  0  0  0  0  0  0  0  0  0  0  0
    2.0779   -2.8488    0.4210 N   0  3  0  0  0  0  0  0  0  0  0  0
    1.8582   -4.0673    0.4552 O   0  0  0  0  0  0  0  0  0  0  0  0
    1.6288   -2.0572    1.2544 O   0  5  0  0  0  0  0  0  0  0  0  0
    4.3822   -4.0029   -3.7343 N   0  3  0  0  0  0  0  0  0  0  0  0
    4.8861   -3.7921   -4.8351 O   0  0  0  0  0  0  0  0  0  0  0  0
    4.0512   -5.1389   -3.3627 O   0  5  0  0  0  0  0  0  0  0  0  0
    0.6180    0.6384    0.4867 H   0  0  0  0  0  0  0  0  0  0  0  0
    0.5366   -0.6478   -0.6260 H   0  0  0  0  0  0  0  0  0  0  0  0
    4.2049    0.4446   -2.1495 H   0  0  0  0  0  0  0  0  0  0  0  0
    4.7968   -1.8652   -6.0716 H   0  0  0  0  0  0  0  0  0  0  0  0
    6.5528   -1.6519   -5.5768 H   0  0  0  0  0  0  0  0  0  0  0  0
    4.1428    0.3151   -5.4345 H   0  0  0  0  0  0  0  0  0  0  0  0
    5.8676    0.7909   -4.9711 H   0  0  0  0  0  0  0  0  0  0  0  0
    3.3118   -4.3368   -1.3761 H   0  0  0  0  0  0  0  0  0  0  0  0
  1  2  1  0  0  0  0
  1 19  1  0  0  0  0
  1 20  1  0  0  0  0
  2  3  2  0  0  0  0
  2  4  1  0  0  0  0
  4  5  2  0  0  0  0
  4 12  1  0  0  0  0
  5  6  1  0  0  0  0
  5 21  1  0  0  0  0
  6  7  1  0  0  0  0
  6 10  2  0  0  0  0
  7  8  1  0  0  0  0
  7  9  1  0  0  0  0
  8  9  1  0  0  0  0
  8 22  1  0  0  0  0
  8 23  1  0  0  0  0
  9 24  1  0  0  0  0
  9 25  1  0  0  0  0
 10 11  1  0  0  0  0
 10 16  1  0  0  0  0
 11 12  2  0  0  0  0
 11 26  1  0  0  0  0
 12 13  1  0  0  0  0
 13 14  2  0  0  0  0
 13 15  1  0  0  0  0
 16 17  2  0  0  0  0
 16 18  1  0  0  0  0
M  CHG  4  13   1  15  -1  16   1  18  -1
M  END
$$$$
