CB3
 OpenBabel04121316093D

 58 60  0  0  1  0  0  0  0  0999 V2000
    3.1983   -4.2389    5.0080 C   0  0  0  0  0  0  0  0  0  0  0  0
    3.7183   -5.2283    5.4169 C   0  0  0  0  0  0  0  0  0  0  0  0
    4.3491   -6.4288    5.9129 C   0  0  0  0  0  0  0  0  0  0  0  0
    3.3881   -7.5843    5.8380 N   0  0  0  0  0  0  0  0  0  0  0  0
    2.2406   -7.3905    5.0822 C   0  0  0  0  0  0  0  0  0  0  0  0
    1.8308   -8.1166    3.9722 C   0  0  0  0  0  0  0  0  0  0  0  0
    0.6680   -7.8597    3.2492 C   0  0  0  0  0  0  0  0  0  0  0  0
    0.0439   -6.6518    3.4241 C   0  0  0  0  0  0  0  0  0  0  0  0
    0.6085   -5.8011    4.3851 C   0  0  0  0  0  0  0  0  0  0  0  0
    1.4423   -6.3115    5.3662 C   0  0  0  0  0  0  0  0  0  0  0  0
   -1.3528   -6.5803    2.8455 C   0  0  0  0  0  0  0  0  0  0  0  0
   -1.7305   -7.3202    1.9671 O   0  0  0  0  0  0  0  0  0  0  0  0
   -2.2695   -5.7628    3.4724 N   0  0  0  0  0  0  0  0  0  0  0  0
   -1.9774   -5.0528    4.6883 C   0  0  2  0  0  0  0  0  0  0  0  0
   -1.2410   -4.3241    4.3538 H   0  0  0  0  0  0  0  0  0  0  0  0
   -1.5809   -5.9774    5.9570 C   0  0  0  0  0  0  0  0  0  0  0  0
   -1.4889   -5.5618    7.1036 O   0  0  0  0  0  0  0  0  0  0  0  0
   -1.3850   -7.2977    5.6914 O   0  0  0  0  0  0  0  0  0  0  0  0
   -3.0410   -4.1138    5.1470 C   0  0  0  0  0  0  0  0  0  0  0  0
   -4.1692   -4.9578    5.6761 C   0  0  0  0  0  0  0  0  0  0  0  0
   -5.2016   -4.0797    6.2786 C   0  0  0  0  0  0  0  0  0  0  0  0
   -5.1543   -2.8635    6.2999 O   0  0  0  0  0  0  0  0  0  0  0  0
   -6.2007   -4.8063    6.8204 O   0  0  0  0  0  0  0  0  0  0  0  0
    3.9137   -8.9023    6.2427 C   0  0  0  0  0  0  0  0  0  0  0  0
    2.8811  -10.0088    6.1137 C   0  0  0  0  0  0  0  0  0  0  0  0
    1.8260  -10.0853    7.0331 C   0  0  0  0  0  0  0  0  0  0  0  0
    0.5892  -10.5942    6.6317 C   0  0  0  0  0  0  0  0  0  0  0  0
    0.4703  -11.2511    5.4072 C   0  0  0  0  0  0  0  0  0  0  0  0
    1.5755  -11.3050    4.5539 C   0  0  0  0  0  0  0  0  0  0  0  0
    2.7884  -10.7096    4.9052 C   0  0  0  0  0  0  0  0  0  0  0  0
    1.3663  -11.8605    3.1927 C   0  0  0  0  0  0  0  0  0  0  0  0
    2.2454  -11.6887    2.3544 O   0  0  0  0  0  0  0  0  0  0  0  0
    0.2134  -12.5654    2.9365 N   0  0  0  0  0  0  0  0  0  0  0  0
   -0.7338  -12.5172    3.8150 C   0  0  0  0  0  0  0  0  0  0  0  0
   -0.7361  -11.8008    4.9719 N   0  0  0  0  0  0  0  0  0  0  0  0
   -1.4526  -11.9546    5.6630 H   0  0  0  0  0  0  0  0  0  0  0  0
   -1.8447  -13.2497    3.6153 N   0  0  0  0  0  0  0  0  0  0  0  0
    2.7483   -3.3476    4.6355 H   0  0  0  0  0  0  0  0  0  0  0  0
    4.6432   -6.3016    6.9605 H   0  0  0  0  0  0  0  0  0  0  0  0
    5.2498   -6.6656    5.3361 H   0  0  0  0  0  0  0  0  0  0  0  0
    2.3936   -8.9438    3.6044 H   0  0  0  0  0  0  0  0  0  0  0  0
    0.2611   -8.6261    2.5954 H   0  0  0  0  0  0  0  0  0  0  0  0
    0.3291   -4.7991    4.6683 H   0  0  0  0  0  0  0  0  0  0  0  0
    1.5959   -5.7143    6.2733 H   0  0  0  0  0  0  0  0  0  0  0  0
   -3.1212   -5.6026    2.9438 H   0  0  0  0  0  0  0  0  0  0  0  0
   -0.4231   -7.5213    5.6508 H   0  0  0  0  0  0  0  0  0  0  0  0
   -3.3527   -3.4434    4.3362 H   0  0  0  0  0  0  0  0  0  0  0  0
   -2.5987   -3.4713    5.9248 H   0  0  0  0  0  0  0  0  0  0  0  0
   -3.8282   -5.6312    6.4686 H   0  0  0  0  0  0  0  0  0  0  0  0
   -4.5763   -5.5704    4.8672 H   0  0  0  0  0  0  0  0  0  0  0  0
   -6.0560   -5.7708    6.7485 H   0  0  0  0  0  0  0  0  0  0  0  0
    4.2124   -8.8389    7.2961 H   0  0  0  0  0  0  0  0  0  0  0  0
    4.8105   -9.1466    5.6641 H   0  0  0  0  0  0  0  0  0  0  0  0
    1.9381   -9.6563    8.0250 H   0  0  0  0  0  0  0  0  0  0  0  0
   -0.2782  -10.4295    7.2663 H   0  0  0  0  0  0  0  0  0  0  0  0
    3.5520  -10.5723    4.1351 H   0  0  0  0  0  0  0  0  0  0  0  0
   -1.8846  -13.7796    2.7530 H   0  0  0  0  0  0  0  0  0  0  0  0
   -2.6093  -13.3203    4.2640 H   0  0  0  0  0  0  0  0  0  0  0  0
  1  2  3  0  0  0  0
  1 38  1  0  0  0  0
  2  3  1  0  0  0  0
  3  4  1  0  0  0  0
  3 39  1  0  0  0  0
  3 40  1  0  0  0  0
  4  5  1  0  0  0  0
  4 24  1  0  0  0  0
  5  6  2  0  0  0  0
  5 10  1  0  0  0  0
  6  7  1  0  0  0  0
  6 41  1  0  0  0  0
  7  8  2  0  0  0  0
  7 42  1  0  0  0  0
  8  9  1  0  0  0  0
  8 11  1  0  0  0  0
  9 10  2  0  0  0  0
  9 43  1  0  0  0  0
 10 44  1  0  0  0  0
 11 12  2  0  0  0  0
 11 13  1  0  0  0  0
 13 45  1  0  0  0  0
 14 16  1  0  0  0  0
 14 19  1  0  0  0  0
 14 15  1  6  0  0  0
 14 13  1  0  0  0  0
 16 17  2  0  0  0  0
 16 18  1  0  0  0  0
 18 46  1  0  0  0  0
 19 20  1  0  0  0  0
 19 47  1  0  0  0  0
 19 48  1  0  0  0  0
 20 21  1  0  0  0  0
 20 49  1  0  0  0  0
 20 50  1  0  0  0  0
 21 22  2  0  0  0  0
 21 23  1  0  0  0  0
 23 51  1  0  0  0  0
 24 25  1  0  0  0  0
 24 52  1  0  0  0  0
 24 53  1  0  0  0  0
 25 26  2  0  0  0  0
 25 30  1  0  0  0  0
 26 27  1  0  0  0  0
 26 54  1  0  0  0  0
 27 28  2  0  0  0  0
 27 55  1  0  0  0  0
 28 29  1  0  0  0  0
 28 35  1  0  0  0  0
 29 30  2  0  0  0  0
 29 31  1  0  0  0  0
 30 56  1  0  0  0  0
 31 32  2  0  0  0  0
 31 33  1  0  0  0  0
 33 34  2  0  0  0  0
 34 35  1  0  0  0  0
 34 37  1  0  0  0  0
 35 36  1  0  0  0  0
 37 57  1  0  0  0  0
 37 58  1  0  0  0  0
M  END
$$$$
