CB4
 OpenBabel04121316093D

 37 37  0  0  0  0  0  0  0  0999 V2000
    0.9746    0.0730    0.0634 O   0  0  0  0  0  0  0  0  0  0  0  0
    2.4326    0.0730    0.0634 B   0  0  0  0  0  0  0  0  0  0  0  0
    3.2116   -0.1469   -1.2678 C   0  0  0  0  0  0  0  0  0  0  0  0
    2.2794   -0.3246   -2.3435 N   0  0  0  0  0  0  0  0  0  0  0  0
    2.7449   -0.5393   -3.6426 C   0  0  0  0  0  0  0  0  0  0  0  0
    3.9518   -0.5758   -3.8639 O   0  0  0  0  0  0  0  0  0  0  0  0
    1.8065   -0.7182   -4.7254 C   0  0  0  0  0  0  0  0  0  0  0  0
    0.5571   -0.6803   -4.4963 N   0  0  0  0  0  0  0  0  0  0  0  0
    0.1233   -0.4803   -3.2857 O   0  0  0  0  0  0  0  0  0  0  0  0
   -1.2403   -0.4390   -3.0356 C   0  0  0  0  0  0  0  0  0  0  0  0
   -1.8537    0.6576   -3.8215 C   0  0  0  0  0  0  0  0  0  0  0  0
   -2.7300    0.4076   -4.6440 O   0  0  0  0  0  0  0  0  0  0  0  0
   -1.4491    1.9306   -3.6329 O   0  0  0  0  0  0  0  0  0  0  0  0
   -1.8694   -1.7632   -3.4370 C   0  0  0  0  0  0  0  0  0  0  0  0
   -1.4766   -0.1942   -1.5542 C   0  0  0  0  0  0  0  0  0  0  0  0
    2.2879   -0.9401   -6.0686 C   0  0  0  0  0  0  0  0  0  0  0  0
    2.6911    0.0086   -6.9485 C   0  0  0  0  0  0  0  0  0  0  0  0
    3.0228   -0.6531   -8.0837 S   0  0  0  0  0  0  0  0  0  0  0  0
    2.8138   -1.9234   -7.8694 C   0  0  0  0  0  0  0  0  0  0  0  0
    2.3732   -2.0935   -6.6733 N   0  0  0  0  0  0  0  0  0  0  0  0
    3.0351   -2.9429   -8.7977 N   0  0  0  0  0  0  0  0  0  0  0  0
    3.1616    0.2788    1.3092 O   0  0  0  0  0  0  0  0  0  0  0  0
    0.6513   -0.0761   -0.8389 H   0  0  0  0  0  0  0  0  0  0  0  0
    3.8268   -1.0181   -1.1813 H   0  0  0  0  0  0  0  0  0  0  0  0
    3.8268    0.7058   -1.4661 H   0  0  0  0  0  0  0  0  0  0  0  0
    1.3115   -0.2953   -2.1660 H   0  0  0  0  0  0  0  0  0  0  0  0
   -0.7802    2.1215   -3.0050 H   0  0  0  0  0  0  0  0  0  0  0  0
   -1.7031   -1.9355   -4.4799 H   0  0  0  0  0  0  0  0  0  0  0  0
   -2.9214   -1.7313   -3.2441 H   0  0  0  0  0  0  0  0  0  0  0  0
   -1.4266   -2.5550   -2.8696 H   0  0  0  0  0  0  0  0  0  0  0  0
   -1.0338    0.7379   -1.2716 H   0  0  0  0  0  0  0  0  0  0  0  0
   -1.0338   -0.9860   -0.9868 H   0  0  0  0  0  0  0  0  0  0  0  0
   -2.5286   -0.1624   -1.3612 H   0  0  0  0  0  0  0  0  0  0  0  0
    2.7363    1.0268   -6.7870 H   0  0  0  0  0  0  0  0  0  0  0  0
    3.3754   -2.7256   -9.6957 H   0  0  0  0  0  0  0  0  0  0  0  0
    2.8509   -3.8788   -8.5543 H   0  0  0  0  0  0  0  0  0  0  0  0
    2.5313    0.3990    2.0366 H   0  0  0  0  0  0  0  0  0  0  0  0
  1  2  1  0  0  0  0
  1 23  1  0  0  0  0
  2  3  1  0  0  0  0
  2 22  1  0  0  0  0
  3  4  1  0  0  0  0
  3 24  1  0  0  0  0
  3 25  1  0  0  0  0
  4  5  1  0  0  0  0
  4 26  1  0  0  0  0
  5  6  2  0  0  0  0
  5  7  1  0  0  0  0
  7  8  2  0  0  0  0
  7 16  1  0  0  0  0
  8  9  1  0  0  0  0
  9 10  1  0  0  0  0
 10 11  1  0  0  0  0
 10 14  1  0  0  0  0
 10 15  1  0  0  0  0
 11 12  2  0  0  0  0
 11 13  1  0  0  0  0
 13 27  1  0  0  0  0
 14 28  1  0  0  0  0
 14 29  1  0  0  0  0
 14 30  1  0  0  0  0
 15 31  1  0  0  0  0
 15 32  1  0  0  0  0
 15 33  1  0  0  0  0
 16 17  2  0  0  0  0
 16 20  1  0  0  0  0
 17 18  1  0  0  0  0
 17 34  1  0  0  0  0
 18 19  1  0  0  0  0
 19 20  2  0  0  0  0
 19 21  1  0  0  0  0
 21 35  1  0  0  0  0
 21 36  1  0  0  0  0
 22 37  1  0  0  0  0
M  END
$$$$
