CB9
 OpenBabel04121316093D

 46 47  0  0  1  0  0  0  0  0999 V2000
   -0.3888    3.9691   -0.6758 O   0  0  0  0  0  0  0  0  0  0  0  0
    0.4489    4.8539   -0.5358 C   0  0  0  0  0  0  0  0  0  0  0  0
    1.9296    4.6982   -0.1676 C   0  0  2  0  0  0  0  0  0  0  0  0
    2.3508    5.7128   -0.2154 H   0  0  0  0  0  0  0  0  0  0  0  0
    2.8288    3.7540   -1.0208 C   0  0  2  0  0  0  0  0  0  0  0  0
    3.5066    3.2130   -0.3468 H   0  0  0  0  0  0  0  0  0  0  0  0
    3.6808    4.4766   -1.9792 N   0  0  0  0  0  0  0  0  0  0  0  0
    2.8492    4.7618   -3.1847 C   0  0  2  0  0  0  0  0  0  0  0  0
    2.3092    5.6906   -2.9535 H   0  0  0  0  0  0  0  0  0  0  0  0
    1.9036    3.5706   -3.4743 C   0  0  0  0  0  0  0  0  0  0  0  0
    1.9470    2.5365   -1.9903 S   0  0  0  0  0  0  0  0  0  0  0  0
    2.3781    2.5787   -4.5259 C   0  0  0  0  0  0  0  0  0  0  0  0
    0.4905    4.0764   -3.7787 C   0  0  0  0  0  0  0  0  0  0  0  0
    3.7434    5.0589   -4.3976 C   0  0  0  0  0  0  0  0  0  0  0  0
    4.9301    4.7623   -4.4677 O   0  0  0  0  0  0  0  0  0  0  0  0
    3.0945    5.6354   -5.4368 O   0  0  0  0  0  0  0  0  0  0  0  0
    1.9704    4.3615    1.2491 N   0  0  0  0  0  0  0  0  0  0  0  0
    1.6614    3.0736    1.6555 C   0  0  0  0  0  0  0  0  0  0  0  0
    1.1868    2.2260    0.9058 O   0  0  0  0  0  0  0  0  0  0  0  0
    1.7950    2.7855    3.1244 C   0  0  2  0  0  0  0  0  0  0  0  0
    1.9842    1.7024    3.1793 H   0  0  0  0  0  0  0  0  0  0  0  0
    0.5070    3.0373    3.8909 C   0  0  0  0  0  0  0  0  0  0  0  0
    0.5342    2.9779    5.2903 C   0  0  0  0  0  0  0  0  0  0  0  0
   -0.6530    2.9306    6.0115 C   0  0  0  0  0  0  0  0  0  0  0  0
   -1.8743    3.0598    5.3559 C   0  0  0  0  0  0  0  0  0  0  0  0
   -1.9117    3.2559    3.9800 C   0  0  0  0  0  0  0  0  0  0  0  0
   -0.7335    3.1877    3.2437 C   0  0  0  0  0  0  0  0  0  0  0  0
    3.0008    3.4610    3.7187 C   0  0  0  0  0  0  0  0  0  0  0  0
    4.0104    2.8646    4.0909 O   0  0  0  0  0  0  0  0  0  0  0  0
    2.9174    4.8163    3.7699 O   0  0  0  0  0  0  0  0  0  0  0  0
    0.1006    5.8969   -0.5713 H   0  0  0  0  0  0  0  0  0  0  0  0
    4.4162    3.8224   -2.2782 H   0  0  0  0  0  0  0  0  0  0  0  0
    3.3789    2.1937   -4.2904 H   0  0  0  0  0  0  0  0  0  0  0  0
    2.4139    3.0379   -5.5141 H   0  0  0  0  0  0  0  0  0  0  0  0
    1.6910    1.7257   -4.5919 H   0  0  0  0  0  0  0  0  0  0  0  0
    0.1346    4.8140   -3.0525 H   0  0  0  0  0  0  0  0  0  0  0  0
   -0.2392    3.2621   -3.8128 H   0  0  0  0  0  0  0  0  0  0  0  0
    0.4675    4.5852   -4.7467 H   0  0  0  0  0  0  0  0  0  0  0  0
    2.1433    5.8137   -5.3184 H   0  0  0  0  0  0  0  0  0  0  0  0
    2.6534    4.8859    1.7865 H   0  0  0  0  0  0  0  0  0  0  0  0
    1.4773    2.9148    5.8315 H   0  0  0  0  0  0  0  0  0  0  0  0
   -0.6208    2.7685    7.0848 H   0  0  0  0  0  0  0  0  0  0  0  0
   -2.8006    2.9934    5.9178 H   0  0  0  0  0  0  0  0  0  0  0  0
   -2.8582    3.4136    3.4693 H   0  0  0  0  0  0  0  0  0  0  0  0
   -0.8222    3.2070    2.1560 H   0  0  0  0  0  0  0  0  0  0  0  0
    2.0059    5.1538    3.6260 H   0  0  0  0  0  0  0  0  0  0  0  0
  1  2  2  0  0  0  0
  2 31  1  0  0  0  0
  3 17  1  0  0  0  0
  3  4  1  6  0  0  0
  3  2  1  0  0  0  0
  5  7  1  0  0  0  0
  5 11  1  0  0  0  0
  5  6  1  1  0  0  0
  5  3  1  0  0  0  0
  7  8  1  0  0  0  0
  7 32  1  0  0  0  0
  8 10  1  0  0  0  0
  8 14  1  0  0  0  0
  8  9  1  1  0  0  0
 10 11  1  0  0  0  0
 10 12  1  0  0  0  0
 10 13  1  0  0  0  0
 12 33  1  0  0  0  0
 12 34  1  0  0  0  0
 12 35  1  0  0  0  0
 13 36  1  0  0  0  0
 13 37  1  0  0  0  0
 13 38  1  0  0  0  0
 14 15  2  0  0  0  0
 14 16  1  0  0  0  0
 16 39  1  0  0  0  0
 17 18  1  0  0  0  0
 17 40  1  0  0  0  0
 18 19  2  0  0  0  0
 20 22  1  0  0  0  0
 20 28  1  0  0  0  0
 20 21  1  1  0  0  0
 20 18  1  0  0  0  0
 22 23  2  0  0  0  0
 22 27  1  0  0  0  0
 23 24  1  0  0  0  0
 23 41  1  0  0  0  0
 24 25  2  0  0  0  0
 24 42  1  0  0  0  0
 25 26  1  0  0  0  0
 25 43  1  0  0  0  0
 26 27  2  0  0  0  0
 26 44  1  0  0  0  0
 27 45  1  0  0  0  0
 28 29  2  0  0  0  0
 28 30  1  0  0  0  0
 30 46  1  0  0  0  0
M  END
$$$$
