CBL
 OpenBabel04121316093D

 38 38  0  0  0  0  0  0  0  0999 V2000
    0.7608    0.0521   -0.0099 Cl  0  0  0  0  0  0  0  0  0  0  0  0
    2.5330   -0.0117    0.0308 C   0  0  0  0  0  0  0  0  0  0  0  0
    3.1734    0.6623   -1.1970 C   0  0  0  0  0  0  0  0  0  0  0  0
    4.6444    0.7523   -1.1378 N   0  0  0  0  0  0  0  0  0  0  0  0
    5.3301    0.0970   -0.1396 C   0  0  0  0  0  0  0  0  0  0  0  0
    6.1241    0.8171    0.7599 C   0  0  0  0  0  0  0  0  0  0  0  0
    6.9085    0.1602    1.6981 C   0  0  0  0  0  0  0  0  0  0  0  0
    6.7680   -1.2162    1.8644 C   0  0  0  0  0  0  0  0  0  0  0  0
    5.8440   -1.9060    1.0687 C   0  0  0  0  0  0  0  0  0  0  0  0
    5.2299   -1.2797    0.0061 C   0  0  0  0  0  0  0  0  0  0  0  0
    7.6542   -1.9305    2.8494 C   0  0  0  0  0  0  0  0  0  0  0  0
    7.3329   -3.4150    2.9072 C   0  0  0  0  0  0  0  0  0  0  0  0
    8.2073   -4.1957    3.8608 C   0  0  0  0  0  0  0  0  0  0  0  0
    7.7686   -5.6401    3.8254 C   0  0  0  0  0  0  0  0  0  0  0  0
    6.8596   -6.0823    3.1268 O   0  0  0  0  0  0  0  0  0  0  0  0
    8.4795   -6.4306    4.6509 O   0  0  0  0  0  0  0  0  0  0  0  0
    5.3891    1.3128   -2.2819 C   0  0  0  0  0  0  0  0  0  0  0  0
    6.9176    1.1896   -2.1649 C   0  0  0  0  0  0  0  0  0  0  0  0
    7.7595    1.9377   -3.5378 Cl  0  0  0  0  0  0  0  0  0  0  0  0
    2.7759   -1.0752    0.0752 H   0  0  0  0  0  0  0  0  0  0  0  0
    2.8747    0.4561    0.9609 H   0  0  0  0  0  0  0  0  0  0  0  0
    2.7965    1.6892   -1.2651 H   0  0  0  0  0  0  0  0  0  0  0  0
    2.8691    0.1397   -2.1119 H   0  0  0  0  0  0  0  0  0  0  0  0
    6.1616    1.9017    0.6966 H   0  0  0  0  0  0  0  0  0  0  0  0
    7.6207    0.7263    2.2920 H   0  0  0  0  0  0  0  0  0  0  0  0
    5.5962   -2.9520    1.2241 H   0  0  0  0  0  0  0  0  0  0  0  0
    4.6363   -1.8788   -0.6793 H   0  0  0  0  0  0  0  0  0  0  0  0
    7.5369   -1.4764    3.8394 H   0  0  0  0  0  0  0  0  0  0  0  0
    8.6959   -1.7960    2.5305 H   0  0  0  0  0  0  0  0  0  0  0  0
    7.4423   -3.8523    1.9034 H   0  0  0  0  0  0  0  0  0  0  0  0
    6.2832   -3.5439    3.2070 H   0  0  0  0  0  0  0  0  0  0  0  0
    8.0887   -3.7980    4.8728 H   0  0  0  0  0  0  0  0  0  0  0  0
    9.2533   -4.1197    3.5479 H   0  0  0  0  0  0  0  0  0  0  0  0
    9.1722   -5.9600    5.1499 H   0  0  0  0  0  0  0  0  0  0  0  0
    5.1117    2.3688   -2.3740 H   0  0  0  0  0  0  0  0  0  0  0  0
    5.0649    0.8097   -3.2022 H   0  0  0  0  0  0  0  0  0  0  0  0
    7.2263    0.1395   -2.1081 H   0  0  0  0  0  0  0  0  0  0  0  0
    7.2891    1.7067   -1.2782 H   0  0  0  0  0  0  0  0  0  0  0  0
  1  2  1  0  0  0  0
  2  3  1  0  0  0  0
  2 20  1  0  0  0  0
  2 21  1  0  0  0  0
  3  4  1  0  0  0  0
  3 22  1  0  0  0  0
  3 23  1  0  0  0  0
  4  5  1  0  0  0  0
  4 17  1  0  0  0  0
  5  6  2  0  0  0  0
  5 10  1  0  0  0  0
  6  7  1  0  0  0  0
  6 24  1  0  0  0  0
  7  8  2  0  0  0  0
  7 25  1  0  0  0  0
  8  9  1  0  0  0  0
  8 11  1  0  0  0  0
  9 10  2  0  0  0  0
  9 26  1  0  0  0  0
 10 27  1  0  0  0  0
 11 12  1  0  0  0  0
 11 28  1  0  0  0  0
 11 29  1  0  0  0  0
 12 13  1  0  0  0  0
 12 30  1  0  0  0  0
 12 31  1  0  0  0  0
 13 14  1  0  0  0  0
 13 32  1  0  0  0  0
 13 33  1  0  0  0  0
 14 15  2  0  0  0  0
 14 16  1  0  0  0  0
 16 34  1  0  0  0  0
 17 18  1  0  0  0  0
 17 35  1  0  0  0  0
 17 36  1  0  0  0  0
 18 19  1  0  0  0  0
 18 37  1  0  0  0  0
 18 38  1  0  0  0  0
M  END
$$$$
