CCQ
 OpenBabel04121316093D

107109  0  0  1  0  0  0  0  0999 V2000
   28.3823    2.1530    0.7875 O   0  0  0  0  0  0  0  0  0  0  0  0
   27.0957    1.8156    0.2583 C   0  0  1  0  0  0  0  0  0  0  0  0
   27.2288    1.1334   -0.5876 H   0  0  0  0  0  0  0  0  0  0  0  0
   26.2273    1.1885    1.3768 C   0  0  0  0  0  0  0  0  0  0  0  0
   26.7583   -0.1798    1.8715 N   0  3  0  0  0  0  0  0  0  0  0  0
   26.8039   -1.1737    0.7200 C   0  0  0  0  0  0  0  0  0  0  0  0
   28.1140   -0.0636    2.5484 C   0  0  0  0  0  0  0  0  0  0  0  0
   25.7784   -0.6954    2.9252 C   0  0  0  0  0  0  0  0  0  0  0  0
   26.5006    3.1106   -0.2704 C   0  0  0  0  0  0  0  0  0  0  0  0
   25.1539    2.8869   -0.9056 C   0  0  0  0  0  0  0  0  0  0  0  0
   24.6058    1.7900   -0.9639 O   0  0  0  0  0  0  0  0  0  0  0  0
   24.4394    4.3520   -1.5193 S   0  0  0  0  0  0  0  0  0  0  0  0
   22.8568    3.7229   -2.1235 C   0  0  0  0  0  0  0  0  0  0  0  0
   22.0624    4.8767   -2.6968 C   0  0  0  0  0  0  0  0  0  0  0  0
   20.8720    4.4778   -3.4027 N   0  0  0  0  0  0  0  0  0  0  0  0
   20.1138    5.5288   -3.9312 C   0  0  0  0  0  0  0  0  0  0  0  0
   20.4135    6.6740   -3.8398 O   0  0  0  0  0  0  0  0  0  0  0  0
   18.8109    5.0517   -4.5157 C   0  0  0  0  0  0  0  0  0  0  0  0
   17.9280    6.2097   -4.9702 C   0  0  0  0  0  0  0  0  0  0  0  0
   16.7404    5.8413   -5.7264 N   0  0  0  0  0  0  0  0  0  0  0  0
   15.8514    6.8344   -6.1888 C   0  0  0  0  0  0  0  0  0  0  0  0
   16.1476    8.0196   -6.0975 O   0  0  0  0  0  0  0  0  0  0  0  0
   14.4440    6.4545   -6.8703 C   0  0  1  0  0  0  0  0  0  0  0  0
   14.6097    5.6384   -7.5916 H   0  0  0  0  0  0  0  0  0  0  0  0
   13.4740    5.9633   -5.8578 C   0  0  0  0  0  0  0  0  0  0  0  0
   13.1776    7.2041   -4.6307 C   0  0  0  0  0  0  0  0  0  0  0  0
   14.2222    7.7197   -3.7588 O   0  0  0  0  0  0  0  0  0  0  0  0
   13.9615    8.8359   -2.4864 P   0  0  2  0  0  0  0  0  0  0  0  0
   15.1243    8.8054   -1.5171 O   0  0  0  0  0  0  0  0  0  0  0  0
   12.6790    8.2738   -1.6200 O   0  0  0  0  0  0  0  0  0  0  0  0
   12.5537    7.2357   -0.2418 P   0  0  1  0  0  0  0  0  0  0  0  0
   11.0405    7.0797   -0.4222 O   0  0  0  0  0  0  0  0  0  0  0  0
   13.2446    5.8520   -0.8040 O   0  0  0  0  0  0  0  0  0  0  0  0
   14.1417    6.1250   -1.7691 C   0  0  0  0  0  0  0  0  0  0  0  0
   14.9801    5.1714   -2.4518 C   0  0  1  0  0  0  0  0  0  0  0  0
   15.2729    5.6695   -3.3727 H   0  0  0  0  0  0  0  0  0  0  0  0
   16.2169    5.1066   -1.8231 O   0  0  0  0  0  0  0  0  0  0  0  0
   16.7188    3.9194   -2.3438 C   0  0  2  0  0  0  0  0  0  0  0  0
   16.9113    4.0009   -3.4144 H   0  0  0  0  0  0  0  0  0  0  0  0
   15.5889    2.9103   -2.3163 C   0  0  1  0  0  0  0  0  0  0  0  0
   15.5703    2.4403   -1.3330 H   0  0  0  0  0  0  0  0  0  0  0  0
   14.3628    3.7943   -2.5284 C   0  0  2  0  0  0  0  0  0  0  0  0
   13.6789    3.6328   -1.6936 H   0  0  0  0  0  0  0  0  0  0  0  0
   13.6643    3.5954   -3.7743 O   0  0  0  0  0  0  0  0  0  0  0  0
   12.2219    4.5327   -3.9583 P   0  0  0  0  0  0  0  0  0  0  0  0
   11.8249    3.5203   -5.0520 O   0  0  0  0  0  0  0  0  0  0  0  0
   11.5574    3.6086   -2.7931 O   0  0  0  0  0  0  0  0  0  0  0  0
   10.7795    5.4700   -4.1422 O   0  0  0  0  0  0  0  0  0  0  0  0
   15.7432    1.9408   -3.3480 O   0  0  0  0  0  0  0  0  0  0  0  0
   17.9050    3.6958   -1.5965 N   0  0  0  0  0  0  0  0  0  0  0  0
   18.5712    4.6129   -0.8113 C   0  0  0  0  0  0  0  0  0  0  0  0
   19.6232    4.0671   -0.2384 N   0  0  0  0  0  0  0  0  0  0  0  0
   19.6623    2.7925   -0.7529 C   0  0  0  0  0  0  0  0  0  0  0  0
   18.6729    2.5905   -1.6903 C   0  0  0  0  0  0  0  0  0  0  0  0
   18.5043    1.5498   -2.5161 N   0  0  0  0  0  0  0  0  0  0  0  0
   19.4503    0.6207   -2.2833 C   0  0  0  0  0  0  0  0  0  0  0  0
   20.4537    0.6577   -1.3738 N   0  0  0  0  0  0  0  0  0  0  0  0
   20.5436    1.7299   -0.5527 C   0  0  0  0  0  0  0  0  0  0  0  0
   21.5396    1.7801    0.4166 N   0  0  0  0  0  0  0  0  0  0  0  0
   12.4283    6.1975    1.1364 O   0  0  0  0  0  0  0  0  0  0  0  0
   13.6094   10.1351   -3.1453 O   0  5  0  0  0  0  0  0  0  0  0  0
   12.0669    5.5372   -6.5934 C   0  0  0  0  0  0  0  0  0  0  0  0
   14.3263    4.7502   -5.5211 C   0  0  0  0  0  0  0  0  0  0  0  0
   13.6485    7.4317   -7.4827 O   0  0  0  0  0  0  0  0  0  0  0  0
   29.0275    1.4905    0.4862 H   0  0  0  0  0  0  0  0  0  0  0  0
   25.1999    0.9956    1.0596 H   0  0  0  0  0  0  0  0  0  0  0  0
   26.1943    1.8496    2.2510 H   0  0  0  0  0  0  0  0  0  0  0  0
   27.5061   -0.8157   -0.0364 H   0  0  0  0  0  0  0  0  0  0  0  0
   25.7984   -1.2597    0.2964 H   0  0  0  0  0  0  0  0  0  0  0  0
   27.1540   -2.1331    1.1050 H   0  0  0  0  0  0  0  0  0  0  0  0
   28.8848    0.1069    1.8004 H   0  0  0  0  0  0  0  0  0  0  0  0
   28.3405   -1.0170    3.0317 H   0  0  0  0  0  0  0  0  0  0  0  0
   28.0695    0.7473    3.2815 H   0  0  0  0  0  0  0  0  0  0  0  0
   24.7951   -0.8142    2.4627 H   0  0  0  0  0  0  0  0  0  0  0  0
   25.7390    0.0344    3.7397 H   0  0  0  0  0  0  0  0  0  0  0  0
   26.1508   -1.6567    3.2896 H   0  0  0  0  0  0  0  0  0  0  0  0
   27.1812    3.5236   -1.0257 H   0  0  0  0  0  0  0  0  0  0  0  0
   26.4272    3.8405    0.5435 H   0  0  0  0  0  0  0  0  0  0  0  0
   22.3268    3.3254   -1.2712 H   0  0  0  0  0  0  0  0  0  0  0  0
   22.9835    2.9163   -2.8525 H   0  0  0  0  0  0  0  0  0  0  0  0
   22.6563    5.4119   -3.4403 H   0  0  0  0  0  0  0  0  0  0  0  0
   21.7786    5.5796   -1.9015 H   0  0  0  0  0  0  0  0  0  0  0  0
   20.4570    3.5718   -3.2354 H   0  0  0  0  0  0  0  0  0  0  0  0
   18.4236    4.6470   -3.6170 H   0  0  0  0  0  0  0  0  0  0  0  0
   18.8855    4.2066   -5.2039 H   0  0  0  0  0  0  0  0  0  0  0  0
   18.4927    6.8445   -5.6428 H   0  0  0  0  0  0  0  0  0  0  0  0
   17.6022    6.7923   -4.0964 H   0  0  0  0  0  0  0  0  0  0  0  0
   16.6309    4.8541   -5.9114 H   0  0  0  0  0  0  0  0  0  0  0  0
   12.5031    6.7813   -3.9075 H   0  0  0  0  0  0  0  0  0  0  0  0
   12.5569    7.9998   -5.0322 H   0  0  0  0  0  0  0  0  0  0  0  0
   14.8357    6.8513   -1.4169 H   0  0  0  0  0  0  0  0  0  0  0  0
   13.4033    6.3607   -2.4834 H   0  0  0  0  0  0  0  0  0  0  0  0
   11.4402    2.7852   -3.3355 H   0  0  0  0  0  0  0  0  0  0  0  0
   10.8234    6.4167   -4.3526 H   0  0  0  0  0  0  0  0  0  0  0  0
   16.6617    1.6123   -3.3042 H   0  0  0  0  0  0  0  0  0  0  0  0
   18.2503    5.6507   -0.7079 H   0  0  0  0  0  0  0  0  0  0  0  0
   19.3876   -0.2737   -2.8955 H   0  0  0  0  0  0  0  0  0  0  0  0
   22.3147    1.1683    0.2136 H   0  0  0  0  0  0  0  0  0  0  0  0
   21.7224    2.7303    0.7344 H   0  0  0  0  0  0  0  0  0  0  0  0
   11.5730    6.4329    1.5410 H   0  0  0  0  0  0  0  0  0  0  0  0
   11.4981    6.4185   -6.8716 H   0  0  0  0  0  0  0  0  0  0  0  0
   11.2251    5.0327   -6.1072 H   0  0  0  0  0  0  0  0  0  0  0  0
   12.2463    4.8056   -7.3902 H   0  0  0  0  0  0  0  0  0  0  0  0
   15.2909    4.4622   -5.0910 H   0  0  0  0  0  0  0  0  0  0  0  0
   14.0102    3.7714   -5.8966 H   0  0  0  0  0  0  0  0  0  0  0  0
   14.1945    5.1267   -4.5493 H   0  0  0  0  0  0  0  0  0  0  0  0
   14.2611    8.0624   -7.8668 H   0  0  0  0  0  0  0  0  0  0  0  0
  1  2  1  0  0  0  0
  1 65  1  0  0  0  0
  2  3  1  6  0  0  0
  2  4  1  0  0  0  0
  2  9  1  0  0  0  0
  4  5  1  0  0  0  0
  4 66  1  0  0  0  0
  4 67  1  0  0  0  0
  5  6  1  0  0  0  0
  5  7  1  0  0  0  0
  5  8  1  0  0  0  0
  6 68  1  0  0  0  0
  6 69  1  0  0  0  0
  6 70  1  0  0  0  0
  7 71  1  0  0  0  0
  7 72  1  0  0  0  0
  7 73  1  0  0  0  0
  8 74  1  0  0  0  0
  8 75  1  0  0  0  0
  8 76  1  0  0  0  0
  9 10  1  0  0  0  0
  9 77  1  0  0  0  0
  9 78  1  0  0  0  0
 10 11  2  0  0  0  0
 10 12  1  0  0  0  0
 12 13  1  0  0  0  0
 13 14  1  0  0  0  0
 13 79  1  0  0  0  0
 13 80  1  0  0  0  0
 14 15  1  0  0  0  0
 14 81  1  0  0  0  0
 14 82  1  0  0  0  0
 15 16  1  0  0  0  0
 15 83  1  0  0  0  0
 16 17  2  0  0  0  0
 16 18  1  0  0  0  0
 18 19  1  0  0  0  0
 18 84  1  0  0  0  0
 18 85  1  0  0  0  0
 19 20  1  0  0  0  0
 19 86  1  0  0  0  0
 19 87  1  0  0  0  0
 20 21  1  0  0  0  0
 20 88  1  0  0  0  0
 21 22  2  0  0  0  0
 21 23  1  0  0  0  0
 23 24  1  6  0  0  0
 23 25  1  0  0  0  0
 23 64  1  0  0  0  0
 25 26  1  0  0  0  0
 25 62  1  0  0  0  0
 25 63  1  0  0  0  0
 26 27  1  0  0  0  0
 26 89  1  0  0  0  0
 26 90  1  0  0  0  0
 28 30  1  1  0  0  0
 28 61  1  0  0  0  0
 28 29  2  0  0  0  0
 28 27  1  0  0  0  0
 31 30  1  1  0  0  0
 31 32  2  0  0  0  0
 31 33  1  0  0  0  0
 31 60  1  0  0  0  0
 33 34  1  0  0  0  0
 34 35  1  0  0  0  0
 34 91  1  0  0  0  0
 34 92  1  0  0  0  0
 35 36  1  6  0  0  0
 35 37  1  0  0  0  0
 35 42  1  0  0  0  0
 37 38  1  0  0  0  0
 38 40  1  0  0  0  0
 38 50  1  0  0  0  0
 38 39  1  6  0  0  0
 40 41  1  1  0  0  0
 40 42  1  0  0  0  0
 40 49  1  0  0  0  0
 42 43  1  1  0  0  0
 42 44  1  0  0  0  0
 44 45  1  0  0  0  0
 45 46  2  0  0  0  0
 45 47  1  0  0  0  0
 45 48  1  0  0  0  0
 47 93  1  0  0  0  0
 48 94  1  0  0  0  0
 49 95  1  0  0  0  0
 50 51  1  0  0  0  0
 50 54  1  0  0  0  0
 51 52  2  0  0  0  0
 51 96  1  0  0  0  0
 52 53  1  0  0  0  0
 53 54  2  0  0  0  0
 53 58  1  0  0  0  0
 54 55  1  0  0  0  0
 55 56  2  0  0  0  0
 56 57  1  0  0  0  0
 56 97  1  0  0  0  0
 57 58  2  0  0  0  0
 58 59  1  0  0  0  0
 59 98  1  0  0  0  0
 59 99  1  0  0  0  0
 60100  1  0  0  0  0
 62101  1  0  0  0  0
 62102  1  0  0  0  0
 62103  1  0  0  0  0
 63104  1  0  0  0  0
 63105  1  0  0  0  0
 63106  1  0  0  0  0
 64107  1  0  0  0  0
M  CHG  2   5   1  61  -1
M  END
$$$$
