CCR
 OpenBabel04121316093D

 81 83  0  0  1  0  0  0  0  0999 V2000
    2.7510    7.0711    3.5712 C   0  0  0  0  0  0  0  0  0  0  0  0
    2.5688    5.6719    3.3363 O   0  0  0  0  0  0  0  0  0  0  0  0
    3.7482    5.0414    3.5772 C   0  0  0  0  0  0  0  0  0  0  0  0
    4.6537    4.6797    2.6446 C   0  0  0  0  0  0  0  0  0  0  0  0
    5.8119    3.9186    2.9835 C   0  0  0  0  0  0  0  0  0  0  0  0
    6.8015    3.6282    1.9465 C   0  0  0  0  0  0  0  0  0  0  0  0
    6.1380    3.5572    4.2682 C   0  0  0  0  0  0  0  0  0  0  0  0
    5.3464    4.1638    5.1957 C   0  0  0  0  0  0  0  0  0  0  0  0
    4.0714    4.7194    4.8387 C   0  0  0  0  0  0  0  0  0  0  0  0
    2.9024    4.8751    5.6967 C   0  0  0  0  0  0  0  0  0  0  0  0
    5.7512    3.7975    6.5198 C   0  0  0  0  0  0  0  0  0  0  0  0
    7.5435    2.4119    4.7081 S   0  0  0  0  0  0  0  0  0  0  0  0
    7.4135    1.2287    3.8870 O   0  0  0  0  0  0  0  0  0  0  0  0
    8.7198    3.2560    4.6578 O   0  0  0  0  0  0  0  0  0  0  0  0
    7.4475    1.8270    6.3192 N   0  0  0  0  0  0  0  0  0  0  0  0
    6.3795    0.9233    6.9008 C   0  0  2  0  0  0  0  0  0  0  0  0
    5.8699    0.5174    6.0204 H   0  0  0  0  0  0  0  0  0  0  0  0
    5.1165    1.3738    7.8793 C   0  0  0  0  0  0  0  0  0  0  0  0
    4.4633    0.4835    8.4888 O   0  0  0  0  0  0  0  0  0  0  0  0
    4.3510    2.4894    7.8242 N   0  0  0  0  0  0  0  0  0  0  0  0
    3.5747    3.2276    8.8493 C   0  0  1  0  0  0  0  0  0  0  0  0
    2.7665    2.5720    9.1448 H   0  0  0  0  0  0  0  0  0  0  0  0
    4.4388    3.8639    9.9076 C   0  0  0  0  0  0  0  0  0  0  0  0
    4.7558    5.0539    9.9349 O   0  0  0  0  0  0  0  0  0  0  0  0
    5.0176    2.9215   10.6984 N   0  0  0  0  0  0  0  0  0  0  0  0
    4.3575    1.6632   11.0546 C   0  0  0  0  0  0  0  0  0  0  0  0
    5.1905    0.3926   10.9234 C   0  0  0  0  0  0  0  0  0  0  0  0
    6.5941    0.6841   11.3599 C   0  0  0  0  0  0  0  0  0  0  0  0
    7.1500    1.9806   10.7467 C   0  0  0  0  0  0  0  0  0  0  0  0
    6.3613    3.1906   11.1392 C   0  0  0  0  0  0  0  0  0  0  0  0
    2.9919    4.4224    8.1918 C   0  0  0  0  0  0  0  0  0  0  0  0
    1.9804    5.2812    8.7486 C   0  0  0  0  0  0  0  0  0  0  0  0
    0.9066    4.5550    9.2182 C   0  0  0  0  0  0  0  0  0  0  0  0
   -0.1237    5.2337    9.7334 C   0  0  0  0  0  0  0  0  0  0  0  0
   -0.0053    6.6182    9.8360 C   0  0  0  0  0  0  0  0  0  0  0  0
    1.1068    7.3345    9.3400 C   0  0  0  0  0  0  0  0  0  0  0  0
    2.0680    6.6616    8.6587 C   0  0  0  0  0  0  0  0  0  0  0  0
   -1.1023    7.3401   10.4746 C   0  0  0  0  0  0  0  0  0  0  0  0
   -2.1710    6.7574   10.9128 N   0  0  0  0  0  0  0  0  0  0  0  0
   -1.0161    8.6772   10.6100 N   0  0  0  0  0  0  0  0  0  0  0  0
    7.1085   -0.2812    7.5755 C   0  0  0  0  0  0  0  0  0  0  0  0
    8.1578    0.1537    8.5701 C   0  0  0  0  0  0  0  0  0  0  0  0
    8.6789    1.2618    8.5655 O   0  0  0  0  0  0  0  0  0  0  0  0
    8.5749   -0.7904    9.4383 O   0  0  0  0  0  0  0  0  0  0  0  0
    1.7792    7.5567    3.4701 H   0  0  0  0  0  0  0  0  0  0  0  0
    3.4358    7.4260    2.8042 H   0  0  0  0  0  0  0  0  0  0  0  0
    3.1473    7.3390    4.5652 H   0  0  0  0  0  0  0  0  0  0  0  0
    4.4543    5.0210    1.6464 H   0  0  0  0  0  0  0  0  0  0  0  0
    6.4624    4.1016    1.0337 H   0  0  0  0  0  0  0  0  0  0  0  0
    6.8663    2.5483    1.8436 H   0  0  0  0  0  0  0  0  0  0  0  0
    7.7402    4.0783    2.2813 H   0  0  0  0  0  0  0  0  0  0  0  0
    3.2326    4.0288    6.2317 H   0  0  0  0  0  0  0  0  0  0  0  0
    1.8863    4.5273    5.4521 H   0  0  0  0  0  0  0  0  0  0  0  0
    2.8604    5.8609    6.1615 H   0  0  0  0  0  0  0  0  0  0  0  0
    6.7385    3.6063    6.8927 H   0  0  0  0  0  0  0  0  0  0  0  0
    5.3674    2.8046    6.2701 H   0  0  0  0  0  0  0  0  0  0  0  0
    5.3980    4.4045    7.3188 H   0  0  0  0  0  0  0  0  0  0  0  0
    8.0946    2.2876    6.9881 H   0  0  0  0  0  0  0  0  0  0  0  0
    3.8009    2.4579    6.9679 H   0  0  0  0  0  0  0  0  0  0  0  0
    3.3857    1.5569   10.5706 H   0  0  0  0  0  0  0  0  0  0  0  0
    4.1282    1.7965   12.1097 H   0  0  0  0  0  0  0  0  0  0  0  0
    5.3815   -0.1095    9.9808 H   0  0  0  0  0  0  0  0  0  0  0  0
    4.6588   -0.4231   11.4203 H   0  0  0  0  0  0  0  0  0  0  0  0
    7.1810   -0.1782   11.0582 H   0  0  0  0  0  0  0  0  0  0  0  0
    6.6017    0.7306   12.4413 H   0  0  0  0  0  0  0  0  0  0  0  0
    7.0283    1.9994    9.6597 H   0  0  0  0  0  0  0  0  0  0  0  0
    8.2081    2.0950   10.9809 H   0  0  0  0  0  0  0  0  0  0  0  0
    6.7820    4.0615   10.6050 H   0  0  0  0  0  0  0  0  0  0  0  0
    6.3642    3.3870   12.2056 H   0  0  0  0  0  0  0  0  0  0  0  0
    2.3080    3.9083    7.5166 H   0  0  0  0  0  0  0  0  0  0  0  0
    3.7674    5.0871    7.7927 H   0  0  0  0  0  0  0  0  0  0  0  0
    0.8812    3.4728    9.1428 H   0  0  0  0  0  0  0  0  0  0  0  0
   -0.9381    4.6172   10.0713 H   0  0  0  0  0  0  0  0  0  0  0  0
    1.2786    8.3906    9.4946 H   0  0  0  0  0  0  0  0  0  0  0  0
    2.8777    7.1825    8.1429 H   0  0  0  0  0  0  0  0  0  0  0  0
   -2.1536    5.7483   10.7631 H   0  0  0  0  0  0  0  0  0  0  0  0
   -0.2573    9.2304   10.2482 H   0  0  0  0  0  0  0  0  0  0  0  0
   -1.8139    9.1400   11.0077 H   0  0  0  0  0  0  0  0  0  0  0  0
    7.6852   -0.8439    6.8363 H   0  0  0  0  0  0  0  0  0  0  0  0
    6.3691   -0.9586    8.0170 H   0  0  0  0  0  0  0  0  0  0  0  0
    8.1636   -1.6713    9.3842 H   0  0  0  0  0  0  0  0  0  0  0  0
  1  2  1  0  0  0  0
  1 45  1  0  0  0  0
  1 46  1  0  0  0  0
  1 47  1  0  0  0  0
  2  3  1  0  0  0  0
  3  4  2  0  0  0  0
  3  9  1  0  0  0  0
  4  5  1  0  0  0  0
  4 48  1  0  0  0  0
  5  6  1  0  0  0  0
  5  7  2  0  0  0  0
  6 49  1  0  0  0  0
  6 50  1  0  0  0  0
  6 51  1  0  0  0  0
  7  8  1  0  0  0  0
  7 12  1  0  0  0  0
  8  9  2  0  0  0  0
  8 11  1  0  0  0  0
  9 10  1  0  0  0  0
 10 52  1  0  0  0  0
 10 53  1  0  0  0  0
 10 54  1  0  0  0  0
 11 55  1  0  0  0  0
 11 56  1  0  0  0  0
 11 57  1  0  0  0  0
 12 13  2  0  0  0  0
 12 14  2  0  0  0  0
 12 15  1  0  0  0  0
 15 58  1  0  0  0  0
 16 18  1  0  0  0  0
 16 41  1  0  0  0  0
 16 17  1  6  0  0  0
 16 15  1  0  0  0  0
 18 19  2  0  0  0  0
 18 20  1  0  0  0  0
 20 21  1  0  0  0  0
 20 59  1  0  0  0  0
 21 22  1  1  0  0  0
 21 23  1  0  0  0  0
 21 31  1  0  0  0  0
 23 24  2  0  0  0  0
 23 25  1  0  0  0  0
 25 26  1  0  0  0  0
 25 30  1  0  0  0  0
 26 27  1  0  0  0  0
 26 60  1  0  0  0  0
 26 61  1  0  0  0  0
 27 28  1  0  0  0  0
 27 62  1  0  0  0  0
 27 63  1  0  0  0  0
 28 29  1  0  0  0  0
 28 64  1  0  0  0  0
 28 65  1  0  0  0  0
 29 30  1  0  0  0  0
 29 66  1  0  0  0  0
 29 67  1  0  0  0  0
 30 68  1  0  0  0  0
 30 69  1  0  0  0  0
 31 32  1  0  0  0  0
 31 70  1  0  0  0  0
 31 71  1  0  0  0  0
 32 33  2  0  0  0  0
 32 37  1  0  0  0  0
 33 34  1  0  0  0  0
 33 72  1  0  0  0  0
 34 35  2  0  0  0  0
 34 73  1  0  0  0  0
 35 36  1  0  0  0  0
 35 38  1  0  0  0  0
 36 37  2  0  0  0  0
 36 74  1  0  0  0  0
 37 75  1  0  0  0  0
 38 39  2  0  0  0  0
 38 40  1  0  0  0  0
 39 76  1  0  0  0  0
 40 77  1  0  0  0  0
 40 78  1  0  0  0  0
 41 42  1  0  0  0  0
 41 79  1  0  0  0  0
 41 80  1  0  0  0  0
 42 43  2  0  0  0  0
 42 44  1  0  0  0  0
 44 81  1  0  0  0  0
M  END
$$$$
