CCT
 OpenBabel04121316093D

 41 43  0  0  0  0  0  0  0  0999 V2000
    0.8436   -0.0722    0.0761 N   0  0  0  0  0  0  0  0  0  0  0  0
    1.9931   -0.0406    0.1001 C   0  0  0  0  0  0  0  0  0  0  0  0
    3.4210   -0.0193    0.0935 C   0  0  0  0  0  0  0  0  0  0  0  0
    4.0991    1.2025    0.1143 C   0  0  0  0  0  0  0  0  0  0  0  0
    5.4614    1.2264   -0.1059 C   0  0  0  0  0  0  0  0  0  0  0  0
    6.1541    0.0206   -0.1799 C   0  0  0  0  0  0  0  0  0  0  0  0
    5.4835   -1.1967   -0.0025 C   0  0  0  0  0  0  0  0  0  0  0  0
    4.1109   -1.2249    0.0352 C   0  0  0  0  0  0  0  0  0  0  0  0
    7.5578    0.0325   -0.4970 C   0  0  0  0  0  0  0  0  0  0  0  0
    8.3829    1.1063   -0.7056 C   0  0  0  0  0  0  0  0  0  0  0  0
    9.6877    0.6844   -0.9915 C   0  0  0  0  0  0  0  0  0  0  0  0
    9.8164   -0.6964   -1.0334 C   0  0  0  0  0  0  0  0  0  0  0  0
    8.3490   -1.4492   -0.7352 S   0  0  0  0  0  0  0  0  0  0  0  0
   10.9721   -1.5224   -1.2867 C   0  0  0  0  0  0  0  0  0  0  0  0
   12.0891   -1.0918   -1.5311 O   0  0  0  0  0  0  0  0  0  0  0  0
   10.7148   -2.8605   -1.2282 O   0  0  0  0  0  0  0  0  0  0  0  0
   10.7259    1.5688   -1.2001 N   0  0  0  0  0  0  0  0  0  0  0  0
   10.6694    3.2395   -1.1990 S   0  0  0  0  0  0  0  0  0  0  0  0
    9.8263    3.6384   -2.3086 O   0  0  0  0  0  0  0  0  0  0  0  0
   10.3548    3.6522    0.1539 O   0  0  0  0  0  0  0  0  0  0  0  0
   12.3095    3.8723   -1.5620 C   0  0  0  0  0  0  0  0  0  0  0  0
   12.4550    5.2714   -1.5238 C   0  0  0  0  0  0  0  0  0  0  0  0
   13.6243    5.8676   -2.0067 C   0  0  0  0  0  0  0  0  0  0  0  0
   14.7079    5.0791   -2.3739 C   0  0  0  0  0  0  0  0  0  0  0  0
   14.6265    3.7019   -2.2492 C   0  0  0  0  0  0  0  0  0  0  0  0
   13.4117    3.0842   -1.9346 C   0  0  0  0  0  0  0  0  0  0  0  0
   13.3979    1.6050   -2.0624 C   0  0  0  0  0  0  0  0  0  0  0  0
    3.5806    2.1434    0.2641 H   0  0  0  0  0  0  0  0  0  0  0  0
    5.9649    2.1832   -0.2297 H   0  0  0  0  0  0  0  0  0  0  0  0
    6.0111   -2.1452    0.0569 H   0  0  0  0  0  0  0  0  0  0  0  0
    3.6110   -2.1883    0.0132 H   0  0  0  0  0  0  0  0  0  0  0  0
    8.0841    2.1480   -0.6475 H   0  0  0  0  0  0  0  0  0  0  0  0
    9.7763   -3.0605   -1.0251 H   0  0  0  0  0  0  0  0  0  0  0  0
   11.5624    1.0633   -1.3995 H   0  0  0  0  0  0  0  0  0  0  0  0
   11.6552    5.9081   -1.1472 H   0  0  0  0  0  0  0  0  0  0  0  0
   13.6992    6.9480   -2.0969 H   0  0  0  0  0  0  0  0  0  0  0  0
   15.6209    5.5269   -2.7545 H   0  0  0  0  0  0  0  0  0  0  0  0
   15.5072    3.0907   -2.4353 H   0  0  0  0  0  0  0  0  0  0  0  0
   14.3260    1.1600   -2.4125 H   0  0  0  0  0  0  0  0  0  0  0  0
   12.6418    1.3382   -2.8146 H   0  0  0  0  0  0  0  0  0  0  0  0
   13.2375    1.1917   -1.0607 H   0  0  0  0  0  0  0  0  0  0  0  0
  1  2  3  0  0  0  0
  2  3  1  0  0  0  0
  3  4  2  0  0  0  0
  3  8  1  0  0  0  0
  4  5  1  0  0  0  0
  4 28  1  0  0  0  0
  5  6  2  0  0  0  0
  5 29  1  0  0  0  0
  6  7  1  0  0  0  0
  6  9  1  0  0  0  0
  7  8  2  0  0  0  0
  7 30  1  0  0  0  0
  8 31  1  0  0  0  0
  9 10  2  0  0  0  0
  9 13  1  0  0  0  0
 10 11  1  0  0  0  0
 10 32  1  0  0  0  0
 11 12  2  0  0  0  0
 11 17  1  0  0  0  0
 12 13  1  0  0  0  0
 12 14  1  0  0  0  0
 14 15  2  0  0  0  0
 14 16  1  0  0  0  0
 16 33  1  0  0  0  0
 17 18  1  0  0  0  0
 17 34  1  0  0  0  0
 18 19  2  0  0  0  0
 18 20  2  0  0  0  0
 18 21  1  0  0  0  0
 21 22  2  0  0  0  0
 21 26  1  0  0  0  0
 22 23  1  0  0  0  0
 22 35  1  0  0  0  0
 23 24  2  0  0  0  0
 23 36  1  0  0  0  0
 24 25  1  0  0  0  0
 24 37  1  0  0  0  0
 25 26  2  0  0  0  0
 25 38  1  0  0  0  0
 26 27  1  0  0  0  0
 27 39  1  0  0  0  0
 27 40  1  0  0  0  0
 27 41  1  0  0  0  0
M  END
$$$$
