CCU
 OpenBabel04121316093D

 16 15  0  0  0  0  0  0  0  0999 V2000
    0.8362    0.2755    0.1707 O   0  0  0  0  0  0  0  0  0  0  0  0
    2.1245    0.0858   -0.1327 C   0  0  0  0  0  0  0  0  0  0  0  0
    2.5059    0.0182   -1.2889 O   0  0  0  0  0  0  0  0  0  0  0  0
    2.9171    0.1325    1.0928 C   0  0  0  0  0  0  0  0  0  0  0  0
    4.2530    0.1497    1.1257 C   0  0  0  0  0  0  0  0  0  0  0  0
    5.1625    0.0601    0.0047 C   0  0  0  0  0  0  0  0  0  0  0  0
    6.5031    0.0719    0.0565 C   0  0  0  0  0  0  0  0  0  0  0  0
    7.2750    0.1889    1.3127 C   0  0  0  0  0  0  0  0  0  0  0  0
    6.8047    0.2941    2.4313 O   0  0  0  0  0  0  0  0  0  0  0  0
    8.6033    0.1695    1.1058 O   0  0  0  0  0  0  0  0  0  0  0  0
    0.4483    0.4951   -0.7002 H   0  0  0  0  0  0  0  0  0  0  0  0
    2.3686    0.2222    2.0263 H   0  0  0  0  0  0  0  0  0  0  0  0
    4.6720    0.2536    2.1224 H   0  0  0  0  0  0  0  0  0  0  0  0
    4.7275   -0.0344   -0.9890 H   0  0  0  0  0  0  0  0  0  0  0  0
    7.0404   -0.0132   -0.8825 H   0  0  0  0  0  0  0  0  0  0  0  0
    8.8897    0.0819    0.1821 H   0  0  0  0  0  0  0  0  0  0  0  0
  1  2  1  0  0  0  0
  1 11  1  0  0  0  0
  2  3  2  0  0  0  0
  2  4  1  0  0  0  0
  4  5  2  0  0  0  0
  4 12  1  0  0  0  0
  5  6  1  0  0  0  0
  5 13  1  0  0  0  0
  6  7  2  0  0  0  0
  6 14  1  0  0  0  0
  7  8  1  0  0  0  0
  7 15  1  0  0  0  0
  8  9  2  0  0  0  0
  8 10  1  0  0  0  0
 10 16  1  0  0  0  0
M  END
$$$$
