CCV
 OpenBabel04121316093D

 29 29  0  0  0  0  0  0  0  0999 V2000
    1.0251    0.0332   -0.4004 O   0  0  0  0  0  0  0  0  0  0  0  0
    2.4232    0.0266   -0.1622 C   0  0  0  0  0  0  0  0  0  0  0  0
    2.8878    1.3579    0.4484 C   0  0  0  0  0  0  0  0  0  0  0  0
    2.3716    1.5730    1.8947 C   0  0  0  0  0  0  0  0  0  0  0  0
    0.8670    1.6747    1.9856 C   0  0  0  0  0  0  0  0  0  0  0  0
    0.1739    0.4908    2.0659 N   0  0  0  0  0  0  0  0  0  0  0  0
    0.6709   -0.3865    1.9847 H   0  0  0  0  0  0  0  0  0  0  0  0
   -1.1793    0.3881    1.9543 C   0  0  0  0  0  0  0  0  0  0  0  0
   -1.7390   -0.7052    1.8743 O   0  0  0  0  0  0  0  0  0  0  0  0
   -1.8588    1.5651    1.9200 N   0  0  0  0  0  0  0  0  0  0  0  0
   -2.8619    1.5189    1.8535 H   0  0  0  0  0  0  0  0  0  0  0  0
   -1.2815    2.8029    1.9144 C   0  0  0  0  0  0  0  0  0  0  0  0
   -1.9590    3.8267    1.8739 O   0  0  0  0  0  0  0  0  0  0  0  0
    0.2051    2.8434    1.9386 C   0  0  0  0  0  0  0  0  0  0  0  0
    0.8857    4.1729    1.8662 C   0  0  0  0  0  0  0  0  0  0  0  0
    4.4196    1.4023    0.4408 C   0  0  0  0  0  0  0  0  0  0  0  0
    4.9013    2.6480    0.9280 O   0  0  0  0  0  0  0  0  0  0  0  0
    0.7141   -0.8848   -0.4901 H   0  0  0  0  0  0  0  0  0  0  0  0
    2.8959   -0.1429   -1.1321 H   0  0  0  0  0  0  0  0  0  0  0  0
    2.6752   -0.8036    0.5068 H   0  0  0  0  0  0  0  0  0  0  0  0
    2.5087    2.1859   -0.1674 H   0  0  0  0  0  0  0  0  0  0  0  0
    2.8193    2.4897    2.2982 H   0  0  0  0  0  0  0  0  0  0  0  0
    2.7352    0.7743    2.5530 H   0  0  0  0  0  0  0  0  0  0  0  0
    0.1850    5.0097    1.8468 H   0  0  0  0  0  0  0  0  0  0  0  0
    1.5088    4.2415    0.9675 H   0  0  0  0  0  0  0  0  0  0  0  0
    1.5251    4.3080    2.7455 H   0  0  0  0  0  0  0  0  0  0  0  0
    4.8143    1.2571   -0.5699 H   0  0  0  0  0  0  0  0  0  0  0  0
    4.8295    0.6135    1.0803 H   0  0  0  0  0  0  0  0  0  0  0  0
    4.5659    3.3497    0.3431 H   0  0  0  0  0  0  0  0  0  0  0  0
  1  2  1  0  0  0  0
  1 18  1  0  0  0  0
  2  3  1  0  0  0  0
  2 19  1  0  0  0  0
  2 20  1  0  0  0  0
  3  4  1  0  0  0  0
  3 16  1  0  0  0  0
  3 21  1  0  0  0  0
  4  5  1  0  0  0  0
  4 22  1  0  0  0  0
  4 23  1  0  0  0  0
  5  6  1  0  0  0  0
  5 14  2  0  0  0  0
  6  7  1  0  0  0  0
  6  8  1  0  0  0  0
  8  9  2  0  0  0  0
  8 10  1  0  0  0  0
 10 11  1  0  0  0  0
 10 12  1  0  0  0  0
 12 13  2  0  0  0  0
 12 14  1  0  0  0  0
 14 15  1  0  0  0  0
 15 24  1  0  0  0  0
 15 25  1  0  0  0  0
 15 26  1  0  0  0  0
 16 17  1  0  0  0  0
 16 27  1  0  0  0  0
 16 28  1  0  0  0  0
 17 29  1  0  0  0  0
M  END
$$$$
