CDM
 OpenBabel04121316093D

 58 59  0  0  1  0  0  0  0  0999 V2000
    1.0567   -0.0051    0.0510 O   0  0  0  0  0  0  0  0  0  0  0  0
    2.4839   -0.0369    0.0247 C   0  0  0  0  0  0  0  0  0  0  0  0
    3.0094    0.4853    1.3672 C   0  0  1  0  0  0  0  0  0  0  0  0
    2.4947    1.9233    1.6148 C   0  0  1  0  0  0  0  0  0  0  0  0
    1.3968    1.9459    1.6226 H   0  0  0  0  0  0  0  0  0  0  0  0
    2.9553    2.4435    2.9613 C   0  0  0  0  0  0  0  0  0  0  0  0
    2.5178    1.5878    4.0275 O   0  0  0  0  0  0  0  0  0  0  0  0
    3.0945    2.1584    5.5554 P   0  0  1  0  0  0  0  0  0  0  0  0
    2.7646    3.6189    5.2612 O   0  0  0  0  0  0  0  0  0  0  0  0
    1.7797    1.3620    6.3491 O   0  0  0  0  0  0  0  0  0  0  0  0
    0.7977    0.5585    5.1730 P   0  0  1  0  0  0  0  0  0  0  0  0
    0.6335   -0.6644    6.0788 O   0  0  0  0  0  0  0  0  0  0  0  0
   -0.4569    1.6297    5.5083 O   0  0  0  0  0  0  0  0  0  0  0  0
   -0.1571    2.7661    6.3537 C   0  0  0  0  0  0  0  0  0  0  0  0
   -1.2282    3.8390    6.4623 C   0  0  1  0  0  0  0  0  0  0  0  0
   -2.0113    3.6439    5.7267 H   0  0  0  0  0  0  0  0  0  0  0  0
   -1.8045    3.8162    7.7896 O   0  0  0  0  0  0  0  0  0  0  0  0
   -2.4341    5.0990    7.9708 C   0  0  2  0  0  0  0  0  0  0  0  0
   -3.4153    5.0552    7.4848 H   0  0  0  0  0  0  0  0  0  0  0  0
   -1.5026    6.1094    7.2525 C   0  0  1  0  0  0  0  0  0  0  0  0
   -0.8354    6.5967    7.9756 H   0  0  0  0  0  0  0  0  0  0  0  0
   -0.6619    5.2600    6.2984 C   0  0  2  0  0  0  0  0  0  0  0  0
    0.3915    5.3357    6.6014 H   0  0  0  0  0  0  0  0  0  0  0  0
   -0.7274    5.6843    4.9372 O   0  0  0  0  0  0  0  0  0  0  0  0
   -2.2004    7.1428    6.5548 O   0  0  0  0  0  0  0  0  0  0  0  0
   -2.6528    5.4116    9.3959 N   0  0  0  0  0  0  0  0  0  0  0  0
   -2.2366    4.5516   10.3907 C   0  0  0  0  0  0  0  0  0  0  0  0
   -2.1182    4.9738   11.6477 C   0  0  0  0  0  0  0  0  0  0  0  0
   -2.7558    6.2654   11.9619 C   0  0  0  0  0  0  0  0  0  0  0  0
   -3.2539    7.0401   11.0460 N   0  0  0  0  0  0  0  0  0  0  0  0
   -3.1336    6.6839    9.7262 C   0  0  0  0  0  0  0  0  0  0  0  0
   -3.4197    7.4975    8.8319 O   0  0  0  0  0  0  0  0  0  0  0  0
   -2.8542    6.6523   13.2677 N   0  0  0  0  0  0  0  0  0  0  0  0
   -0.1842   -0.2450    3.9970 O   0  0  0  0  0  0  0  0  0  0  0  0
    3.6711    2.7291    7.0834 O   0  0  0  0  0  0  0  0  0  0  0  0
    2.9676    2.8320    0.6157 O   0  0  0  0  0  0  0  0  0  0  0  0
    2.5137   -0.4040    2.3870 O   0  0  0  0  0  0  0  0  0  0  0  0
    4.5400    0.4477    1.3818 C   0  0  0  0  0  0  0  0  0  0  0  0
    0.7428   -0.3363   -0.8086 H   0  0  0  0  0  0  0  0  0  0  0  0
    2.8329    0.5767   -0.8102 H   0  0  0  0  0  0  0  0  0  0  0  0
    2.7942   -1.0733   -0.1319 H   0  0  0  0  0  0  0  0  0  0  0  0
    2.5439    3.4529    3.0712 H   0  0  0  0  0  0  0  0  0  0  0  0
    4.0448    2.5526    3.0104 H   0  0  0  0  0  0  0  0  0  0  0  0
    0.7110    3.2616    5.9363 H   0  0  0  0  0  0  0  0  0  0  0  0
    0.0702    2.3803    7.3547 H   0  0  0  0  0  0  0  0  0  0  0  0
   -0.7198    6.6613    4.9558 H   0  0  0  0  0  0  0  0  0  0  0  0
   -2.7940    7.5599    7.2220 H   0  0  0  0  0  0  0  0  0  0  0  0
   -1.9447    3.5451   10.1076 H   0  0  0  0  0  0  0  0  0  0  0  0
   -1.6433    4.4028   12.4314 H   0  0  0  0  0  0  0  0  0  0  0  0
   -2.6449    6.0125   14.0226 H   0  0  0  0  0  0  0  0  0  0  0  0
   -3.4853    7.4169   13.4804 H   0  0  0  0  0  0  0  0  0  0  0  0
    0.0680   -1.1865    4.0561 H   0  0  0  0  0  0  0  0  0  0  0  0
    4.3406    3.4170    6.9144 H   0  0  0  0  0  0  0  0  0  0  0  0
    2.5318    2.6006   -0.2223 H   0  0  0  0  0  0  0  0  0  0  0  0
    1.5373   -0.3566    2.2990 H   0  0  0  0  0  0  0  0  0  0  0  0
    4.9572    1.1144    0.6193 H   0  0  0  0  0  0  0  0  0  0  0  0
    4.9107   -0.5653    1.2088 H   0  0  0  0  0  0  0  0  0  0  0  0
    4.9462    0.7477    2.3541 H   0  0  0  0  0  0  0  0  0  0  0  0
  1  2  1  0  0  0  0
  1 39  1  0  0  0  0
  2 40  1  0  0  0  0
  2 41  1  0  0  0  0
  3  2  1  6  0  0  0
  3  4  1  0  0  0  0
  3 37  1  0  0  0  0
  3 38  1  0  0  0  0
  4  5  1  6  0  0  0
  4  6  1  0  0  0  0
  4 36  1  0  0  0  0
  6  7  1  0  0  0  0
  6 42  1  0  0  0  0
  6 43  1  0  0  0  0
  8  7  1  6  0  0  0
  8  9  2  0  0  0  0
  8 10  1  0  0  0  0
  8 35  1  0  0  0  0
 11 10  1  6  0  0  0
 11 12  2  0  0  0  0
 11 13  1  0  0  0  0
 11 34  1  0  0  0  0
 13 14  1  0  0  0  0
 14 15  1  0  0  0  0
 14 44  1  0  0  0  0
 14 45  1  0  0  0  0
 15 16  1  6  0  0  0
 15 17  1  0  0  0  0
 15 22  1  0  0  0  0
 17 18  1  0  0  0  0
 18 20  1  0  0  0  0
 18 26  1  0  0  0  0
 18 19  1  6  0  0  0
 20 21  1  1  0  0  0
 20 22  1  0  0  0  0
 20 25  1  0  0  0  0
 22 23  1  1  0  0  0
 22 24  1  0  0  0  0
 24 46  1  0  0  0  0
 25 47  1  0  0  0  0
 26 27  1  0  0  0  0
 26 31  1  0  0  0  0
 27 28  2  0  0  0  0
 27 48  1  0  0  0  0
 28 29  1  0  0  0  0
 28 49  1  0  0  0  0
 29 30  2  0  0  0  0
 29 33  1  0  0  0  0
 30 31  1  0  0  0  0
 31 32  2  0  0  0  0
 33 50  1  0  0  0  0
 33 51  1  0  0  0  0
 34 52  1  0  0  0  0
 35 53  1  0  0  0  0
 36 54  1  0  0  0  0
 37 55  1  0  0  0  0
 38 56  1  0  0  0  0
 38 57  1  0  0  0  0
 38 58  1  0  0  0  0
M  END
$$$$
