CDP
 OpenBabel04121316093D

 40 41  0  0  1  0  0  0  0  0999 V2000
   -0.2825    7.7673    1.9864 O   0  0  0  0  0  0  0  0  0  0  0  0
    0.4159    6.6907    2.6088 C   0  0  2  0  0  0  0  0  0  0  0  0
    0.7200    5.9939    1.8224 H   0  0  0  0  0  0  0  0  0  0  0  0
   -0.4661    6.0237    3.6435 C   0  0  1  0  0  0  0  0  0  0  0  0
   -1.5280    6.0956    3.3912 H   0  0  0  0  0  0  0  0  0  0  0  0
   -0.1119    4.5696    3.9170 C   0  0  0  0  0  0  0  0  0  0  0  0
   -0.5329    3.6513    2.8762 O   0  0  0  0  0  0  0  0  0  0  0  0
   -0.0772    2.0925    3.1974 P   0  0  2  0  0  0  0  0  0  0  0  0
    0.7838    1.8981    1.9302 O   0  0  0  0  0  0  0  0  0  0  0  0
   -1.2483    0.9834    2.5719 O   0  0  0  0  0  0  0  0  0  0  0  0
   -0.7292    0.4084    1.0250 P   0  0  0  0  0  0  0  0  0  0  0  0
   -2.1212   -0.1505    0.7101 O   0  0  0  0  0  0  0  0  0  0  0  0
   -0.7996    1.9132    0.3466 O   0  0  0  0  0  0  0  0  0  0  0  0
   -0.2102   -0.1667   -0.5219 O   0  0  0  0  0  0  0  0  0  0  0  0
   -1.0417    2.3103    4.6170 O   0  0  0  0  0  0  0  0  0  0  0  0
   -0.2374    6.7801    4.8487 O   0  0  0  0  0  0  0  0  0  0  0  0
    1.1421    7.1821    4.9000 C   0  0  2  0  0  0  0  0  0  0  0  0
    1.1803    8.1960    5.3223 H   0  0  0  0  0  0  0  0  0  0  0  0
    1.6182    7.1721    3.4237 C   0  0  2  0  0  0  0  0  0  0  0  0
    2.4087    6.4471    3.2388 H   0  0  0  0  0  0  0  0  0  0  0  0
    2.1188    8.4391    2.9972 O   0  0  0  0  0  0  0  0  0  0  0  0
    1.8943    6.3118    5.8351 N   0  0  0  0  0  0  0  0  0  0  0  0
    3.2266    6.0193    5.6046 C   0  0  0  0  0  0  0  0  0  0  0  0
    4.0325    5.5896    6.5704 C   0  0  0  0  0  0  0  0  0  0  0  0
    3.3596    5.1544    7.7983 C   0  0  0  0  0  0  0  0  0  0  0  0
    2.1175    5.4048    8.0401 N   0  0  0  0  0  0  0  0  0  0  0  0
    1.3754    6.1613    7.1468 C   0  0  0  0  0  0  0  0  0  0  0  0
    0.3223    6.6559    7.4934 O   0  0  0  0  0  0  0  0  0  0  0  0
    4.0769    4.4215    8.6925 N   0  0  0  0  0  0  0  0  0  0  0  0
   -0.4534    8.4426    2.6661 H   0  0  0  0  0  0  0  0  0  0  0  0
   -0.6139    4.3401    4.8653 H   0  0  0  0  0  0  0  0  0  0  0  0
    0.9586    4.4319    4.1214 H   0  0  0  0  0  0  0  0  0  0  0  0
    0.0503    2.3485    0.6102 H   0  0  0  0  0  0  0  0  0  0  0  0
   -1.0188   -0.5806   -0.8889 H   0  0  0  0  0  0  0  0  0  0  0  0
   -1.2240    1.4547    5.0483 H   0  0  0  0  0  0  0  0  0  0  0  0
    2.8785    8.6804    3.5550 H   0  0  0  0  0  0  0  0  0  0  0  0
    3.6653    6.1854    4.6321 H   0  0  0  0  0  0  0  0  0  0  0  0
    5.0979    5.4702    6.4505 H   0  0  0  0  0  0  0  0  0  0  0  0
    5.0277    4.1275    8.5186 H   0  0  0  0  0  0  0  0  0  0  0  0
    3.5849    4.0110    9.4761 H   0  0  0  0  0  0  0  0  0  0  0  0
  1 30  1  0  0  0  0
  2  4  1  0  0  0  0
  2 19  1  0  0  0  0
  2  3  1  6  0  0  0
  2  1  1  0  0  0  0
  4  5  1  6  0  0  0
  4  6  1  0  0  0  0
  4 16  1  0  0  0  0
  6  7  1  0  0  0  0
  6 31  1  0  0  0  0
  6 32  1  0  0  0  0
  8 10  1  6  0  0  0
  8 15  1  0  0  0  0
  8  9  2  0  0  0  0
  8  7  1  0  0  0  0
 10 11  1  0  0  0  0
 11 12  2  0  0  0  0
 11 13  1  0  0  0  0
 11 14  1  0  0  0  0
 13 33  1  0  0  0  0
 14 34  1  0  0  0  0
 15 35  1  0  0  0  0
 16 17  1  0  0  0  0
 17 19  1  0  0  0  0
 17 22  1  0  0  0  0
 17 18  1  1  0  0  0
 19 20  1  6  0  0  0
 19 21  1  0  0  0  0
 21 36  1  0  0  0  0
 22 23  1  0  0  0  0
 22 27  1  0  0  0  0
 23 24  2  0  0  0  0
 23 37  1  0  0  0  0
 24 25  1  0  0  0  0
 24 38  1  0  0  0  0
 25 26  2  0  0  0  0
 25 29  1  0  0  0  0
 26 27  1  0  0  0  0
 27 28  2  0  0  0  0
 29 39  1  0  0  0  0
 29 40  1  0  0  0  0
M  END
$$$$
