CDQ
 OpenBabel04121316093D

 39 42  0  0  0  0  0  0  0  0999 V2000
    0.9799   -0.2961    0.0201 Cl  0  0  0  0  0  0  0  0  0  0  0  0
    2.6952   -0.2064    0.0133 C   0  0  0  0  0  0  0  0  0  0  0  0
    3.5176   -1.3470    0.0093 C   0  0  0  0  0  0  0  0  0  0  0  0
    4.9495   -1.2546   -0.0035 C   0  0  0  0  0  0  0  0  0  0  0  0
    5.5325    0.0054   -0.0066 C   0  0  0  0  0  0  0  0  0  0  0  0
    4.6505    1.0904   -0.0008 C   0  0  0  0  0  0  0  0  0  0  0  0
    3.2716    1.0355    0.0077 C   0  0  0  0  0  0  0  0  0  0  0  0
    5.3599    2.3662    0.0028 C   0  0  0  0  0  0  0  0  0  0  0  0
    6.7789    1.9528    0.1448 C   0  0  0  0  0  0  0  0  0  0  0  0
    7.5629    2.8661    0.3572 O   0  0  0  0  0  0  0  0  0  0  0  0
    6.8899    0.5278    0.0136 N   0  0  0  0  0  0  0  0  0  0  0  0
    8.1283   -0.3753    0.0127 C   0  0  0  0  0  0  0  0  0  0  0  0
    9.5853    0.1675   -0.0153 C   0  0  0  0  0  0  0  0  0  0  0  0
    9.7179    1.5322   -0.2498 C   0  0  0  0  0  0  0  0  0  0  0  0
   10.8444    2.3180   -0.1170 C   0  0  0  0  0  0  0  0  0  0  0  0
   12.0368    1.6863    0.0220 C   0  0  0  0  0  0  0  0  0  0  0  0
   12.0619    0.2790    0.0568 C   0  0  0  0  0  0  0  0  0  0  0  0
   10.8360   -0.5129    0.0873 C   0  0  0  0  0  0  0  0  0  0  0  0
   11.0271   -2.0211    0.1513 C   0  0  0  0  0  0  0  0  0  0  0  0
   12.1103   -2.5633    0.1995 O   0  0  0  0  0  0  0  0  0  0  0  0
    9.9316   -2.8119    0.1441 O   0  0  0  0  0  0  0  0  0  0  0  0
   13.2959   -0.3435    0.0532 O   0  0  0  0  0  0  0  0  0  0  0  0
   14.3730    0.5224   -0.3385 C   0  0  0  0  0  0  0  0  0  0  0  0
   14.2924    1.8252    0.4289 C   0  0  0  0  0  0  0  0  0  0  0  0
   13.1204    2.5208    0.0256 O   0  0  0  0  0  0  0  0  0  0  0  0
    3.0244   -2.3180    0.0179 H   0  0  0  0  0  0  0  0  0  0  0  0
    5.5138   -2.1810    0.0003 H   0  0  0  0  0  0  0  0  0  0  0  0
    2.7014    1.9591    0.0136 H   0  0  0  0  0  0  0  0  0  0  0  0
    5.1024    2.9642    0.8782 H   0  0  0  0  0  0  0  0  0  0  0  0
    5.2141    2.9024   -0.9377 H   0  0  0  0  0  0  0  0  0  0  0  0
    8.0250   -1.0099   -0.8785 H   0  0  0  0  0  0  0  0  0  0  0  0
    8.0298   -0.9939    0.9132 H   0  0  0  0  0  0  0  0  0  0  0  0
    8.9037    2.0594   -0.6835 H   0  0  0  0  0  0  0  0  0  0  0  0
   10.7537    3.3968   -0.2023 H   0  0  0  0  0  0  0  0  0  0  0  0
    9.0469   -2.4531    0.0674 H   0  0  0  0  0  0  0  0  0  0  0  0
   14.3165    0.6912   -1.4226 H   0  0  0  0  0  0  0  0  0  0  0  0
   15.3148    0.0142   -0.1170 H   0  0  0  0  0  0  0  0  0  0  0  0
   15.1521    2.4675    0.2136 H   0  0  0  0  0  0  0  0  0  0  0  0
   14.2387    1.6666    1.5118 H   0  0  0  0  0  0  0  0  0  0  0  0
  1  2  1  0  0  0  0
  2  3  2  0  0  0  0
  2  7  1  0  0  0  0
  3  4  1  0  0  0  0
  3 26  1  0  0  0  0
  4  5  2  0  0  0  0
  4 27  1  0  0  0  0
  5  6  1  0  0  0  0
  5 11  1  0  0  0  0
  6  7  2  0  0  0  0
  6  8  1  0  0  0  0
  7 28  1  0  0  0  0
  8  9  1  0  0  0  0
  8 29  1  0  0  0  0
  8 30  1  0  0  0  0
  9 10  2  0  0  0  0
  9 11  1  0  0  0  0
 11 12  1  0  0  0  0
 12 13  1  0  0  0  0
 12 31  1  0  0  0  0
 12 32  1  0  0  0  0
 13 14  2  0  0  0  0
 13 18  1  0  0  0  0
 14 15  1  0  0  0  0
 14 33  1  0  0  0  0
 15 16  2  0  0  0  0
 15 34  1  0  0  0  0
 16 17  1  0  0  0  0
 16 25  1  0  0  0  0
 17 18  2  0  0  0  0
 17 22  1  0  0  0  0
 18 19  1  0  0  0  0
 19 20  2  0  0  0  0
 19 21  1  0  0  0  0
 21 35  1  0  0  0  0
 22 23  1  0  0  0  0
 23 24  1  0  0  0  0
 23 36  1  0  0  0  0
 23 37  1  0  0  0  0
 24 25  1  0  0  0  0
 24 38  1  0  0  0  0
 24 39  1  0  0  0  0
M  END
$$$$
