CDR
 OpenBabel04121316093D

 21 21  0  0  1  0  0  0  0  0999 V2000
    1.0580   -0.0208    0.1923 O   0  0  0  0  0  0  0  0  0  0  0  0
    2.4546   -0.0511   -0.0538 C   0  0  1  0  0  0  0  0  0  0  0  0
    2.9334    0.2731    0.8757 H   0  0  0  0  0  0  0  0  0  0  0  0
    2.9414   -1.4649   -0.3865 C   0  0  0  0  0  0  0  0  0  0  0  0
    2.5337   -1.8887   -1.7961 C   0  0  0  0  0  0  0  0  0  0  0  0
    2.9939   -0.8409   -2.8036 C   0  0  1  0  0  0  0  0  0  0  0  0
    2.6618   -1.1015   -3.8144 H   0  0  0  0  0  0  0  0  0  0  0  0
    2.4605    0.5484   -2.4061 C   0  0  2  0  0  0  0  0  0  0  0  0
    2.9572    1.3001   -3.0321 H   0  0  0  0  0  0  0  0  0  0  0  0
    2.8093    0.8922   -1.0565 O   0  0  0  0  0  0  0  0  0  0  0  0
    0.9542    0.6686   -2.6425 C   0  0  0  0  0  0  0  0  0  0  0  0
    4.4262   -0.8172   -2.8311 O   0  0  0  0  0  0  0  0  0  0  0  0
    0.8132   -0.8456    0.6425 H   0  0  0  0  0  0  0  0  0  0  0  0
    2.5521   -2.1911    0.3350 H   0  0  0  0  0  0  0  0  0  0  0  0
    4.0360   -1.4863   -0.3219 H   0  0  0  0  0  0  0  0  0  0  0  0
    1.4460   -2.0104   -1.8486 H   0  0  0  0  0  0  0  0  0  0  0  0
    2.9770   -2.8636   -2.0267 H   0  0  0  0  0  0  0  0  0  0  0  0
    0.3763   -0.0404   -2.0444 H   0  0  0  0  0  0  0  0  0  0  0  0
    0.7044    0.4754   -3.6896 H   0  0  0  0  0  0  0  0  0  0  0  0
    0.6028    1.6674   -2.3672 H   0  0  0  0  0  0  0  0  0  0  0  0
    4.7393   -1.7218   -3.0004 H   0  0  0  0  0  0  0  0  0  0  0  0
  1  2  1  0  0  0  0
  1 13  1  0  0  0  0
  2  3  1  1  0  0  0
  2  4  1  0  0  0  0
  2 10  1  0  0  0  0
  4  5  1  0  0  0  0
  4 14  1  0  0  0  0
  4 15  1  0  0  0  0
  5  6  1  0  0  0  0
  5 16  1  0  0  0  0
  5 17  1  0  0  0  0
  6  7  1  6  0  0  0
  6  8  1  0  0  0  0
  6 12  1  0  0  0  0
  8 10  1  0  0  0  0
  8 11  1  0  0  0  0
  8  9  1  6  0  0  0
 11 18  1  0  0  0  0
 11 19  1  0  0  0  0
 11 20  1  0  0  0  0
 12 21  1  0  0  0  0
M  END
$$$$
