CDT
 OpenBabel04121316093D

 24 23  0  0  1  0  0  0  0  0999 V2000
    4.4093   -6.5532    4.9172 C   0  0  0  0  0  0  0  0  0  0  0  0
    4.2002   -4.7562    4.7233 S   0  0  0  0  0  0  0  0  0  0  0  0
    4.8619   -4.6114    3.0407 C   0  0  0  0  0  0  0  0  0  0  0  0
    4.9778   -3.1565    2.5817 C   0  0  0  0  0  0  0  0  0  0  0  0
    5.5663   -2.9934    1.1626 C   0  0  2  0  0  0  0  0  0  0  0  0
    5.2708   -1.9997    0.7914 H   0  0  0  0  0  0  0  0  0  0  0  0
    5.0294   -3.9999    0.1124 C   0  0  0  0  0  0  0  0  0  0  0  0
    5.7261   -4.6474   -0.6569 O   0  0  0  0  0  0  0  0  0  0  0  0
    3.6769   -4.0643    0.0342 O   0  0  0  0  0  0  0  0  0  0  0  0
    7.0349   -2.9460    1.1842 N   0  0  0  0  0  0  0  0  0  0  0  0
    7.7862   -4.0391    1.4753 C   0  0  0  0  0  0  0  0  0  0  0  0
    7.3652   -5.1723    1.6606 O   0  0  0  0  0  0  0  0  0  0  0  0
    9.0976   -3.7987    1.6549 N   0  0  0  0  0  0  0  0  0  0  0  0
    4.1061   -6.8265    5.9299 H   0  0  0  0  0  0  0  0  0  0  0  0
    5.4488   -6.8687    4.7742 H   0  0  0  0  0  0  0  0  0  0  0  0
    3.7705   -7.0846    4.2063 H   0  0  0  0  0  0  0  0  0  0  0  0
    4.2254   -5.1837    2.3607 H   0  0  0  0  0  0  0  0  0  0  0  0
    5.8334   -5.0828    3.0959 H   0  0  0  0  0  0  0  0  0  0  0  0
    5.5961   -2.5847    3.2886 H   0  0  0  0  0  0  0  0  0  0  0  0
    3.9821   -2.6934    2.6052 H   0  0  0  0  0  0  0  0  0  0  0  0
    3.1744   -3.4946    0.6435 H   0  0  0  0  0  0  0  0  0  0  0  0
    7.5043   -2.1217    0.8391 H   0  0  0  0  0  0  0  0  0  0  0  0
    9.5753   -3.0745    1.1462 H   0  0  0  0  0  0  0  0  0  0  0  0
    9.6109   -4.6606    1.8013 H   0  0  0  0  0  0  0  0  0  0  0  0
  1  2  1  0  0  0  0
  1 14  1  0  0  0  0
  1 15  1  0  0  0  0
  1 16  1  0  0  0  0
  2  3  1  0  0  0  0
  3  4  1  0  0  0  0
  3 17  1  0  0  0  0
  3 18  1  0  0  0  0
  4 19  1  0  0  0  0
  4 20  1  0  0  0  0
  5  7  1  0  0  0  0
  5 10  1  0  0  0  0
  5  6  1  6  0  0  0
  5  4  1  0  0  0  0
  7  8  2  0  0  0  0
  7  9  1  0  0  0  0
  9 21  1  0  0  0  0
 10 11  1  0  0  0  0
 10 22  1  0  0  0  0
 11 12  2  0  0  0  0
 11 13  1  0  0  0  0
 13 23  1  0  0  0  0
 13 24  1  0  0  0  0
M  END
$$$$
