CDV
 OpenBabel04121316093D

 23 22  0  0  1  0  0  0  0  0999 V2000
    0.9408   -0.0128   -0.1066 N   0  0  0  0  0  0  0  0  0  0  0  0
    2.2798    0.1062   -0.0690 C   0  0  0  0  0  0  0  0  0  0  0  0
    2.8321    0.9016    0.6762 O   0  0  0  0  0  0  0  0  0  0  0  0
    2.9555   -0.7854   -0.8344 N   0  0  0  0  0  0  0  0  0  0  0  0
    4.4274   -0.8217   -0.8673 C   0  0  1  0  0  0  0  0  0  0  0  0
    4.7914    0.2016   -1.0328 H   0  0  0  0  0  0  0  0  0  0  0  0
    4.9604   -1.3190    0.5090 C   0  0  0  0  0  0  0  0  0  0  0  0
    5.5876   -2.3571    0.6789 O   0  0  0  0  0  0  0  0  0  0  0  0
    4.7089   -0.4984    1.5543 O   0  0  0  0  0  0  0  0  0  0  0  0
    4.9555   -1.7364   -2.0094 C   0  0  0  0  0  0  0  0  0  0  0  0
    4.4387   -1.3098   -3.3897 C   0  0  0  0  0  0  0  0  0  0  0  0
    6.4930   -1.7458   -2.0713 C   0  0  0  0  0  0  0  0  0  0  0  0
    0.4156    0.5790    0.5246 H   0  0  0  0  0  0  0  0  0  0  0  0
    0.4360   -0.6154   -0.7347 H   0  0  0  0  0  0  0  0  0  0  0  0
    2.4349   -1.3563   -1.4830 H   0  0  0  0  0  0  0  0  0  0  0  0
    4.1036    0.2510    1.3291 H   0  0  0  0  0  0  0  0  0  0  0  0
    4.6090   -2.7623   -1.8242 H   0  0  0  0  0  0  0  0  0  0  0  0
    4.7823   -0.3012   -3.6426 H   0  0  0  0  0  0  0  0  0  0  0  0
    3.3470   -1.3225   -3.4440 H   0  0  0  0  0  0  0  0  0  0  0  0
    4.8071   -1.9939   -4.1634 H   0  0  0  0  0  0  0  0  0  0  0  0
    6.8817   -0.7443   -2.2816 H   0  0  0  0  0  0  0  0  0  0  0  0
    6.8443   -2.4258   -2.8544 H   0  0  0  0  0  0  0  0  0  0  0  0
    6.9576   -2.0851   -1.1434 H   0  0  0  0  0  0  0  0  0  0  0  0
  1  2  1  0  0  0  0
  1 13  1  0  0  0  0
  1 14  1  0  0  0  0
  2  3  2  0  0  0  0
  2  4  1  0  0  0  0
  4  5  1  0  0  0  0
  4 15  1  0  0  0  0
  5  6  1  6  0  0  0
  5  7  1  0  0  0  0
  5 10  1  0  0  0  0
  7  8  2  0  0  0  0
  7  9  1  0  0  0  0
  9 16  1  0  0  0  0
 10 11  1  0  0  0  0
 10 12  1  0  0  0  0
 10 17  1  0  0  0  0
 11 18  1  0  0  0  0
 11 19  1  0  0  0  0
 11 20  1  0  0  0  0
 12 21  1  0  0  0  0
 12 22  1  0  0  0  0
 12 23  1  0  0  0  0
M  END
$$$$
