CE6
 OpenBabel04121316093D

129134  0  0  1  0  0  0  0  0999 V2000
    0.3524  -21.8667  -10.4708 O   0  0  0  0  0  0  0  0  0  0  0  0
   -0.0913  -21.0648   -9.4310 C   0  0  0  0  0  0  0  0  0  0  0  0
    0.8341  -19.3530   -8.3771 C   0  0  1  0  0  0  0  0  0  0  0  0
    0.3057  -18.3689   -8.5709 H   0  0  0  0  0  0  0  0  0  0  0  0
    0.5503  -19.2797   -6.6482 O   0  0  0  0  0  0  0  0  0  0  0  0
    1.2627  -20.2257   -5.8646 C   0  0  1  0  0  0  0  0  0  0  0  0
    0.9135  -20.3644   -4.8436 H   0  0  0  0  0  0  0  0  0  0  0  0
    1.0887  -21.4816   -6.4346 O   0  0  0  0  0  0  0  0  0  0  0  0
    0.7358  -21.2364   -7.7366 C   0  0  2  0  0  0  0  0  0  0  0  0
    0.6846  -22.3095   -8.0348 H   0  0  0  0  0  0  0  0  0  0  0  0
    2.1316  -21.1348   -9.1531 C   0  0  1  0  0  0  0  0  0  0  0  0
    2.8330  -20.3579   -9.0650 H   0  0  0  0  0  0  0  0  0  0  0  0
    3.3618  -22.3340   -9.0718 C   0  0  0  0  0  0  0  0  0  0  0  0
    3.6399  -22.9209   -7.7242 O   0  0  0  0  0  0  0  0  0  0  0  0
    1.8602  -20.4418  -10.4276 O   0  0  0  0  0  0  0  0  0  0  0  0
    1.0162  -19.2918  -10.7658 C   0  0  2  0  0  0  0  0  0  0  0  0
    1.4508  -18.3118  -10.5489 H   0  0  0  0  0  0  0  0  0  0  0  0
   -0.6867  -19.2342  -10.0275 C   0  0  1  0  0  0  0  0  0  0  0  0
   -1.0022  -19.9463  -10.8241 H   0  0  0  0  0  0  0  0  0  0  0  0
   -0.9620  -19.9806   -8.1169 C   0  0  1  0  0  0  0  0  0  0  0  0
   -1.0798  -19.0516   -7.5099 H   0  0  0  0  0  0  0  0  0  0  0  0
   -2.2267  -20.5487   -7.8277 O   0  0  0  0  0  0  0  0  0  0  0  0
   -1.4282  -18.1564  -10.5065 O   0  0  0  0  0  0  0  0  0  0  0  0
    1.0176  -19.2901  -12.2105 O   0  0  0  0  0  0  0  0  0  0  0  0
    2.1494  -20.0486  -12.7771 C   0  0  2  0  0  0  0  0  0  0  0  0
    2.2012  -19.7271  -13.8233 H   0  0  0  0  0  0  0  0  0  0  0  0
    1.9313  -21.5860  -12.8072 C   0  0  1  0  0  0  0  0  0  0  0  0
    1.8532  -22.0543  -11.8338 H   0  0  0  0  0  0  0  0  0  0  0  0
    0.6336  -21.9158  -13.5509 C   0  0  0  0  0  0  0  0  0  0  0  0
   -0.5471  -21.3468  -12.9927 O   0  0  0  0  0  0  0  0  0  0  0  0
    3.0485  -22.2580  -13.4134 O   0  0  0  0  0  0  0  0  0  0  0  0
    4.2530  -22.0216  -12.6899 C   0  0  2  0  0  0  0  0  0  0  0  0
    4.1723  -22.4071  -11.6635 H   0  0  0  0  0  0  0  0  0  0  0  0
    4.6567  -20.5352  -12.7164 C   0  0  1  0  0  0  0  0  0  0  0  0
    4.8589  -20.1741  -13.7224 H   0  0  0  0  0  0  0  0  0  0  0  0
    3.5226  -19.7144  -12.1447 C   0  0  1  0  0  0  0  0  0  0  0  0
    3.6389  -19.9804  -11.1076 H   0  0  0  0  0  0  0  0  0  0  0  0
    3.6652  -18.3037  -12.1625 O   0  0  0  0  0  0  0  0  0  0  0  0
    5.8410  -20.3623  -11.9272 O   0  0  0  0  0  0  0  0  0  0  0  0
    5.2864  -22.7750  -13.3106 O   0  0  0  0  0  0  0  0  0  0  0  0
    2.7199  -19.8277   -5.8096 C   0  0  1  0  0  0  0  0  0  0  0  0
    3.2932  -20.6881   -5.4065 H   0  0  0  0  0  0  0  0  0  0  0  0
    3.1491  -19.5933   -7.1767 C   0  0  2  0  0  0  0  0  0  0  0  0
    4.1474  -19.2240   -7.2373 H   0  0  0  0  0  0  0  0  0  0  0  0
    2.2121  -18.7798   -8.1166 C   0  0  2  0  0  0  0  0  0  0  0  0
    2.4482  -18.6248   -9.1323 H   0  0  0  0  0  0  0  0  0  0  0  0
    2.3130  -17.4296   -7.7155 O   0  0  0  0  0  0  0  0  0  0  0  0
    3.6497  -17.0529   -8.0678 C   0  0  2  0  0  0  0  0  0  0  0  0
    4.3050  -17.2863   -7.2167 H   0  0  0  0  0  0  0  0  0  0  0  0
    3.5464  -15.6767   -8.2824 O   0  0  0  0  0  0  0  0  0  0  0  0
    4.8435  -15.2319   -8.4885 C   0  0  2  0  0  0  0  0  0  0  0  0
    5.4882  -15.6227   -7.6943 H   0  0  0  0  0  0  0  0  0  0  0  0
    4.8514  -13.7563   -8.3757 C   0  0  0  0  0  0  0  0  0  0  0  0
    6.2066  -13.6969   -7.9610 O   0  0  0  0  0  0  0  0  0  0  0  0
    5.5053  -15.7619   -9.7722 C   0  0  2  0  0  0  0  0  0  0  0  0
    4.7576  -15.7612  -10.5791 H   0  0  0  0  0  0  0  0  0  0  0  0
    5.6475  -17.2355   -9.7109 C   0  0  1  0  0  0  0  0  0  0  0  0
    6.3586  -17.5649   -8.9619 H   0  0  0  0  0  0  0  0  0  0  0  0
    4.2764  -17.7323   -9.3799 C   0  0  1  0  0  0  0  0  0  0  0  0
    3.5528  -17.4952  -10.1739 H   0  0  0  0  0  0  0  0  0  0  0  0
    4.4802  -19.1425   -9.3439 O   0  0  0  0  0  0  0  0  0  0  0  0
    6.0468  -17.7995  -10.9600 O   0  0  0  0  0  0  0  0  0  0  0  0
    6.7966  -15.1363  -10.0573 O   0  0  0  0  0  0  0  0  0  0  0  0
    6.6869  -13.8199  -10.6727 C   0  0  2  0  0  0  0  0  0  0  0  0
    7.6090  -13.6869  -11.2426 H   0  0  0  0  0  0  0  0  0  0  0  0
    6.7023  -12.6177   -9.8471 O   0  0  0  0  0  0  0  0  0  0  0  0
    6.3695  -11.3835  -10.5002 C   0  0  2  0  0  0  0  0  0  0  0  0
    7.1971  -11.1553  -11.1760 H   0  0  0  0  0  0  0  0  0  0  0  0
    6.2518  -10.2097   -9.4928 C   0  0  0  0  0  0  0  0  0  0  0  0
    6.1350   -8.9454  -10.1421 O   0  0  0  0  0  0  0  0  0  0  0  0
    5.0646  -11.4820  -11.2970 C   0  0  2  0  0  0  0  0  0  0  0  0
    4.2034  -11.4961  -10.6115 H   0  0  0  0  0  0  0  0  0  0  0  0
    5.0596  -12.7631  -12.0989 C   0  0  1  0  0  0  0  0  0  0  0  0
    5.8316  -12.8761  -12.7978 H   0  0  0  0  0  0  0  0  0  0  0  0
    5.4108  -13.9772  -11.4525 C   0  0  1  0  0  0  0  0  0  0  0  0
    4.4799  -14.1281  -10.9059 H   0  0  0  0  0  0  0  0  0  0  0  0
    5.5137  -15.0306  -12.4453 O   0  0  0  0  0  0  0  0  0  0  0  0
    3.8395  -13.0745  -12.7055 O   0  0  0  0  0  0  0  0  0  0  0  0
    4.9313  -10.2996  -12.0994 O   0  0  0  0  0  0  0  0  0  0  0  0
    4.9961  -10.4597  -13.5106 C   0  0  2  0  0  0  0  0  0  0  0  0
    4.9550   -9.4520  -13.9231 H   0  0  0  0  0  0  0  0  0  0  0  0
    3.7659  -11.0721  -13.9091 O   0  0  0  0  0  0  0  0  0  0  0  0
    3.7016  -11.6865  -15.1934 C   0  0  2  0  0  0  0  0  0  0  0  0
    3.6023  -10.8566  -15.8900 H   0  0  0  0  0  0  0  0  0  0  0  0
    2.4511  -12.6061  -15.3057 C   0  0  0  0  0  0  0  0  0  0  0  0
    2.2583  -13.0337  -16.6465 O   0  0  0  0  0  0  0  0  0  0  0  0
    4.9510  -12.5070  -15.5394 C   0  0  2  0  0  0  0  0  0  0  0  0
    5.0152  -13.4381  -14.9507 H   0  0  0  0  0  0  0  0  0  0  0  0
    6.1945  -11.6324  -15.3717 C   0  0  1  0  0  0  0  0  0  0  0  0
    6.1498  -10.7862  -16.0523 H   0  0  0  0  0  0  0  0  0  0  0  0
    6.3442  -11.0983  -13.9729 C   0  0  1  0  0  0  0  0  0  0  0  0
    6.8012  -11.9250  -13.4665 H   0  0  0  0  0  0  0  0  0  0  0  0
    7.4400  -10.2364  -13.6907 O   0  0  0  0  0  0  0  0  0  0  0  0
    7.3461  -12.4072  -15.7086 O   0  0  0  0  0  0  0  0  0  0  0  0
    4.9387  -12.8880  -16.9176 O   0  0  0  0  0  0  0  0  0  0  0  0
    3.4521  -20.9091   -7.3760 O   0  0  0  0  0  0  0  0  0  0  0  0
    3.0759  -18.6586   -5.1597 O   0  0  0  0  0  0  0  0  0  0  0  0
   -0.0087  -22.7574  -10.4418 H   0  0  0  0  0  0  0  0  0  0  0  0
   -0.6503  -21.8377   -8.7145 H   0  0  0  0  0  0  0  0  0  0  0  0
   -1.1881  -21.0301   -9.7108 H   0  0  0  0  0  0  0  0  0  0  0  0
    4.3437  -21.8918   -9.3807 H   0  0  0  0  0  0  0  0  0  0  0  0
    3.0418  -23.1909   -9.6280 H   0  0  0  0  0  0  0  0  0  0  0  0
    4.0581  -22.1870   -7.1788 H   0  0  0  0  0  0  0  0  0  0  0  0
   -2.3357  -21.3882   -8.2837 H   0  0  0  0  0  0  0  0  0  0  0  0
   -1.2909  -18.2807  -11.4803 H   0  0  0  0  0  0  0  0  0  0  0  0
    0.4830  -22.9969  -13.5719 H   0  0  0  0  0  0  0  0  0  0  0  0
    0.7215  -21.5609  -14.5777 H   0  0  0  0  0  0  0  0  0  0  0  0
   -0.5693  -21.6233  -12.0598 H   0  0  0  0  0  0  0  0  0  0  0  0
    3.8490  -17.9925  -13.0522 H   0  0  0  0  0  0  0  0  0  0  0  0
    6.5530  -20.8832  -12.3260 H   0  0  0  0  0  0  0  0  0  0  0  0
    5.3544  -22.3995  -14.2025 H   0  0  0  0  0  0  0  0  0  0  0  0
    4.3241  -13.2591   -7.5763 H   0  0  0  0  0  0  0  0  0  0  0  0
    4.3704  -13.3012   -9.2721 H   0  0  0  0  0  0  0  0  0  0  0  0
    6.7593  -13.0522   -8.4241 H   0  0  0  0  0  0  0  0  0  0  0  0
    5.2353  -19.3642   -8.7831 H   0  0  0  0  0  0  0  0  0  0  0  0
    6.8812  -17.4073  -11.2343 H   0  0  0  0  0  0  0  0  0  0  0  0
    7.1315  -10.1587   -8.8497 H   0  0  0  0  0  0  0  0  0  0  0  0
    5.3801  -10.3341   -8.8364 H   0  0  0  0  0  0  0  0  0  0  0  0
    6.7743   -8.9378  -10.8761 H   0  0  0  0  0  0  0  0  0  0  0  0
    6.3926  -14.9924  -12.8494 H   0  0  0  0  0  0  0  0  0  0  0  0
    3.6372  -12.2625  -13.1742 H   0  0  0  0  0  0  0  0  0  0  0  0
    1.5470  -12.0880  -14.9759 H   0  0  0  0  0  0  0  0  0  0  0  0
    2.5307  -13.5117  -14.6867 H   0  0  0  0  0  0  0  0  0  0  0  0
    2.3354  -12.2557  -17.2175 H   0  0  0  0  0  0  0  0  0  0  0  0
    7.3575   -9.4642  -14.2553 H   0  0  0  0  0  0  0  0  0  0  0  0
    7.1745  -12.7685  -16.5995 H   0  0  0  0  0  0  0  0  0  0  0  0
    4.6506  -12.1129  -17.4266 H   0  0  0  0  0  0  0  0  0  0  0  0
    2.6559  -21.5084   -7.2541 H   0  0  0  0  0  0  0  0  0  0  0  0
    2.7623  -18.8193   -4.2705 H   0  0  0  0  0  0  0  0  0  0  0  0
  1  2  1  0  0  0  0
  1 98  1  0  0  0  0
  2  3  1  0  0  0  0
  2 99  1  0  0  0  0
  2100  1  0  0  0  0
  3  4  1  6  0  0  0
  3  5  1  0  0  0  0
  3 45  1  0  0  0  0
  5  6  1  0  0  0  0
  6 41  1  0  0  0  0
  6  8  1  0  0  0  0
  6  7  1  1  0  0  0
  9 11  1  0  0  0  0
  9 20  1  0  0  0  0
  9 10  1  6  0  0  0
  9  8  1  0  0  0  0
 11 12  1  1  0  0  0
 11 13  1  0  0  0  0
 11 15  1  0  0  0  0
 13 14  1  0  0  0  0
 13101  1  0  0  0  0
 13102  1  0  0  0  0
 14103  1  0  0  0  0
 15 16  1  0  0  0  0
 16 18  1  0  0  0  0
 16 24  1  0  0  0  0
 16 17  1  1  0  0  0
 18 19  1  6  0  0  0
 18 20  1  0  0  0  0
 18 23  1  0  0  0  0
 20 22  1  0  0  0  0
 20 21  1  1  0  0  0
 22104  1  0  0  0  0
 23105  1  0  0  0  0
 25 27  1  0  0  0  0
 25 36  1  0  0  0  0
 25 26  1  6  0  0  0
 25 24  1  0  0  0  0
 27 28  1  1  0  0  0
 27 29  1  0  0  0  0
 27 31  1  0  0  0  0
 29 30  1  0  0  0  0
 29106  1  0  0  0  0
 29107  1  0  0  0  0
 30108  1  0  0  0  0
 31 32  1  0  0  0  0
 32 34  1  0  0  0  0
 32 40  1  0  0  0  0
 32 33  1  1  0  0  0
 34 35  1  6  0  0  0
 34 36  1  0  0  0  0
 34 39  1  0  0  0  0
 36 38  1  0  0  0  0
 36 37  1  1  0  0  0
 38109  1  0  0  0  0
 39110  1  0  0  0  0
 40111  1  0  0  0  0
 41 42  1  1  0  0  0
 41 43  1  0  0  0  0
 41 97  1  0  0  0  0
 43 45  1  0  0  0  0
 43 96  1  0  0  0  0
 43 44  1  1  0  0  0
 45 46  1  6  0  0  0
 45 47  1  0  0  0  0
 48 50  1  0  0  0  0
 48 59  1  0  0  0  0
 48 49  1  1  0  0  0
 48 47  1  0  0  0  0
 50 51  1  0  0  0  0
 51 52  1  1  0  0  0
 51 53  1  0  0  0  0
 51 55  1  0  0  0  0
 53 54  1  0  0  0  0
 53112  1  0  0  0  0
 53113  1  0  0  0  0
 54114  1  0  0  0  0
 55 57  1  0  0  0  0
 55 63  1  0  0  0  0
 55 56  1  6  0  0  0
 57 58  1  1  0  0  0
 57 59  1  0  0  0  0
 57 62  1  0  0  0  0
 59 61  1  0  0  0  0
 59 60  1  6  0  0  0
 61115  1  0  0  0  0
 62116  1  0  0  0  0
 64 66  1  0  0  0  0
 64 75  1  0  0  0  0
 64 65  1  6  0  0  0
 64 63  1  0  0  0  0
 66 67  1  0  0  0  0
 67 68  1  6  0  0  0
 67 69  1  0  0  0  0
 67 71  1  0  0  0  0
 69 70  1  0  0  0  0
 69117  1  0  0  0  0
 69118  1  0  0  0  0
 70119  1  0  0  0  0
 71 73  1  0  0  0  0
 71 79  1  0  0  0  0
 71 72  1  1  0  0  0
 73 74  1  6  0  0  0
 73 75  1  0  0  0  0
 73 78  1  0  0  0  0
 75 77  1  0  0  0  0
 75 76  1  1  0  0  0
 77120  1  0  0  0  0
 78121  1  0  0  0  0
 80 82  1  0  0  0  0
 80 91  1  0  0  0  0
 80 81  1  6  0  0  0
 80 79  1  0  0  0  0
 82 83  1  0  0  0  0
 83 84  1  6  0  0  0
 83 85  1  0  0  0  0
 83 87  1  0  0  0  0
 85 86  1  0  0  0  0
 85122  1  0  0  0  0
 85123  1  0  0  0  0
 86124  1  0  0  0  0
 87 89  1  0  0  0  0
 87 95  1  0  0  0  0
 87 88  1  1  0  0  0
 89 90  1  6  0  0  0
 89 91  1  0  0  0  0
 89 94  1  0  0  0  0
 91 93  1  0  0  0  0
 91 92  1  1  0  0  0
 93125  1  0  0  0  0
 94126  1  0  0  0  0
 95127  1  0  0  0  0
 96128  1  0  0  0  0
 97129  1  0  0  0  0
M  END
$$$$
