CEY
 OpenBabel04121316093D

129134  0  0  1  0  0  0  0  0999 V2000
  -11.4474    7.5244    1.6025 O   0  0  0  0  0  0  0  0  0  0  0  0
  -12.1802    6.4375    2.1183 C   0  0  0  0  0  0  0  0  0  0  0  0
  -11.3981    5.1648    2.4104 C   0  0  1  0  0  0  0  0  0  0  0  0
  -11.9911    4.4618    1.9714 H   0  0  0  0  0  0  0  0  0  0  0  0
  -10.1793    4.9839    1.7221 O   0  0  0  0  0  0  0  0  0  0  0  0
   -9.1643    5.7926    2.2802 C   0  0  2  0  0  0  0  0  0  0  0  0
   -9.4342    6.8396    2.1765 H   0  0  0  0  0  0  0  0  0  0  0  0
   -7.9722    5.6191    1.5637 O   0  0  0  0  0  0  0  0  0  0  0  0
   -8.2168    5.7678    0.1679 C   0  0  2  0  0  0  0  0  0  0  0  0
   -9.2553    5.5751   -0.1337 H   0  0  0  0  0  0  0  0  0  0  0  0
   -7.3638    4.7332   -0.5224 C   0  0  1  0  0  0  0  0  0  0  0  0
   -6.3485    4.9693   -0.2045 H   0  0  0  0  0  0  0  0  0  0  0  0
   -7.6393    3.2770   -0.0943 C   0  0  0  0  0  0  0  0  0  0  0  0
   -7.4404    3.0537    1.3026 O   0  0  0  0  0  0  0  0  0  0  0  0
   -7.5324    4.8672   -1.9387 O   0  0  0  0  0  0  0  0  0  0  0  0
   -7.0447    6.1242   -2.3902 C   0  0  1  0  0  0  0  0  0  0  0  0
   -7.1772    6.1584   -3.4717 H   0  0  0  0  0  0  0  0  0  0  0  0
   -7.9307    7.2496   -1.8223 C   0  0  1  0  0  0  0  0  0  0  0  0
   -8.9677    7.0773   -2.1396 H   0  0  0  0  0  0  0  0  0  0  0  0
   -7.8668    7.1919   -0.2957 C   0  0  1  0  0  0  0  0  0  0  0  0
   -6.8730    7.4826    0.0640 H   0  0  0  0  0  0  0  0  0  0  0  0
   -8.7815    8.1445    0.2700 O   0  0  0  0  0  0  0  0  0  0  0  0
   -7.5760    8.5535   -2.2843 O   0  0  0  0  0  0  0  0  0  0  0  0
   -5.6715    6.3256   -2.0486 O   0  0  0  0  0  0  0  0  0  0  0  0
   -4.7170    5.4297   -2.6477 C   0  0  2  0  0  0  0  0  0  0  0  0
   -3.7363    5.8283   -2.3544 H   0  0  0  0  0  0  0  0  0  0  0  0
   -4.7932    5.4228   -4.1883 C   0  0  1  0  0  0  0  0  0  0  0  0
   -5.8127    5.1943   -4.5116 H   0  0  0  0  0  0  0  0  0  0  0  0
   -4.4481    6.7986   -4.7916 C   0  0  0  0  0  0  0  0  0  0  0  0
   -5.2836    7.8578   -4.3444 O   0  0  0  0  0  0  0  0  0  0  0  0
   -3.9315    4.4284   -4.7649 O   0  0  0  0  0  0  0  0  0  0  0  0
   -4.2386    3.1133   -4.3053 C   0  0  1  0  0  0  0  0  0  0  0  0
   -3.6241    2.3921   -4.8503 H   0  0  0  0  0  0  0  0  0  0  0  0
   -3.9326    2.9899   -2.8012 C   0  0  1  0  0  0  0  0  0  0  0  0
   -2.8785    3.1929   -2.5896 H   0  0  0  0  0  0  0  0  0  0  0  0
   -4.7893    3.9998   -2.0609 C   0  0  1  0  0  0  0  0  0  0  0  0
   -5.7974    3.6088   -2.1440 H   0  0  0  0  0  0  0  0  0  0  0  0
   -4.4662    3.9814   -0.6546 O   0  0  0  0  0  0  0  0  0  0  0  0
   -4.2382    1.6892   -2.2738 O   0  0  0  0  0  0  0  0  0  0  0  0
   -5.5991    2.8159   -4.5896 O   0  0  0  0  0  0  0  0  0  0  0  0
   -8.9486    5.4664    3.7675 C   0  0  1  0  0  0  0  0  0  0  0  0
   -8.2485    6.1981    4.1699 H   0  0  0  0  0  0  0  0  0  0  0  0
  -10.2942    5.5303    4.5010 C   0  0  2  0  0  0  0  0  0  0  0  0
  -10.1842    5.2245    5.5394 H   0  0  0  0  0  0  0  0  0  0  0  0
  -11.3394    4.6324    3.8262 C   0  0  2  0  0  0  0  0  0  0  0  0
  -12.2631    4.7660    4.3951 H   0  0  0  0  0  0  0  0  0  0  0  0
  -11.0781    3.2085    3.7561 O   0  0  0  0  0  0  0  0  0  0  0  0
  -12.0575    2.2931    3.1663 C   0  0  1  0  0  0  0  0  0  0  0  0
  -11.8157    1.3509    3.6741 H   0  0  0  0  0  0  0  0  0  0  0  0
  -13.4320    2.5452    3.5138 O   0  0  0  0  0  0  0  0  0  0  0  0
  -14.0380    3.5923    2.7732 C   0  0  2  0  0  0  0  0  0  0  0  0
  -13.5195    4.4993    3.0140 H   0  0  0  0  0  0  0  0  0  0  0  0
  -15.3784    4.0584    3.3797 C   0  0  0  0  0  0  0  0  0  0  0  0
  -15.7728    5.3476    2.8862 O   0  0  0  0  0  0  0  0  0  0  0  0
  -13.9410    3.4268    1.2241 C   0  0  2  0  0  0  0  0  0  0  0  0
  -14.7159    2.7204    0.9151 H   0  0  0  0  0  0  0  0  0  0  0  0
  -12.5595    2.8931    0.6746 C   0  0  1  0  0  0  0  0  0  0  0  0
  -11.8280    3.6715    0.4425 H   0  0  0  0  0  0  0  0  0  0  0  0
  -11.9055    1.9097    1.6457 C   0  0  1  0  0  0  0  0  0  0  0  0
  -12.4327    0.9630    1.4724 H   0  0  0  0  0  0  0  0  0  0  0  0
  -10.5425    1.6809    1.2724 O   0  0  0  0  0  0  0  0  0  0  0  0
  -12.7097    2.3200   -0.6381 O   0  0  0  0  0  0  0  0  0  0  0  0
  -14.2636    4.7409    0.7198 O   0  0  0  0  0  0  0  0  0  0  0  0
  -13.8873    5.0198   -0.6167 C   0  0  1  0  0  0  0  0  0  0  0  0
  -12.8021    4.9765   -0.7096 H   0  0  0  0  0  0  0  0  0  0  0  0
  -14.5292    4.0974   -1.4759 O   0  0  0  0  0  0  0  0  0  0  0  0
  -15.9435    4.0978   -1.2385 C   0  0  2  0  0  0  0  0  0  0  0  0
  -16.1871    3.9102   -0.1836 H   0  0  0  0  0  0  0  0  0  0  0  0
  -16.5614    2.9123   -1.9933 C   0  0  0  0  0  0  0  0  0  0  0  0
  -17.9832    2.8876   -1.9578 O   0  0  0  0  0  0  0  0  0  0  0  0
  -16.5140    5.4749   -1.5863 C   0  0  2  0  0  0  0  0  0  0  0  0
  -16.4348    5.5910   -2.6751 H   0  0  0  0  0  0  0  0  0  0  0  0
  -15.7137    6.6282   -0.8971 C   0  0  1  0  0  0  0  0  0  0  0  0
  -16.0048    6.6586    0.1607 H   0  0  0  0  0  0  0  0  0  0  0  0
  -14.2275    6.4490   -1.0129 C   0  0  1  0  0  0  0  0  0  0  0  0
  -13.9051    6.6318   -2.0443 H   0  0  0  0  0  0  0  0  0  0  0  0
  -13.5738    7.4468   -0.1994 O   0  0  0  0  0  0  0  0  0  0  0  0
  -15.9047    7.9695   -1.3928 O   0  0  0  0  0  0  0  0  0  0  0  0
  -17.9046    5.4675   -1.1651 O   0  0  0  0  0  0  0  0  0  0  0  0
  -18.4180    6.7886   -1.1636 C   0  0  1  0  0  0  0  0  0  0  0  0
  -17.9229    7.3144   -0.3429 H   0  0  0  0  0  0  0  0  0  0  0  0
  -18.1131    7.3809   -2.4329 O   0  0  0  0  0  0  0  0  0  0  0  0
  -18.7581    6.6717   -3.5071 C   0  0  2  0  0  0  0  0  0  0  0  0
  -18.5616    5.5904   -3.4534 H   0  0  0  0  0  0  0  0  0  0  0  0
  -18.1447    7.1253   -4.8390 C   0  0  0  0  0  0  0  0  0  0  0  0
  -18.7659    6.5428   -5.9736 O   0  0  0  0  0  0  0  0  0  0  0  0
  -20.2582    6.8990   -3.3416 C   0  0  2  0  0  0  0  0  0  0  0  0
  -20.4586    7.9763   -3.3982 H   0  0  0  0  0  0  0  0  0  0  0  0
  -20.7135    6.3639   -1.9651 C   0  0  1  0  0  0  0  0  0  0  0  0
  -20.6481    5.2696   -1.9442 H   0  0  0  0  0  0  0  0  0  0  0  0
  -19.8860    6.9495   -0.8344 C   0  0  1  0  0  0  0  0  0  0  0  0
  -20.0813    8.0267   -0.7633 H   0  0  0  0  0  0  0  0  0  0  0  0
  -20.1853    6.3950    0.4484 O   0  0  0  0  0  0  0  0  0  0  0  0
  -22.0903    6.6873   -1.7708 O   0  0  0  0  0  0  0  0  0  0  0  0
  -21.0463    6.2493   -4.3337 O   0  0  0  0  0  0  0  0  0  0  0  0
  -10.8093    6.8893    4.5254 O   0  0  0  0  0  0  0  0  0  0  0  0
   -8.3717    4.1698    3.9593 O   0  0  0  0  0  0  0  0  0  0  0  0
  -12.0612    7.9988    1.0059 H   0  0  0  0  0  0  0  0  0  0  0  0
  -12.8399    6.1528    1.3246 H   0  0  0  0  0  0  0  0  0  0  0  0
  -12.8317    6.7503    2.9327 H   0  0  0  0  0  0  0  0  0  0  0  0
   -6.9775    2.5852   -0.6265 H   0  0  0  0  0  0  0  0  0  0  0  0
   -8.6591    2.9880   -0.3609 H   0  0  0  0  0  0  0  0  0  0  0  0
   -6.5158    3.3166    1.4766 H   0  0  0  0  0  0  0  0  0  0  0  0
   -9.6839    7.9068   -0.0033 H   0  0  0  0  0  0  0  0  0  0  0  0
   -7.5636    8.5621   -3.2533 H   0  0  0  0  0  0  0  0  0  0  0  0
   -4.5356    6.7545   -5.8814 H   0  0  0  0  0  0  0  0  0  0  0  0
   -3.4127    7.0669   -4.5630 H   0  0  0  0  0  0  0  0  0  0  0  0
   -6.1916    7.6517   -4.6097 H   0  0  0  0  0  0  0  0  0  0  0  0
   -3.6013    4.3896   -0.5200 H   0  0  0  0  0  0  0  0  0  0  0  0
   -3.7676    1.0167   -2.7847 H   0  0  0  0  0  0  0  0  0  0  0  0
   -5.6618    2.7236   -5.5538 H   0  0  0  0  0  0  0  0  0  0  0  0
  -15.2671    4.1650    4.4681 H   0  0  0  0  0  0  0  0  0  0  0  0
  -16.1836    3.3508    3.1930 H   0  0  0  0  0  0  0  0  0  0  0  0
  -15.0937    5.9945    3.1515 H   0  0  0  0  0  0  0  0  0  0  0  0
   -9.9993    2.4362    1.5797 H   0  0  0  0  0  0  0  0  0  0  0  0
  -12.5932    3.0410   -1.2914 H   0  0  0  0  0  0  0  0  0  0  0  0
  -16.1978    1.9754   -1.5511 H   0  0  0  0  0  0  0  0  0  0  0  0
  -16.2393    2.9116   -3.0377 H   0  0  0  0  0  0  0  0  0  0  0  0
  -18.2567    3.1248   -1.0526 H   0  0  0  0  0  0  0  0  0  0  0  0
  -14.2096    7.6655    0.5119 H   0  0  0  0  0  0  0  0  0  0  0  0
  -16.7579    8.0704   -1.8505 H   0  0  0  0  0  0  0  0  0  0  0  0
  -17.0819    6.8486   -4.8702 H   0  0  0  0  0  0  0  0  0  0  0  0
  -18.1787    8.2142   -4.9321 H   0  0  0  0  0  0  0  0  0  0  0  0
  -18.8389    5.5834   -5.8403 H   0  0  0  0  0  0  0  0  0  0  0  0
  -20.0750    5.4309    0.3981 H   0  0  0  0  0  0  0  0  0  0  0  0
  -22.5294    6.4885   -2.6192 H   0  0  0  0  0  0  0  0  0  0  0  0
  -20.7523    5.3250   -4.4017 H   0  0  0  0  0  0  0  0  0  0  0  0
  -10.7233    7.3208    3.6513 H   0  0  0  0  0  0  0  0  0  0  0  0
   -7.9168    3.9288    3.1259 H   0  0  0  0  0  0  0  0  0  0  0  0
  1  2  1  0  0  0  0
  1 98  1  0  0  0  0
  2  3  1  0  0  0  0
  2 99  1  0  0  0  0
  2100  1  0  0  0  0
  3  4  1  6  0  0  0
  3  5  1  0  0  0  0
  3 45  1  0  0  0  0
  5  6  1  0  0  0  0
  6  7  1  6  0  0  0
  6  8  1  0  0  0  0
  6 41  1  0  0  0  0
  9 11  1  0  0  0  0
  9 20  1  0  0  0  0
  9 10  1  6  0  0  0
  9  8  1  0  0  0  0
 11 12  1  1  0  0  0
 11 13  1  0  0  0  0
 11 15  1  0  0  0  0
 13 14  1  0  0  0  0
 13101  1  0  0  0  0
 13102  1  0  0  0  0
 14103  1  0  0  0  0
 15 16  1  0  0  0  0
 16 17  1  6  0  0  0
 16 18  1  0  0  0  0
 16 24  1  0  0  0  0
 18 19  1  6  0  0  0
 18 20  1  0  0  0  0
 18 23  1  0  0  0  0
 20 22  1  0  0  0  0
 20 21  1  1  0  0  0
 22104  1  0  0  0  0
 23105  1  0  0  0  0
 25 27  1  0  0  0  0
 25 36  1  0  0  0  0
 25 26  1  1  0  0  0
 25 24  1  0  0  0  0
 27 28  1  6  0  0  0
 27 29  1  0  0  0  0
 27 31  1  0  0  0  0
 29 30  1  0  0  0  0
 29106  1  0  0  0  0
 29107  1  0  0  0  0
 30108  1  0  0  0  0
 31 32  1  0  0  0  0
 32 33  1  6  0  0  0
 32 34  1  0  0  0  0
 32 40  1  0  0  0  0
 34 35  1  1  0  0  0
 34 36  1  0  0  0  0
 34 39  1  0  0  0  0
 36 38  1  0  0  0  0
 36 37  1  6  0  0  0
 38109  1  0  0  0  0
 39110  1  0  0  0  0
 40111  1  0  0  0  0
 41 42  1  1  0  0  0
 41 43  1  0  0  0  0
 41 97  1  0  0  0  0
 43 45  1  0  0  0  0
 43 96  1  0  0  0  0
 43 44  1  1  0  0  0
 45 46  1  1  0  0  0
 45 47  1  0  0  0  0
 47 48  1  0  0  0  0
 48 49  1  1  0  0  0
 48 50  1  0  0  0  0
 48 59  1  0  0  0  0
 50 51  1  0  0  0  0
 51 52  1  1  0  0  0
 51 53  1  0  0  0  0
 51 55  1  0  0  0  0
 53 54  1  0  0  0  0
 53112  1  0  0  0  0
 53113  1  0  0  0  0
 54114  1  0  0  0  0
 55 57  1  0  0  0  0
 55 63  1  0  0  0  0
 55 56  1  6  0  0  0
 57 58  1  6  0  0  0
 57 59  1  0  0  0  0
 57 62  1  0  0  0  0
 59 61  1  0  0  0  0
 59 60  1  6  0  0  0
 61115  1  0  0  0  0
 62116  1  0  0  0  0
 63 64  1  0  0  0  0
 64 65  1  6  0  0  0
 64 66  1  0  0  0  0
 64 75  1  0  0  0  0
 66 67  1  0  0  0  0
 67 68  1  1  0  0  0
 67 69  1  0  0  0  0
 67 71  1  0  0  0  0
 69 70  1  0  0  0  0
 69117  1  0  0  0  0
 69118  1  0  0  0  0
 70119  1  0  0  0  0
 71 73  1  0  0  0  0
 71 79  1  0  0  0  0
 71 72  1  6  0  0  0
 73 74  1  1  0  0  0
 73 75  1  0  0  0  0
 73 78  1  0  0  0  0
 75 77  1  0  0  0  0
 75 76  1  6  0  0  0
 77120  1  0  0  0  0
 78121  1  0  0  0  0
 79 80  1  0  0  0  0
 80 81  1  1  0  0  0
 80 82  1  0  0  0  0
 80 91  1  0  0  0  0
 82 83  1  0  0  0  0
 83 84  1  1  0  0  0
 83 85  1  0  0  0  0
 83 87  1  0  0  0  0
 85 86  1  0  0  0  0
 85122  1  0  0  0  0
 85123  1  0  0  0  0
 86124  1  0  0  0  0
 87 89  1  0  0  0  0
 87 95  1  0  0  0  0
 87 88  1  6  0  0  0
 89 90  1  1  0  0  0
 89 91  1  0  0  0  0
 89 94  1  0  0  0  0
 91 93  1  0  0  0  0
 91 92  1  1  0  0  0
 93125  1  0  0  0  0
 94126  1  0  0  0  0
 95127  1  0  0  0  0
 96128  1  0  0  0  0
 97129  1  0  0  0  0
M  END
$$$$
