CF4
 OpenBabel04121316093D

 45 47  0  0  0  0  0  0  0  0999 V2000
    1.0608   -0.3662   -0.1024 O   0  0  0  0  0  0  0  0  0  0  0  0
    2.3623   -0.0518   -0.1085 C   0  0  0  0  0  0  0  0  0  0  0  0
    2.8171    0.9799   -0.5355 O   0  0  0  0  0  0  0  0  0  0  0  0
    3.0173   -1.1448    0.3180 N   0  0  0  0  0  0  0  0  0  0  0  0
    4.4342   -1.2632    0.2805 C   0  0  0  0  0  0  0  0  0  0  0  0
    4.8027   -2.6918    0.6768 C   0  0  0  0  0  0  0  0  0  0  0  0
    6.2827   -2.7513    0.7680 C   0  0  0  0  0  0  0  0  0  0  0  0
    6.9847   -4.0168    1.1561 C   0  0  0  0  0  0  0  0  0  0  0  0
    8.4680   -3.9327    1.1015 N   0  0  0  0  0  0  0  0  0  0  0  0
    9.2174   -2.7365    1.1467 C   0  0  0  0  0  0  0  0  0  0  0  0
    8.6807   -1.4467    1.1165 C   0  0  0  0  0  0  0  0  0  0  0  0
    9.3529   -0.2454    1.1710 C   0  0  0  0  0  0  0  0  0  0  0  0
    8.5121    1.0043    1.1552 C   0  0  0  0  0  0  0  0  0  0  0  0
   10.7235   -0.3007    1.1876 C   0  0  0  0  0  0  0  0  0  0  0  0
   11.3520   -1.5635    1.1799 C   0  0  0  0  0  0  0  0  0  0  0  0
   10.6182   -2.7718    1.1753 C   0  0  0  0  0  0  0  0  0  0  0  0
   11.3379   -3.9794    1.1718 N   0  0  0  0  0  0  0  0  0  0  0  0
   10.6713   -5.0956    1.1565 C   0  0  0  0  0  0  0  0  0  0  0  0
    9.1626   -5.1425    1.1410 C   0  0  0  0  0  0  0  0  0  0  0  0
    8.5624   -6.2965    1.1566 N   0  0  0  0  0  0  0  0  0  0  0  0
    9.2355   -7.4839    1.1620 C   0  0  0  0  0  0  0  0  0  0  0  0
    8.6488   -8.5621    1.1602 O   0  0  0  0  0  0  0  0  0  0  0  0
   10.6000   -7.4910    1.1601 N   0  0  0  0  0  0  0  0  0  0  0  0
   11.0409   -8.3973    1.1579 H   0  0  0  0  0  0  0  0  0  0  0  0
   11.4132   -6.3998    1.1573 C   0  0  0  0  0  0  0  0  0  0  0  0
   12.6311   -6.4613    1.1560 O   0  0  0  0  0  0  0  0  0  0  0  0
   11.4953    0.9721    1.1816 C   0  0  0  0  0  0  0  0  0  0  0  0
    0.6697    0.1436   -0.8350 H   0  0  0  0  0  0  0  0  0  0  0  0
    2.4380   -1.9346    0.5569 H   0  0  0  0  0  0  0  0  0  0  0  0
    4.8443   -0.5118    0.9705 H   0  0  0  0  0  0  0  0  0  0  0  0
    4.8083   -1.0013   -0.7196 H   0  0  0  0  0  0  0  0  0  0  0  0
    4.4291   -3.4240   -0.0384 H   0  0  0  0  0  0  0  0  0  0  0  0
    4.3977   -2.9114    1.6699 H   0  0  0  0  0  0  0  0  0  0  0  0
    6.4243   -2.0979    1.6352 H   0  0  0  0  0  0  0  0  0  0  0  0
    6.6983   -2.3843   -0.1850 H   0  0  0  0  0  0  0  0  0  0  0  0
    6.6362   -4.8050    0.4804 H   0  0  0  0  0  0  0  0  0  0  0  0
    6.6817   -4.2825    2.1754 H   0  0  0  0  0  0  0  0  0  0  0  0
    7.6614   -1.2022    0.9709 H   0  0  0  0  0  0  0  0  0  0  0  0
    7.4332    0.7884    1.1559 H   0  0  0  0  0  0  0  0  0  0  0  0
    8.7114    1.5751    0.2460 H   0  0  0  0  0  0  0  0  0  0  0  0
    8.7026    1.5932    2.0545 H   0  0  0  0  0  0  0  0  0  0  0  0
   12.4379   -1.6186    1.1667 H   0  0  0  0  0  0  0  0  0  0  0  0
   10.8329    1.8446    1.1806 H   0  0  0  0  0  0  0  0  0  0  0  0
   12.0964    1.0299    0.2737 H   0  0  0  0  0  0  0  0  0  0  0  0
   12.1005    1.0312    2.0856 H   0  0  0  0  0  0  0  0  0  0  0  0
  1  2  1  0  0  0  0
  1 28  1  0  0  0  0
  2  3  2  0  0  0  0
  2  4  1  0  0  0  0
  4  5  1  0  0  0  0
  4 29  1  0  0  0  0
  5  6  1  0  0  0  0
  5 30  1  0  0  0  0
  5 31  1  0  0  0  0
  6  7  1  0  0  0  0
  6 32  1  0  0  0  0
  6 33  1  0  0  0  0
  7  8  1  0  0  0  0
  7 34  1  0  0  0  0
  7 35  1  0  0  0  0
  8  9  1  0  0  0  0
  8 36  1  0  0  0  0
  8 37  1  0  0  0  0
  9 10  1  0  0  0  0
  9 19  1  0  0  0  0
 10 11  2  0  0  0  0
 10 16  1  0  0  0  0
 11 12  1  0  0  0  0
 11 38  1  0  0  0  0
 12 13  1  0  0  0  0
 12 14  2  0  0  0  0
 13 39  1  0  0  0  0
 13 40  1  0  0  0  0
 13 41  1  0  0  0  0
 14 15  1  0  0  0  0
 14 27  1  0  0  0  0
 15 16  2  0  0  0  0
 15 42  1  0  0  0  0
 16 17  1  0  0  0  0
 17 18  2  0  0  0  0
 18 19  1  0  0  0  0
 18 25  1  0  0  0  0
 19 20  2  0  0  0  0
 20 21  1  0  0  0  0
 21 22  2  0  0  0  0
 21 23  1  0  0  0  0
 23 24  1  0  0  0  0
 23 25  1  0  0  0  0
 25 26  2  0  0  0  0
 27 43  1  0  0  0  0
 27 44  1  0  0  0  0
 27 45  1  0  0  0  0
M  END
$$$$
