CFQ
 OpenBabel04121316093D

 40 40  0  0  1  0  0  0  0  0999 V2000
    0.9374    0.0539    0.0564 O   0  0  0  0  0  0  0  0  0  0  0  0
    2.2389    0.0539    0.0564 N   0  3  0  0  0  0  0  0  0  0  0  0
    2.8311   -0.9467    0.2822 O   0  0  0  0  0  0  0  0  0  0  0  0
    2.9372    1.2336   -0.2098 C   0  0  0  0  0  0  0  0  0  0  0  0
    2.4423    2.4731    0.2831 C   0  0  0  0  0  0  0  0  0  0  0  0
    2.9527    3.6742   -0.2361 C   0  0  0  0  0  0  0  0  0  0  0  0
    4.0422    3.6650   -0.9465 C   0  0  0  0  0  0  0  0  0  0  0  0
    4.7143    2.4591   -1.1863 C   0  0  0  0  0  0  0  0  0  0  0  0
    4.0580    1.2300   -0.9335 C   0  0  0  0  0  0  0  0  0  0  0  0
    4.6074   -0.0400   -1.4642 C   0  0  1  0  0  0  0  0  0  0  0  0
    4.6508    0.0090   -2.5322 H   0  0  0  0  0  0  0  0  0  0  0  0
    6.0057   -0.2580   -0.9097 C   0  0  0  0  0  0  0  0  0  0  0  0
    5.9517   -0.3189    0.4178 F   0  0  0  0  0  0  0  0  0  0  0  0
    6.4988   -1.3977   -1.3861 F   0  0  0  0  0  0  0  0  0  0  0  0
    6.7902    0.7517   -1.2757 F   0  0  0  0  0  0  0  0  0  0  0  0
    3.7698   -1.1180   -1.0735 O   0  0  0  0  0  0  0  0  0  0  0  0
    4.2962   -2.3348   -1.5820 C   0  0  0  0  0  0  0  0  0  0  0  0
    3.3996   -3.4888   -1.1638 C   0  0  0  0  0  0  0  0  0  0  0  0
    4.1225   -5.1597   -1.8622 As  0  3  0  0  0  0  0  0  0  0  0  0
    4.2017   -5.0706   -3.8085 C   0  0  0  0  0  0  0  0  0  0  0  0
    5.9165   -5.4395   -1.1508 C   0  0  0  0  0  0  0  0  0  0  0  0
    2.9723   -6.6401   -1.3255 C   0  0  0  0  0  0  0  0  0  0  0  0
    0.4689   -0.7377    0.2351 H   0  0  0  0  0  0  0  0  0  0  0  0
    1.7151    2.4895    1.0151 H   0  0  0  0  0  0  0  0  0  0  0  0
    2.4632    4.5642   -0.0538 H   0  0  0  0  0  0  0  0  0  0  0  0
    4.4121    4.5471   -1.3340 H   0  0  0  0  0  0  0  0  0  0  0  0
    5.6819    2.4667   -1.5450 H   0  0  0  0  0  0  0  0  0  0  0  0
    5.2806   -2.4883   -1.1917 H   0  0  0  0  0  0  0  0  0  0  0  0
    4.3396   -2.2859   -2.6500 H   0  0  0  0  0  0  0  0  0  0  0  0
    2.4153   -3.3353   -1.5541 H   0  0  0  0  0  0  0  0  0  0  0  0
    3.3562   -3.5377   -0.0958 H   0  0  0  0  0  0  0  0  0  0  0  0
    4.8328   -4.2582   -4.1029 H   0  0  0  0  0  0  0  0  0  0  0  0
    3.2173   -4.9170   -4.1988 H   0  0  0  0  0  0  0  0  0  0  0  0
    4.5983   -5.9875   -4.1917 H   0  0  0  0  0  0  0  0  0  0  0  0
    6.5476   -4.6272   -1.4453 H   0  0  0  0  0  0  0  0  0  0  0  0
    6.3131   -6.3564   -1.5340 H   0  0  0  0  0  0  0  0  0  0  0  0
    5.8730   -5.4884   -0.0828 H   0  0  0  0  0  0  0  0  0  0  0  0
    1.9880   -6.4866   -1.7159 H   0  0  0  0  0  0  0  0  0  0  0  0
    2.9289   -6.6891   -0.2575 H   0  0  0  0  0  0  0  0  0  0  0  0
    3.3690   -7.5570   -1.7088 H   0  0  0  0  0  0  0  0  0  0  0  0
  1  2  1  0  0  0  0
  1 23  1  0  0  0  0
  2  3  2  0  0  0  0
  2  4  1  0  0  0  0
  4  5  2  0  0  0  0
  4  9  1  0  0  0  0
  5  6  1  0  0  0  0
  5 24  1  0  0  0  0
  6  7  2  0  0  0  0
  6 25  1  0  0  0  0
  7  8  1  0  0  0  0
  7 26  1  0  0  0  0
  8  9  2  0  0  0  0
  8 27  1  0  0  0  0
  9 10  1  0  0  0  0
 10 11  1  6  0  0  0
 10 12  1  0  0  0  0
 10 16  1  0  0  0  0
 12 13  1  0  0  0  0
 12 14  1  0  0  0  0
 12 15  1  0  0  0  0
 16 17  1  0  0  0  0
 17 18  1  0  0  0  0
 17 28  1  0  0  0  0
 17 29  1  0  0  0  0
 18 19  1  0  0  0  0
 18 30  1  0  0  0  0
 18 31  1  0  0  0  0
 19 20  1  0  0  0  0
 19 21  1  0  0  0  0
 19 22  1  0  0  0  0
 20 32  1  0  0  0  0
 20 33  1  0  0  0  0
 20 34  1  0  0  0  0
 21 35  1  0  0  0  0
 21 36  1  0  0  0  0
 21 37  1  0  0  0  0
 22 38  1  0  0  0  0
 22 39  1  0  0  0  0
 22 40  1  0  0  0  0
M  CHG  2   2   1  19   1
M  END
$$$$
