CG
 OpenBabel04121316093D

 31 32  0  0  0  0  0  0  0  0999 V2000
    1.1354    0.0022   -0.0981 N   0  0  0  0  0  0  0  0  0  0  0  0
    2.4889   -0.0536   -0.0717 C   0  0  0  0  0  0  0  0  0  0  0  0
    3.0652   -1.0878    0.4456 N   0  0  0  0  0  0  0  0  0  0  0  0
    3.1680    1.0214   -0.6117 N   0  0  0  0  0  0  0  0  0  0  0  0
    4.5521    1.1081   -0.6072 N   0  0  0  0  0  0  0  0  0  0  0  0
    5.1607    2.1450   -1.0958 C   0  0  0  0  0  0  0  0  0  0  0  0
    4.5298    3.3601   -1.7274 C   0  0  0  0  0  0  0  0  0  0  0  0
    5.7031    4.2603   -2.0952 C   0  0  0  0  0  0  0  0  0  0  0  0
    6.9437    3.5595   -1.6591 C   0  0  0  0  0  0  0  0  0  0  0  0
    6.6371    2.3141   -1.0914 C   0  0  0  0  0  0  0  0  0  0  0  0
    7.6414    1.4783   -0.6233 C   0  0  0  0  0  0  0  0  0  0  0  0
    8.9705    1.9152   -0.7291 C   0  0  0  0  0  0  0  0  0  0  0  0
    9.2767    3.1681   -1.2913 C   0  0  0  0  0  0  0  0  0  0  0  0
    8.2667    4.0180   -1.7712 C   0  0  0  0  0  0  0  0  0  0  0  0
    8.6478    5.3546   -2.3660 C   0  0  0  0  0  0  0  0  0  0  0  0
    7.8443    6.2381   -2.8570 N   0  0  0  0  0  0  0  0  0  0  0  0
    9.9393    5.7685   -2.4389 N   0  0  0  0  0  0  0  0  0  0  0  0
    0.5946   -0.7615    0.2881 H   0  0  0  0  0  0  0  0  0  0  0  0
    0.6059    0.7721   -0.4739 H   0  0  0  0  0  0  0  0  0  0  0  0
    2.3708   -1.7513    0.7791 H   0  0  0  0  0  0  0  0  0  0  0  0
    2.6067    1.7840   -0.9672 H   0  0  0  0  0  0  0  0  0  0  0  0
    3.8712    3.8797   -1.0252 H   0  0  0  0  0  0  0  0  0  0  0  0
    3.9591    3.1065   -2.6257 H   0  0  0  0  0  0  0  0  0  0  0  0
    5.6136    5.2115   -1.5623 H   0  0  0  0  0  0  0  0  0  0  0  0
    5.7357    4.4053   -3.1798 H   0  0  0  0  0  0  0  0  0  0  0  0
    7.4200    0.5105   -0.1818 H   0  0  0  0  0  0  0  0  0  0  0  0
    9.7882    1.2889   -0.3727 H   0  0  0  0  0  0  0  0  0  0  0  0
   10.3246    3.4527   -1.3398 H   0  0  0  0  0  0  0  0  0  0  0  0
    6.8656    5.9810   -2.8282 H   0  0  0  0  0  0  0  0  0  0  0  0
   10.7500    5.2537   -2.1536 H   0  0  0  0  0  0  0  0  0  0  0  0
   10.0672    6.6748   -2.8735 H   0  0  0  0  0  0  0  0  0  0  0  0
  1  2  1  0  0  0  0
  1 18  1  0  0  0  0
  1 19  1  0  0  0  0
  2  3  2  0  0  0  0
  2  4  1  0  0  0  0
  3 20  1  0  0  0  0
  4  5  1  0  0  0  0
  4 21  1  0  0  0  0
  5  6  2  0  0  0  0
  6  7  1  0  0  0  0
  6 10  1  0  0  0  0
  7  8  1  0  0  0  0
  7 22  1  0  0  0  0
  7 23  1  0  0  0  0
  8  9  1  0  0  0  0
  8 24  1  0  0  0  0
  8 25  1  0  0  0  0
  9 10  2  0  0  0  0
  9 14  1  0  0  0  0
 10 11  1  0  0  0  0
 11 12  2  0  0  0  0
 11 26  1  0  0  0  0
 12 13  1  0  0  0  0
 12 27  1  0  0  0  0
 13 14  2  0  0  0  0
 13 28  1  0  0  0  0
 14 15  1  0  0  0  0
 15 16  2  0  0  0  0
 15 17  1  0  0  0  0
 16 29  1  0  0  0  0
 17 30  1  0  0  0  0
 17 31  1  0  0  0  0
M  END
$$$$
