CG3
 OpenBabel04121316093D

 16 16  0  0  0  0  0  0  0  0999 V2000
    0.9076   -0.0188    0.0088 O   0  0  0  0  0  0  0  0  0  0  0  0
    2.2841   -0.0723    0.0357 N   0  3  0  0  0  0  0  0  0  0  0  0
    2.7891   -1.1780    0.0350 O   0  0  0  0  0  0  0  0  0  0  0  0
    3.0633    1.1454    0.0284 C   0  0  0  0  0  0  0  0  0  0  0  0
    2.3821    2.3573    0.2298 C   0  0  0  0  0  0  0  0  0  0  0  0
    3.0435    3.5716    0.0533 C   0  0  0  0  0  0  0  0  0  0  0  0
    4.4105    3.5825   -0.2113 C   0  0  0  0  0  0  0  0  0  0  0  0
    5.1180    2.3807   -0.2942 C   0  0  0  0  0  0  0  0  0  0  0  0
    4.4365    1.1629   -0.2299 C   0  0  0  0  0  0  0  0  0  0  0  0
    5.1217    0.0050   -0.4507 O   0  0  0  0  0  0  0  0  0  0  0  0
    0.7532   -0.9768   -0.0243 H   0  0  0  0  0  0  0  0  0  0  0  0
    1.3287    2.3643    0.5014 H   0  0  0  0  0  0  0  0  0  0  0  0
    2.4904    4.5056    0.1193 H   0  0  0  0  0  0  0  0  0  0  0  0
    4.9254    4.5296   -0.3520 H   0  0  0  0  0  0  0  0  0  0  0  0
    6.1956    2.4141   -0.4263 H   0  0  0  0  0  0  0  0  0  0  0  0
    6.0427    0.1939   -0.6875 H   0  0  0  0  0  0  0  0  0  0  0  0
  1  2  1  0  0  0  0
  1 11  1  0  0  0  0
  2  3  2  0  0  0  0
  2  4  1  0  0  0  0
  4  5  2  0  0  0  0
  4  9  1  0  0  0  0
  5  6  1  0  0  0  0
  5 12  1  0  0  0  0
  6  7  2  0  0  0  0
  6 13  1  0  0  0  0
  7  8  1  0  0  0  0
  7 14  1  0  0  0  0
  8  9  2  0  0  0  0
  8 15  1  0  0  0  0
  9 10  1  0  0  0  0
 10 16  1  0  0  0  0
M  CHG  1   2   1
M  END
$$$$
