CGN
 OpenBabel04121316093D

 15 15  0  0  1  0  0  0  0  0999 V2000
    4.9029    1.1768    0.5974 O   0  0  0  0  0  0  0  0  0  0  0  0
    4.4131    0.0942    0.9129 C   0  0  0  0  0  0  0  0  0  0  0  0
    2.9454   -0.0831    1.2809 C   0  0  2  0  0  0  0  0  0  0  0  0
    2.3673   -0.1803    0.3576 H   0  0  0  0  0  0  0  0  0  0  0  0
    2.4739    1.0472    2.1793 C   0  0  0  0  0  0  0  0  0  0  0  0
    2.8472    0.5482    3.5743 C   0  0  0  0  0  0  0  0  0  0  0  0
    2.6327   -0.9369    3.4355 C   0  0  0  0  0  0  0  0  0  0  0  0
    2.4501   -1.7367    4.3365 O   0  0  0  0  0  0  0  0  0  0  0  0
    2.7257   -1.2528    2.0927 N   0  0  0  0  0  0  0  0  0  0  0  0
    5.0068   -0.8296    0.8178 H   0  0  0  0  0  0  0  0  0  0  0  0
    1.3835    1.1463    2.1068 H   0  0  0  0  0  0  0  0  0  0  0  0
    2.9187    2.0198    1.9533 H   0  0  0  0  0  0  0  0  0  0  0  0
    2.2107    0.9834    4.3459 H   0  0  0  0  0  0  0  0  0  0  0  0
    3.9033    0.7309    3.8002 H   0  0  0  0  0  0  0  0  0  0  0  0
    2.5737   -2.2021    1.7695 H   0  0  0  0  0  0  0  0  0  0  0  0
  1  2  2  0  0  0  0
  2 10  1  0  0  0  0
  3  5  1  0  0  0  0
  3  9  1  0  0  0  0
  3  4  1  6  0  0  0
  3  2  1  0  0  0  0
  5  6  1  0  0  0  0
  5 11  1  0  0  0  0
  5 12  1  0  0  0  0
  6  7  1  0  0  0  0
  6 13  1  0  0  0  0
  6 14  1  0  0  0  0
  7  8  2  0  0  0  0
  7  9  1  0  0  0  0
  9 15  1  0  0  0  0
M  END
$$$$
