CGS
 OpenBabel04121316093D

 50 51  0  0  1  0  0  0  0  0999 V2000
    5.4401    3.1051    0.6600 O   0  0  0  0  0  0  0  0  0  0  0  0
    4.8902    1.8337    0.4188 N   0  0  0  0  0  0  0  0  0  0  0  0
    5.0066    1.3388   -0.8539 C   0  0  0  0  0  0  0  0  0  0  0  0
    5.4188    2.0610   -1.7603 O   0  0  0  0  0  0  0  0  0  0  0  0
    4.5412   -0.1368   -1.0839 C   0  0  2  0  0  0  0  0  0  0  0  0
    3.4611   -0.1838   -0.8635 H   0  0  0  0  0  0  0  0  0  0  0  0
    5.2607   -1.2157   -0.1039 N   0  0  0  0  0  0  0  0  0  0  0  0
    7.1638   -1.2114    0.0481 S   0  0  0  0  0  0  0  0  0  0  0  0
    7.5358    0.1594    0.2157 O   0  0  0  0  0  0  0  0  0  0  0  0
    7.5014   -2.2053    1.0700 O   0  0  0  0  0  0  0  0  0  0  0  0
    8.0638   -1.9121   -1.4944 C   0  0  0  0  0  0  0  0  0  0  0  0
    8.6197   -1.0272   -2.4656 C   0  0  0  0  0  0  0  0  0  0  0  0
    8.5669   -1.3978   -3.8452 C   0  0  0  0  0  0  0  0  0  0  0  0
    8.1792   -2.6904   -4.2243 C   0  0  0  0  0  0  0  0  0  0  0  0
    7.8563   -3.6173   -3.2241 C   0  0  0  0  0  0  0  0  0  0  0  0
    7.7218   -3.2195   -1.8798 C   0  0  0  0  0  0  0  0  0  0  0  0
    7.9948   -2.9056   -5.5710 O   0  0  0  0  0  0  0  0  0  0  0  0
    7.8505   -4.2758   -5.9415 C   0  0  0  0  0  0  0  0  0  0  0  0
    4.6553   -0.9455    1.2541 C   0  0  0  0  0  0  0  0  0  0  0  0
    4.9608   -1.8576    2.3668 C   0  0  0  0  0  0  0  0  0  0  0  0
    5.7969   -1.4204    3.4041 C   0  0  0  0  0  0  0  0  0  0  0  0
    6.1718   -2.3204    4.3732 C   0  0  0  0  0  0  0  0  0  0  0  0
    5.7438   -3.6279    4.2182 C   0  0  0  0  0  0  0  0  0  0  0  0
    4.8760   -4.0573    3.2680 N   0  0  0  0  0  0  0  0  0  0  0  0
    4.4758   -3.1463    2.3710 C   0  0  0  0  0  0  0  0  0  0  0  0
    4.6200   -0.5982   -2.5545 C   0  0  0  0  0  0  0  0  0  0  0  0
    4.1590    0.2474   -3.7149 C   0  0  0  0  0  0  0  0  0  0  0  0
    6.0432   -0.5885   -2.8334 C   0  0  0  0  0  0  0  0  0  0  0  0
    5.5168    3.1306    1.6293 H   0  0  0  0  0  0  0  0  0  0  0  0
    4.2806    1.4694    1.1318 H   0  0  0  0  0  0  0  0  0  0  0  0
    8.7191    0.0377   -2.2441 H   0  0  0  0  0  0  0  0  0  0  0  0
    8.5406   -0.6126   -4.6156 H   0  0  0  0  0  0  0  0  0  0  0  0
    7.5793   -4.6347   -3.4775 H   0  0  0  0  0  0  0  0  0  0  0  0
    7.1877   -3.8751   -1.1953 H   0  0  0  0  0  0  0  0  0  0  0  0
    7.8895   -4.3640   -7.0313 H   0  0  0  0  0  0  0  0  0  0  0  0
    6.8849   -4.6768   -5.6102 H   0  0  0  0  0  0  0  0  0  0  0  0
    8.6806   -4.8589   -5.5308 H   0  0  0  0  0  0  0  0  0  0  0  0
    3.5632   -0.8121    1.1898 H   0  0  0  0  0  0  0  0  0  0  0  0
    5.0715   -0.0133    1.6064 H   0  0  0  0  0  0  0  0  0  0  0  0
    6.2163   -0.4136    3.4096 H   0  0  0  0  0  0  0  0  0  0  0  0
    6.8145   -2.0185    5.1896 H   0  0  0  0  0  0  0  0  0  0  0  0
    6.1119   -4.4027    4.8782 H   0  0  0  0  0  0  0  0  0  0  0  0
    3.7610   -3.4727    1.6212 H   0  0  0  0  0  0  0  0  0  0  0  0
    4.2905   -1.6464   -2.6589 H   0  0  0  0  0  0  0  0  0  0  0  0
    4.6015    1.2456   -3.6801 H   0  0  0  0  0  0  0  0  0  0  0  0
    3.0839    0.2961   -3.7725 H   0  0  0  0  0  0  0  0  0  0  0  0
    4.5545   -0.1806   -4.6540 H   0  0  0  0  0  0  0  0  0  0  0  0
    6.5720    0.3406   -2.5957 H   0  0  0  0  0  0  0  0  0  0  0  0
    6.2777   -0.9456   -3.8215 H   0  0  0  0  0  0  0  0  0  0  0  0
    6.2732   -1.3617   -2.1595 H   0  0  0  0  0  0  0  0  0  0  0  0
  1  2  1  0  0  0  0
  1 29  1  0  0  0  0
  2  3  1  0  0  0  0
  2 30  1  0  0  0  0
  3  4  2  0  0  0  0
  5  7  1  0  0  0  0
  5 26  1  0  0  0  0
  5  6  1  1  0  0  0
  5  3  1  0  0  0  0
  7  8  1  0  0  0  0
  7 19  1  0  0  0  0
  8  9  2  0  0  0  0
  8 10  2  0  0  0  0
  8 11  1  0  0  0  0
 11 12  2  0  0  0  0
 11 16  1  0  0  0  0
 12 13  1  0  0  0  0
 12 31  1  0  0  0  0
 13 14  2  0  0  0  0
 13 32  1  0  0  0  0
 14 15  1  0  0  0  0
 14 17  1  0  0  0  0
 15 16  2  0  0  0  0
 15 33  1  0  0  0  0
 16 34  1  0  0  0  0
 17 18  1  0  0  0  0
 18 35  1  0  0  0  0
 18 36  1  0  0  0  0
 18 37  1  0  0  0  0
 19 20  1  0  0  0  0
 19 38  1  0  0  0  0
 19 39  1  0  0  0  0
 20 21  2  0  0  0  0
 20 25  1  0  0  0  0
 21 22  1  0  0  0  0
 21 40  1  0  0  0  0
 22 23  2  0  0  0  0
 22 41  1  0  0  0  0
 23 24  1  0  0  0  0
 23 42  1  0  0  0  0
 24 25  2  0  0  0  0
 25 43  1  0  0  0  0
 26 27  1  0  0  0  0
 26 28  1  0  0  0  0
 26 44  1  0  0  0  0
 27 45  1  0  0  0  0
 27 46  1  0  0  0  0
 27 47  1  0  0  0  0
 28 48  1  0  0  0  0
 28 49  1  0  0  0  0
 28 50  1  0  0  0  0
M  END
$$$$
