CI9
 OpenBabel04121316093D

 98 99  0  0  1  0  0  0  0  0999 V2000
    2.9892   -3.1337    1.1753 O   0  0  0  0  0  0  0  0  0  0  0  0
    2.4105   -2.7747    2.1760 C   0  0  0  0  0  0  0  0  0  0  0  0
    3.0712   -2.3995    3.2836 N   0  0  0  0  0  0  0  0  0  0  0  0
    4.5412   -2.2499    3.2384 C   0  0  2  0  0  0  0  0  0  0  0  0
    4.7623   -1.2426    2.8530 H   0  0  0  0  0  0  0  0  0  0  0  0
    5.3819   -3.2629    2.3736 C   0  0  0  0  0  0  0  0  0  0  0  0
    6.1373   -4.1120    2.8281 O   0  0  0  0  0  0  0  0  0  0  0  0
    5.2824   -3.1005    1.0364 O   0  0  0  0  0  0  0  0  0  0  0  0
    5.0610   -2.3430    4.6779 C   0  0  0  0  0  0  0  0  0  0  0  0
    4.6762   -3.6820    5.3349 C   0  0  0  0  0  0  0  0  0  0  0  0
    5.2506   -3.7767    6.7186 C   0  0  0  0  0  0  0  0  0  0  0  0
    5.8844   -2.8888    7.2653 O   0  0  0  0  0  0  0  0  0  0  0  0
    4.9662   -4.9491    7.3270 O   0  0  0  0  0  0  0  0  0  0  0  0
    1.0705   -2.7412    2.1827 N   0  0  0  0  0  0  0  0  0  0  0  0
    0.3728   -3.3061    1.0077 C   0  0  2  0  0  0  0  0  0  0  0  0
    0.7424   -4.3318    0.8576 H   0  0  0  0  0  0  0  0  0  0  0  0
    0.5991   -2.5267   -0.3415 C   0  0  0  0  0  0  0  0  0  0  0  0
   -0.3002   -2.0906   -1.0498 O   0  0  0  0  0  0  0  0  0  0  0  0
    1.8749   -2.4086   -0.7599 O   0  0  0  0  0  0  0  0  0  0  0  0
   -1.1215   -3.3805    1.2899 C   0  0  0  0  0  0  0  0  0  0  0  0
   -1.6634   -1.9787    1.5476 C   0  0  0  0  0  0  0  0  0  0  0  0
   -3.1482   -2.0225    1.7587 C   0  0  0  0  0  0  0  0  0  0  0  0
   -3.6518   -0.6104    1.9847 C   0  0  0  0  0  0  0  0  0  0  0  0
   -5.0707   -0.5982    2.2088 N   0  0  0  0  0  0  0  0  0  0  0  0
   -5.6745   -1.5832    2.8960 N   0  0  0  0  0  0  0  0  0  0  0  0
   -6.9747   -1.3375    2.8756 N   0  0  0  0  0  0  0  0  0  0  0  0
   -7.1636   -0.1655    2.1977 C   0  0  0  0  0  0  0  0  0  0  0  0
   -5.9515    0.3217    1.7655 C   0  0  0  0  0  0  0  0  0  0  0  0
   -8.4993    0.4229    2.0146 C   0  0  0  0  0  0  0  0  0  0  0  0
   -8.3823    1.6507    1.2972 O   0  0  0  0  0  0  0  0  0  0  0  0
   -9.6449    2.2568    1.1060 C   0  0  0  0  0  0  0  0  0  0  0  0
   -9.4354    3.5467    0.3405 C   0  0  0  0  0  0  0  0  0  0  0  0
  -10.6989    4.1640    0.1443 O   0  0  0  0  0  0  0  0  0  0  0  0
  -10.5458    5.3806   -0.5733 C   0  0  0  0  0  0  0  0  0  0  0  0
  -11.9116    6.0016   -0.7599 C   0  0  0  0  0  0  0  0  0  0  0  0
  -11.7600    7.2185   -1.4755 O   0  0  0  0  0  0  0  0  0  0  0  0
  -13.0277    7.8230   -1.6664 C   0  0  0  0  0  0  0  0  0  0  0  0
  -12.8367    9.1083   -2.4284 C   0  0  0  0  0  0  0  0  0  0  0  0
  -14.1200    9.6865   -2.6033 O   0  0  0  0  0  0  0  0  0  0  0  0
  -13.9941   10.8942   -3.3202 C   0  0  0  0  0  0  0  0  0  0  0  0
  -15.3673   11.5082   -3.5002 C   0  0  0  0  0  0  0  0  0  0  0  0
  -15.1791   12.7360   -4.2645 N   0  0  0  0  0  0  0  0  0  0  0  0
  -16.2656   13.5793   -4.5268 C   0  0  0  0  0  0  0  0  0  0  0  0
  -17.5516   13.1693   -4.1187 C   0  0  0  0  0  0  0  0  0  0  0  0
  -18.7199   13.7495   -4.6047 C   0  0  0  0  0  0  0  0  0  0  0  0
  -18.6698   14.8689   -5.4236 C   0  0  0  0  0  0  0  0  0  0  0  0
  -17.3891   15.3945   -5.6755 C   0  0  0  0  0  0  0  0  0  0  0  0
  -16.1727   14.7452   -5.3392 C   0  0  0  0  0  0  0  0  0  0  0  0
  -14.9372   15.2833   -5.8612 N   0  0  0  0  0  0  0  0  0  0  0  0
  -14.8481   16.3648   -6.7371 O   0  0  0  0  0  0  0  0  0  0  0  0
  -13.7066   14.7037   -5.6125 O   0  0  0  0  0  0  0  0  0  0  0  0
  -19.8519   15.4673   -5.9579 N   0  0  0  0  0  0  0  0  0  0  0  0
  -21.1093   14.8775   -5.8602 O   0  0  0  0  0  0  0  0  0  0  0  0
  -19.8322   16.5190   -6.8695 O   0  0  0  0  0  0  0  0  0  0  0  0
    2.5667   -1.9206    4.0200 H   0  0  0  0  0  0  0  0  0  0  0  0
    4.4210   -2.6811    0.8147 H   0  0  0  0  0  0  0  0  0  0  0  0
    4.6558   -1.5160    5.2766 H   0  0  0  0  0  0  0  0  0  0  0  0
    6.1519   -2.2194    4.6810 H   0  0  0  0  0  0  0  0  0  0  0  0
    5.0523   -4.5354    4.7658 H   0  0  0  0  0  0  0  0  0  0  0  0
    3.5865   -3.7752    5.3950 H   0  0  0  0  0  0  0  0  0  0  0  0
    4.4805   -5.5907    6.7742 H   0  0  0  0  0  0  0  0  0  0  0  0
    0.5622   -2.5602    3.0385 H   0  0  0  0  0  0  0  0  0  0  0  0
    2.4911   -2.8925   -0.1659 H   0  0  0  0  0  0  0  0  0  0  0  0
   -1.3184   -4.0219    2.1594 H   0  0  0  0  0  0  0  0  0  0  0  0
   -1.6356   -3.8410    0.4358 H   0  0  0  0  0  0  0  0  0  0  0  0
   -1.4597   -1.3034    0.7132 H   0  0  0  0  0  0  0  0  0  0  0  0
   -1.1808   -1.5290    2.4215 H   0  0  0  0  0  0  0  0  0  0  0  0
   -3.3656   -2.6598    2.6229 H   0  0  0  0  0  0  0  0  0  0  0  0
   -3.6441   -2.4663    0.8863 H   0  0  0  0  0  0  0  0  0  0  0  0
   -3.4383    0.0189    1.1101 H   0  0  0  0  0  0  0  0  0  0  0  0
   -3.1774   -0.1471    2.8568 H   0  0  0  0  0  0  0  0  0  0  0  0
   -5.6822    1.2050    1.2048 H   0  0  0  0  0  0  0  0  0  0  0  0
   -8.9479    0.6149    2.9952 H   0  0  0  0  0  0  0  0  0  0  0  0
   -9.1337   -0.2708    1.4527 H   0  0  0  0  0  0  0  0  0  0  0  0
  -10.1126    2.4648    2.0746 H   0  0  0  0  0  0  0  0  0  0  0  0
  -10.3026    1.5860    0.5424 H   0  0  0  0  0  0  0  0  0  0  0  0
   -8.9604    3.3386   -0.6263 H   0  0  0  0  0  0  0  0  0  0  0  0
   -8.7703    4.2146    0.9018 H   0  0  0  0  0  0  0  0  0  0  0  0
  -10.0847    5.1902   -1.5497 H   0  0  0  0  0  0  0  0  0  0  0  0
   -9.8946    6.0679   -0.0202 H   0  0  0  0  0  0  0  0  0  0  0  0
  -12.3745    6.1937    0.2155 H   0  0  0  0  0  0  0  0  0  0  0  0
  -12.5642    5.3168   -1.3146 H   0  0  0  0  0  0  0  0  0  0  0  0
  -13.5019    8.0333   -0.7000 H   0  0  0  0  0  0  0  0  0  0  0  0
  -13.6912    7.1553   -2.2291 H   0  0  0  0  0  0  0  0  0  0  0  0
  -12.3711    8.9130   -3.4022 H   0  0  0  0  0  0  0  0  0  0  0  0
  -12.1830    9.7916   -1.8722 H   0  0  0  0  0  0  0  0  0  0  0  0
  -13.5392   10.7137   -4.3016 H   0  0  0  0  0  0  0  0  0  0  0  0
  -13.3505   11.5906   -2.7664 H   0  0  0  0  0  0  0  0  0  0  0  0
  -15.8057   11.6933   -2.5089 H   0  0  0  0  0  0  0  0  0  0  0  0
  -16.0226   10.8059   -4.0332 H   0  0  0  0  0  0  0  0  0  0  0  0
  -14.2944   13.1633   -4.0216 H   0  0  0  0  0  0  0  0  0  0  0  0
  -17.6903   12.3510   -3.4167 H   0  0  0  0  0  0  0  0  0  0  0  0
  -19.6478   13.2785   -4.3028 H   0  0  0  0  0  0  0  0  0  0  0  0
  -17.3340   16.3606   -6.1458 H   0  0  0  0  0  0  0  0  0  0  0  0
  -15.7469   16.6699   -6.8908 H   0  0  0  0  0  0  0  0  0  0  0  0
  -13.9490   13.7778   -5.4888 H   0  0  0  0  0  0  0  0  0  0  0  0
  -21.0025   14.1180   -5.2761 H   0  0  0  0  0  0  0  0  0  0  0  0
  -18.9094   16.7757   -6.9656 H   0  0  0  0  0  0  0  0  0  0  0  0
  1  2  2  0  0  0  0
  2  3  1  0  0  0  0
  2 14  1  0  0  0  0
  3 55  1  0  0  0  0
  4  6  1  0  0  0  0
  4  9  1  0  0  0  0
  4  5  1  6  0  0  0
  4  3  1  0  0  0  0
  6  7  2  0  0  0  0
  6  8  1  0  0  0  0
  8 56  1  0  0  0  0
  9 10  1  0  0  0  0
  9 57  1  0  0  0  0
  9 58  1  0  0  0  0
 10 11  1  0  0  0  0
 10 59  1  0  0  0  0
 10 60  1  0  0  0  0
 11 12  2  0  0  0  0
 11 13  1  0  0  0  0
 13 61  1  0  0  0  0
 14 62  1  0  0  0  0
 15 17  1  0  0  0  0
 15 20  1  0  0  0  0
 15 16  1  6  0  0  0
 15 14  1  0  0  0  0
 17 18  2  0  0  0  0
 17 19  1  0  0  0  0
 19 63  1  0  0  0  0
 20 21  1  0  0  0  0
 20 64  1  0  0  0  0
 20 65  1  0  0  0  0
 21 22  1  0  0  0  0
 21 66  1  0  0  0  0
 21 67  1  0  0  0  0
 22 23  1  0  0  0  0
 22 68  1  0  0  0  0
 22 69  1  0  0  0  0
 23 24  1  0  0  0  0
 23 70  1  0  0  0  0
 23 71  1  0  0  0  0
 24 25  1  0  0  0  0
 24 28  1  0  0  0  0
 25 26  2  0  0  0  0
 26 27  1  0  0  0  0
 27 28  2  0  0  0  0
 27 29  1  0  0  0  0
 28 72  1  0  0  0  0
 29 30  1  0  0  0  0
 29 73  1  0  0  0  0
 29 74  1  0  0  0  0
 30 31  1  0  0  0  0
 31 32  1  0  0  0  0
 31 75  1  0  0  0  0
 31 76  1  0  0  0  0
 32 33  1  0  0  0  0
 32 77  1  0  0  0  0
 32 78  1  0  0  0  0
 33 34  1  0  0  0  0
 34 35  1  0  0  0  0
 34 79  1  0  0  0  0
 34 80  1  0  0  0  0
 35 36  1  0  0  0  0
 35 81  1  0  0  0  0
 35 82  1  0  0  0  0
 36 37  1  0  0  0  0
 37 38  1  0  0  0  0
 37 83  1  0  0  0  0
 37 84  1  0  0  0  0
 38 39  1  0  0  0  0
 38 85  1  0  0  0  0
 38 86  1  0  0  0  0
 39 40  1  0  0  0  0
 40 41  1  0  0  0  0
 40 87  1  0  0  0  0
 40 88  1  0  0  0  0
 41 42  1  0  0  0  0
 41 89  1  0  0  0  0
 41 90  1  0  0  0  0
 42 43  1  0  0  0  0
 42 91  1  0  0  0  0
 43 44  2  0  0  0  0
 43 48  1  0  0  0  0
 44 45  1  0  0  0  0
 44 92  1  0  0  0  0
 45 46  2  0  0  0  0
 45 93  1  0  0  0  0
 46 47  1  0  0  0  0
 46 52  1  0  0  0  0
 47 48  2  0  0  0  0
 47 94  1  0  0  0  0
 48 49  1  0  0  0  0
 49 50  1  0  0  0  0
 49 51  1  0  0  0  0
 50 95  1  0  0  0  0
 51 96  1  0  0  0  0
 52 53  1  0  0  0  0
 52 54  1  0  0  0  0
 53 97  1  0  0  0  0
 54 98  1  0  0  0  0
M  END
$$$$
