CIO
 OpenBabel04121316093D

 50 52  0  0  1  0  0  0  0  0999 V2000
    4.5129    0.5375    2.5272 N   0  0  0  0  0  0  0  0  0  0  0  0
    4.1456    0.2410    1.4735 C   0  0  0  0  0  0  0  0  0  0  0  0
    3.6039   -0.0972    0.1242 C   0  0  2  0  0  0  0  0  0  0  0  0
    4.1267   -1.4843   -0.2972 C   0  0  0  0  0  0  0  0  0  0  0  0
    3.8209   -1.8354   -1.7755 C   0  0  0  0  0  0  0  0  0  0  0  0
    4.3292   -0.7768   -2.7430 C   0  0  1  0  0  0  0  0  0  0  0  0
    3.9728   -1.0518   -3.7444 H   0  0  0  0  0  0  0  0  0  0  0  0
    3.7546    0.5950   -2.3567 C   0  0  0  0  0  0  0  0  0  0  0  0
    4.1119    0.9638   -0.9097 C   0  0  0  0  0  0  0  0  0  0  0  0
    5.8467   -0.8322   -2.7415 C   0  0  0  0  0  0  0  0  0  0  0  0
    6.5091   -1.5817   -2.0401 O   0  0  0  0  0  0  0  0  0  0  0  0
    6.4279    0.0242   -3.5981 O   0  0  0  0  0  0  0  0  0  0  0  0
    2.0749   -0.0943    0.1760 C   0  0  0  0  0  0  0  0  0  0  0  0
    1.2915   -1.1601   -0.2645 C   0  0  0  0  0  0  0  0  0  0  0  0
   -0.0710   -1.0484   -0.4326 C   0  0  0  0  0  0  0  0  0  0  0  0
   -0.7083    0.1455   -0.1397 C   0  0  0  0  0  0  0  0  0  0  0  0
    0.0316    1.1879    0.4299 C   0  0  0  0  0  0  0  0  0  0  0  0
    1.4026    1.0305    0.6405 C   0  0  0  0  0  0  0  0  0  0  0  0
   -0.6492    2.3345    0.7284 O   0  0  0  0  0  0  0  0  0  0  0  0
    0.1055    3.3861    1.3089 C   0  0  0  0  0  0  0  0  0  0  0  0
   -0.6725    4.6807    1.1724 C   0  0  0  0  0  0  0  0  0  0  0  0
   -0.0985    5.5398    2.2812 C   0  0  0  0  0  0  0  0  0  0  0  0
    0.1413    4.5722    3.4349 C   0  0  0  0  0  0  0  0  0  0  0  0
    0.2582    3.1867    2.8167 C   0  0  0  0  0  0  0  0  0  0  0  0
   -2.0439    0.3508   -0.3556 O   0  0  0  0  0  0  0  0  0  0  0  0
   -2.7220   -0.7376   -0.9699 C   0  0  0  0  0  0  0  0  0  0  0  0
    3.7321   -2.2630    0.3677 H   0  0  0  0  0  0  0  0  0  0  0  0
    5.2084   -1.5085   -0.1269 H   0  0  0  0  0  0  0  0  0  0  0  0
    2.7595   -1.9090   -2.0137 H   0  0  0  0  0  0  0  0  0  0  0  0
    4.2127   -2.8332   -1.9922 H   0  0  0  0  0  0  0  0  0  0  0  0
    2.6594    0.5899   -2.4636 H   0  0  0  0  0  0  0  0  0  0  0  0
    4.1098    1.3702   -3.0445 H   0  0  0  0  0  0  0  0  0  0  0  0
    3.7227    1.9670   -0.6873 H   0  0  0  0  0  0  0  0  0  0  0  0
    5.2056    1.0576   -0.8450 H   0  0  0  0  0  0  0  0  0  0  0  0
    5.8044    0.5392   -4.1391 H   0  0  0  0  0  0  0  0  0  0  0  0
    1.6942   -2.1321   -0.5138 H   0  0  0  0  0  0  0  0  0  0  0  0
   -0.5819   -1.9278   -0.8044 H   0  0  0  0  0  0  0  0  0  0  0  0
    1.9849    1.7780    1.1684 H   0  0  0  0  0  0  0  0  0  0  0  0
    1.0714    3.5378    0.8076 H   0  0  0  0  0  0  0  0  0  0  0  0
   -1.7447    4.5063    1.3104 H   0  0  0  0  0  0  0  0  0  0  0  0
   -0.5387    5.1246    0.1796 H   0  0  0  0  0  0  0  0  0  0  0  0
   -0.7800    6.3466    2.5607 H   0  0  0  0  0  0  0  0  0  0  0  0
    0.8506    5.9890    1.9646 H   0  0  0  0  0  0  0  0  0  0  0  0
   -0.7053    4.5883    4.1289 H   0  0  0  0  0  0  0  0  0  0  0  0
    1.0402    4.8353    4.0011 H   0  0  0  0  0  0  0  0  0  0  0  0
   -0.5160    2.5166    3.2104 H   0  0  0  0  0  0  0  0  0  0  0  0
    1.2201    2.7266    3.0692 H   0  0  0  0  0  0  0  0  0  0  0  0
   -3.7649   -0.4536   -1.1054 H   0  0  0  0  0  0  0  0  0  0  0  0
   -2.6934   -1.6244   -0.3254 H   0  0  0  0  0  0  0  0  0  0  0  0
   -2.2962   -0.9587   -1.9571 H   0  0  0  0  0  0  0  0  0  0  0  0
  1  2  3  0  0  0  0
  3  4  1  0  0  0  0
  3  9  1  0  0  0  0
  3 13  1  1  0  0  0
  3  2  1  0  0  0  0
  4  5  1  0  0  0  0
  4 27  1  0  0  0  0
  4 28  1  0  0  0  0
  5  6  1  0  0  0  0
  5 29  1  0  0  0  0
  5 30  1  0  0  0  0
  6  7  1  6  0  0  0
  6  8  1  0  0  0  0
  6 10  1  0  0  0  0
  8  9  1  0  0  0  0
  8 31  1  0  0  0  0
  8 32  1  0  0  0  0
  9 33  1  0  0  0  0
  9 34  1  0  0  0  0
 10 11  2  0  0  0  0
 10 12  1  0  0  0  0
 12 35  1  0  0  0  0
 13 14  2  0  0  0  0
 13 18  1  0  0  0  0
 14 15  1  0  0  0  0
 14 36  1  0  0  0  0
 15 16  2  0  0  0  0
 15 37  1  0  0  0  0
 16 17  1  0  0  0  0
 16 25  1  0  0  0  0
 17 18  2  0  0  0  0
 17 19  1  0  0  0  0
 18 38  1  0  0  0  0
 19 20  1  0  0  0  0
 20 21  1  0  0  0  0
 20 24  1  0  0  0  0
 20 39  1  0  0  0  0
 21 22  1  0  0  0  0
 21 40  1  0  0  0  0
 21 41  1  0  0  0  0
 22 23  1  0  0  0  0
 22 42  1  0  0  0  0
 22 43  1  0  0  0  0
 23 24  1  0  0  0  0
 23 44  1  0  0  0  0
 23 45  1  0  0  0  0
 24 46  1  0  0  0  0
 24 47  1  0  0  0  0
 25 26  1  0  0  0  0
 26 48  1  0  0  0  0
 26 49  1  0  0  0  0
 26 50  1  0  0  0  0
M  END
$$$$
