CJZ
 OpenBabel04121316093D

 28 29  0  0  0  0  0  0  0  0999 V2000
    0.6402   -0.1013    0.3610 O   0  0  0  0  0  0  0  0  0  0  0  0
    1.8532    0.3163   -0.0584 C   0  0  0  0  0  0  0  0  0  0  0  0
    2.1022    0.4671   -1.2397 O   0  0  0  0  0  0  0  0  0  0  0  0
    2.7305    0.9241    0.9847 C   0  0  0  0  0  0  0  0  0  0  0  0
    2.4406    2.2948    1.0110 C   0  0  0  0  0  0  0  0  0  0  0  0
    3.2315    3.1866    1.7129 C   0  0  0  0  0  0  0  0  0  0  0  0
    4.2622    2.7098    2.5062 C   0  0  0  0  0  0  0  0  0  0  0  0
    4.5279    1.3358    2.5576 C   0  0  0  0  0  0  0  0  0  0  0  0
    3.8400    0.4113    1.7245 C   0  0  0  0  0  0  0  0  0  0  0  0
    4.3638   -0.9168    1.7191 N   0  0  0  0  0  0  0  0  0  0  0  0
    4.2107   -1.9486    0.7749 C   0  0  0  0  0  0  0  0  0  0  0  0
    4.4093   -3.2886    1.0914 C   0  0  0  0  0  0  0  0  0  0  0  0
    4.0165   -4.2780    0.1744 C   0  0  0  0  0  0  0  0  0  0  0  0
    4.4438   -5.9204    0.4690 Cl  0  0  0  0  0  0  0  0  0  0  0  0
    3.3172   -3.9503   -0.9913 C   0  0  0  0  0  0  0  0  0  0  0  0
    3.1513   -2.6243   -1.3183 C   0  0  0  0  0  0  0  0  0  0  0  0
    3.7526   -1.6717   -0.5060 C   0  0  0  0  0  0  0  0  0  0  0  0
    2.2527   -2.1619   -2.7166 Cl  0  0  0  0  0  0  0  0  0  0  0  0
    2.8687   -4.8964   -1.8709 O   0  0  0  0  0  0  0  0  0  0  0  0
    0.4544    0.0233    1.3049 H   0  0  0  0  0  0  0  0  0  0  0  0
    1.6161    2.6684    0.4045 H   0  0  0  0  0  0  0  0  0  0  0  0
    3.0336    4.2491    1.6231 H   0  0  0  0  0  0  0  0  0  0  0  0
    4.8672    3.4156    3.0715 H   0  0  0  0  0  0  0  0  0  0  0  0
    5.3176    1.0098    3.2357 H   0  0  0  0  0  0  0  0  0  0  0  0
    5.1720   -1.0534    2.3263 H   0  0  0  0  0  0  0  0  0  0  0  0
    4.8898   -3.5710    2.0243 H   0  0  0  0  0  0  0  0  0  0  0  0
    3.8885   -0.6629   -0.8716 H   0  0  0  0  0  0  0  0  0  0  0  0
    3.2397   -5.7516   -1.6021 H   0  0  0  0  0  0  0  0  0  0  0  0
  1  2  1  0  0  0  0
  1 20  1  0  0  0  0
  2  3  2  0  0  0  0
  2  4  1  0  0  0  0
  4  5  2  0  0  0  0
  4  9  1  0  0  0  0
  5  6  1  0  0  0  0
  5 21  1  0  0  0  0
  6  7  2  0  0  0  0
  6 22  1  0  0  0  0
  7  8  1  0  0  0  0
  7 23  1  0  0  0  0
  8  9  2  0  0  0  0
  8 24  1  0  0  0  0
  9 10  1  0  0  0  0
 10 11  1  0  0  0  0
 10 25  1  0  0  0  0
 11 12  2  0  0  0  0
 11 17  1  0  0  0  0
 12 13  1  0  0  0  0
 12 26  1  0  0  0  0
 13 14  1  0  0  0  0
 13 15  2  0  0  0  0
 15 16  1  0  0  0  0
 15 19  1  0  0  0  0
 16 17  2  0  0  0  0
 16 18  1  0  0  0  0
 17 27  1  0  0  0  0
 19 28  1  0  0  0  0
M  END
$$$$
