CK7
 OpenBabel04121316093D

 35 37  0  0  0  0  0  0  0  0999 V2000
    1.2040    0.2323    0.0897 N   0  0  0  0  0  0  0  0  0  0  0  0
    2.5440    0.1397    0.1262 C   0  0  0  0  0  0  0  0  0  0  0  0
    3.4816    1.0623    0.0166 N   0  0  0  0  0  0  0  0  0  0  0  0
    4.7592    0.4499    0.0276 C   0  0  0  0  0  0  0  0  0  0  0  0
    4.7393   -0.9348    0.0816 C   0  0  0  0  0  0  0  0  0  0  0  0
    3.1399   -1.4141    0.4490 S   0  0  0  0  0  0  0  0  0  0  0  0
    5.8049   -1.9413    0.0531 C   0  0  0  0  0  0  0  0  0  0  0  0
    7.1427   -1.7062    0.0988 C   0  0  0  0  0  0  0  0  0  0  0  0
    7.9069   -2.7971    0.4290 C   0  0  0  0  0  0  0  0  0  0  0  0
    7.4739   -4.0743    0.3887 N   0  0  0  0  0  0  0  0  0  0  0  0
    6.1822   -4.2301    0.1159 C   0  0  0  0  0  0  0  0  0  0  0  0
    5.3597   -3.1915    0.0718 N   0  0  0  0  0  0  0  0  0  0  0  0
    5.6419   -5.4934   -0.1394 N   0  0  0  0  0  0  0  0  0  0  0  0
    4.3391   -5.8018   -0.5832 C   0  0  0  0  0  0  0  0  0  0  0  0
    3.9189   -7.1243   -0.7061 C   0  0  0  0  0  0  0  0  0  0  0  0
    2.5909   -7.4239   -1.0606 C   0  0  0  0  0  0  0  0  0  0  0  0
    1.6887   -6.4163   -1.4150 C   0  0  0  0  0  0  0  0  0  0  0  0
    2.0941   -5.0978   -1.3109 C   0  0  0  0  0  0  0  0  0  0  0  0
    3.3612   -4.8215   -0.8201 C   0  0  0  0  0  0  0  0  0  0  0  0
    1.2183   -4.0072   -1.7627 N   0  3  0  0  0  0  0  0  0  0  0  0
    0.0895   -4.2929   -2.1497 O   0  0  0  0  0  0  0  0  0  0  0  0
    1.6771   -2.8464   -1.7683 O   0  5  0  0  0  0  0  0  0  0  0  0
    6.0392    1.2187    0.0144 C   0  0  0  0  0  0  0  0  0  0  0  0
    0.6653    1.0758   -0.0282 H   0  0  0  0  0  0  0  0  0  0  0  0
    0.6846   -0.6412    0.0264 H   0  0  0  0  0  0  0  0  0  0  0  0
    7.6007   -0.7428   -0.0085 H   0  0  0  0  0  0  0  0  0  0  0  0
    8.9171   -2.6391    0.7909 H   0  0  0  0  0  0  0  0  0  0  0  0
    6.3697   -6.1837   -0.2515 H   0  0  0  0  0  0  0  0  0  0  0  0
    4.6113   -7.9395   -0.5116 H   0  0  0  0  0  0  0  0  0  0  0  0
    2.2558   -8.4567   -1.0696 H   0  0  0  0  0  0  0  0  0  0  0  0
    0.6922   -6.6595   -1.7642 H   0  0  0  0  0  0  0  0  0  0  0  0
    3.5609   -3.7846   -0.6431 H   0  0  0  0  0  0  0  0  0  0  0  0
    5.9584    2.3010    0.0585 H   0  0  0  0  0  0  0  0  0  0  0  0
    6.6152    0.9543   -0.8825 H   0  0  0  0  0  0  0  0  0  0  0  0
    6.6364    0.9109    0.8874 H   0  0  0  0  0  0  0  0  0  0  0  0
  1  2  1  0  0  0  0
  1 24  1  0  0  0  0
  1 25  1  0  0  0  0
  2  3  2  0  0  0  0
  2  6  1  0  0  0  0
  3  4  1  0  0  0  0
  4  5  2  0  0  0  0
  4 23  1  0  0  0  0
  5  6  1  0  0  0  0
  5  7  1  0  0  0  0
  7  8  2  0  0  0  0
  7 12  1  0  0  0  0
  8  9  1  0  0  0  0
  8 26  1  0  0  0  0
  9 10  2  0  0  0  0
  9 27  1  0  0  0  0
 10 11  1  0  0  0  0
 11 12  2  0  0  0  0
 11 13  1  0  0  0  0
 13 14  1  0  0  0  0
 13 28  1  0  0  0  0
 14 15  2  0  0  0  0
 14 19  1  0  0  0  0
 15 16  1  0  0  0  0
 15 29  1  0  0  0  0
 16 17  2  0  0  0  0
 16 30  1  0  0  0  0
 17 18  1  0  0  0  0
 17 31  1  0  0  0  0
 18 19  2  0  0  0  0
 18 20  1  0  0  0  0
 19 32  1  0  0  0  0
 20 21  2  0  0  0  0
 20 22  1  0  0  0  0
 23 33  1  0  0  0  0
 23 34  1  0  0  0  0
 23 35  1  0  0  0  0
M  CHG  2  20   1  22  -1
M  END
$$$$
