CKE
 OpenBabel04121316093D

 65 69  0  0  0  0  0  0  0  0999 V2000
    1.0221   -0.0020   -0.0726 N   0  0  0  0  0  0  0  0  0  0  0  0
    2.4911   -0.1325   -0.0157 C   0  0  0  0  0  0  0  0  0  0  0  0
    2.9546   -1.4725    0.5547 C   0  0  0  0  0  0  0  0  0  0  0  0
    2.4362   -2.5789   -0.0305 N   0  0  0  0  0  0  0  0  0  0  0  0
    2.7248   -3.7836    0.4957 C   0  0  0  0  0  0  0  0  0  0  0  0
    3.5757   -3.8926    1.5807 C   0  0  0  0  0  0  0  0  0  0  0  0
    4.1016   -2.6953    2.0743 C   0  0  0  0  0  0  0  0  0  0  0  0
    3.7970   -1.4697    1.6153 N   0  0  0  0  0  0  0  0  0  0  0  0
    5.0369   -3.0404    3.0406 N   0  0  0  0  0  0  0  0  0  0  0  0
    6.0666   -2.1281    3.5435 C   0  0  0  0  0  0  0  0  0  0  0  0
    7.4372   -2.8319    3.6289 C   0  0  0  0  0  0  0  0  0  0  0  0
    7.9622   -3.2352    2.2842 C   0  0  0  0  0  0  0  0  0  0  0  0
    8.2544   -1.9427    1.5766 C   0  0  0  0  0  0  0  0  0  0  0  0
    6.9975   -1.0703    1.4863 C   0  0  0  0  0  0  0  0  0  0  0  0
    6.3588   -0.8020    2.8430 C   0  0  0  0  0  0  0  0  0  0  0  0
    4.9061   -4.4045    3.3895 C   0  0  0  0  0  0  0  0  0  0  0  0
    4.1016   -4.9357    2.3817 C   0  0  0  0  0  0  0  0  0  0  0  0
    5.6209   -5.2396    4.5161 C   0  0  0  0  0  0  0  0  0  0  0  0
    6.2928   -4.5457    5.7328 C   0  0  0  0  0  0  0  0  0  0  0  0
    5.8398   -3.3102    6.1750 C   0  0  0  0  0  0  0  0  0  0  0  0
    6.7855   -2.3318    6.5894 C   0  0  0  0  0  0  0  0  0  0  0  0
    8.1156   -2.6233    6.9068 C   0  0  0  0  0  0  0  0  0  0  0  0
    8.4271   -3.9909    6.8296 C   0  0  0  0  0  0  0  0  0  0  0  0
    7.5732   -4.9271    6.1843 C   0  0  0  0  0  0  0  0  0  0  0  0
    9.0604   -1.6263    7.1212 N   0  0  0  0  0  0  0  0  0  0  0  0
   10.4906   -1.9497    7.3031 C   0  0  0  0  0  0  0  0  0  0  0  0
   11.3873   -0.8903    6.6180 C   0  0  0  0  0  0  0  0  0  0  0  0
   11.1358    0.4991    7.0576 N   0  0  0  0  0  0  0  0  0  0  0  0
    9.7032    0.7874    6.8134 C   0  0  0  0  0  0  0  0  0  0  0  0
    8.7172   -0.2214    7.4734 C   0  0  0  0  0  0  0  0  0  0  0  0
   11.4671    0.6549    8.4767 C   0  0  0  0  0  0  0  0  0  0  0  0
    0.7600    0.9227   -0.3964 H   0  0  0  0  0  0  0  0  0  0  0  0
    0.6559   -0.1242    0.8694 H   0  0  0  0  0  0  0  0  0  0  0  0
    2.8956    0.6922    0.5836 H   0  0  0  0  0  0  0  0  0  0  0  0
    2.8921   -0.0245   -1.0306 H   0  0  0  0  0  0  0  0  0  0  0  0
    2.2476   -4.6360    0.0205 H   0  0  0  0  0  0  0  0  0  0  0  0
    5.6286   -1.7684    4.4690 H   0  0  0  0  0  0  0  0  0  0  0  0
    7.4505   -3.7792    4.1097 H   0  0  0  0  0  0  0  0  0  0  0  0
    8.1645   -2.2121    4.1650 H   0  0  0  0  0  0  0  0  0  0  0  0
    7.2335   -3.8627    1.7553 H   0  0  0  0  0  0  0  0  0  0  0  0
    8.8552   -3.8548    2.4289 H   0  0  0  0  0  0  0  0  0  0  0  0
    8.6478   -2.1700    0.5884 H   0  0  0  0  0  0  0  0  0  0  0  0
    9.0258   -1.4163    2.1527 H   0  0  0  0  0  0  0  0  0  0  0  0
    6.2732   -1.5969    0.8605 H   0  0  0  0  0  0  0  0  0  0  0  0
    7.2309   -0.1213    1.0067 H   0  0  0  0  0  0  0  0  0  0  0  0
    5.4659   -0.1708    2.7822 H   0  0  0  0  0  0  0  0  0  0  0  0
    7.0527   -0.2316    3.4834 H   0  0  0  0  0  0  0  0  0  0  0  0
    3.8922   -5.9907    2.2368 H   0  0  0  0  0  0  0  0  0  0  0  0
    6.3959   -5.8131    3.9756 H   0  0  0  0  0  0  0  0  0  0  0  0
    4.9062   -5.9760    4.8956 H   0  0  0  0  0  0  0  0  0  0  0  0
    4.8504   -2.9828    5.8610 H   0  0  0  0  0  0  0  0  0  0  0  0
    6.5072   -1.2945    6.4044 H   0  0  0  0  0  0  0  0  0  0  0  0
    9.3989   -4.3522    7.1503 H   0  0  0  0  0  0  0  0  0  0  0  0
    8.0141   -5.8786    5.8864 H   0  0  0  0  0  0  0  0  0  0  0  0
   10.7748   -2.9089    6.8665 H   0  0  0  0  0  0  0  0  0  0  0  0
   10.7098   -2.0075    8.3756 H   0  0  0  0  0  0  0  0  0  0  0  0
   11.2273   -0.9443    5.5313 H   0  0  0  0  0  0  0  0  0  0  0  0
   12.4433   -1.1432    6.7723 H   0  0  0  0  0  0  0  0  0  0  0  0
    9.5339    0.7878    5.7265 H   0  0  0  0  0  0  0  0  0  0  0  0
    9.4764    1.8109    7.1402 H   0  0  0  0  0  0  0  0  0  0  0  0
    7.7082    0.0789    7.1822 H   0  0  0  0  0  0  0  0  0  0  0  0
    8.7595   -0.1095    8.5632 H   0  0  0  0  0  0  0  0  0  0  0  0
   12.5139    0.3885    8.6564 H   0  0  0  0  0  0  0  0  0  0  0  0
   10.8573    0.0336    9.1403 H   0  0  0  0  0  0  0  0  0  0  0  0
   11.3340    1.6945    8.7903 H   0  0  0  0  0  0  0  0  0  0  0  0
  1  2  1  0  0  0  0
  1 32  1  0  0  0  0
  1 33  1  0  0  0  0
  2  3  1  0  0  0  0
  2 34  1  0  0  0  0
  2 35  1  0  0  0  0
  3  4  2  0  0  0  0
  3  8  1  0  0  0  0
  4  5  1  0  0  0  0
  5  6  2  0  0  0  0
  5 36  1  0  0  0  0
  6  7  1  0  0  0  0
  6 17  1  0  0  0  0
  7  8  2  0  0  0  0
  7  9  1  0  0  0  0
  9 10  1  0  0  0  0
  9 16  1  0  0  0  0
 10 11  1  0  0  0  0
 10 15  1  0  0  0  0
 10 37  1  0  0  0  0
 11 12  1  0  0  0  0
 11 38  1  0  0  0  0
 11 39  1  0  0  0  0
 12 13  1  0  0  0  0
 12 40  1  0  0  0  0
 12 41  1  0  0  0  0
 13 14  1  0  0  0  0
 13 42  1  0  0  0  0
 13 43  1  0  0  0  0
 14 15  1  0  0  0  0
 14 44  1  0  0  0  0
 14 45  1  0  0  0  0
 15 46  1  0  0  0  0
 15 47  1  0  0  0  0
 16 17  2  0  0  0  0
 16 18  1  0  0  0  0
 17 48  1  0  0  0  0
 18 19  1  0  0  0  0
 18 49  1  0  0  0  0
 18 50  1  0  0  0  0
 19 20  2  0  0  0  0
 19 24  1  0  0  0  0
 20 21  1  0  0  0  0
 20 51  1  0  0  0  0
 21 22  2  0  0  0  0
 21 52  1  0  0  0  0
 22 23  1  0  0  0  0
 22 25  1  0  0  0  0
 23 24  2  0  0  0  0
 23 53  1  0  0  0  0
 24 54  1  0  0  0  0
 25 26  1  0  0  0  0
 25 30  1  0  0  0  0
 26 27  1  0  0  0  0
 26 55  1  0  0  0  0
 26 56  1  0  0  0  0
 27 28  1  0  0  0  0
 27 57  1  0  0  0  0
 27 58  1  0  0  0  0
 28 29  1  0  0  0  0
 28 31  1  0  0  0  0
 29 30  1  0  0  0  0
 29 59  1  0  0  0  0
 29 60  1  0  0  0  0
 30 61  1  0  0  0  0
 30 62  1  0  0  0  0
 31 63  1  0  0  0  0
 31 64  1  0  0  0  0
 31 65  1  0  0  0  0
M  END
$$$$
