CL7
 OpenBabel04121316093D

135143  0  0  1  0  0  0  0  0999 V2000
    1.0093   -0.0909    0.0407 C   0  0  0  0  0  0  0  0  0  0  0  0
    2.3963   -0.0909    0.0407 O   0  0  0  0  0  0  0  0  0  0  0  0
    3.0708   -0.9185   -0.7839 C   0  0  0  0  0  0  0  0  0  0  0  0
    2.4570   -1.6716   -1.5342 O   0  0  0  0  0  0  0  0  0  0  0  0
    4.5528   -0.9185   -0.7839 C   0  0  2  0  0  0  0  0  0  0  0  0
    4.9095    0.0555   -1.0467 H   0  0  0  0  0  0  0  0  0  0  0  0
    5.0468   -1.9083   -1.7701 C   0  0  0  0  0  0  0  0  0  0  0  0
    5.6250   -1.5493   -2.8716 C   0  0  0  0  0  0  0  0  0  0  0  0
    5.9648   -0.1186   -3.0558 C   0  0  1  0  0  0  0  0  0  0  0  0
    5.0715    0.4688   -3.0112 H   0  0  0  0  0  0  0  0  0  0  0  0
    6.9163    0.3219   -1.9553 C   0  0  0  0  0  0  0  0  0  0  0  0
    6.2503    0.1294   -0.6026 C   0  0  0  0  0  0  0  0  0  0  0  0
    7.1780    0.5588    0.4703 C   0  0  0  0  0  0  0  0  0  0  0  0
    8.2915    0.9885    0.1833 O   0  0  0  0  0  0  0  0  0  0  0  0
    6.7987    0.4777    1.7624 O   0  0  0  0  0  0  0  0  0  0  0  0
    7.6670    0.8796    2.7666 C   0  0  0  0  0  0  0  0  0  0  0  0
    7.0177    0.6919    4.0854 C   0  0  0  0  0  0  0  0  0  0  0  0
    7.6616    1.0094    5.1860 C   0  0  0  0  0  0  0  0  0  0  0  0
    7.0128    0.8205    6.5049 C   0  0  0  0  0  0  0  0  0  0  0  0
    5.6177    0.2507    6.3063 C   0  0  0  0  0  0  0  0  0  0  0  0
    4.9522    0.0569    7.6591 C   0  0  0  0  0  0  0  0  0  0  0  0
    3.5572   -0.5130    7.4605 C   0  0  1  0  0  0  0  0  0  0  0  0
    2.9757    0.1646    6.8707 H   0  0  0  0  0  0  0  0  0  0  0  0
    3.6536   -1.8516    6.7469 C   0  0  0  0  0  0  0  0  0  0  0  0
    4.3191   -1.6578    5.3941 C   0  0  0  0  0  0  0  0  0  0  0  0
    4.4154   -2.9965    4.6805 C   0  0  0  0  0  0  0  0  0  0  0  0
    5.0809   -2.8027    3.3278 C   0  0  1  0  0  0  0  0  0  0  0  0
    4.4995   -2.1252    2.7380 H   0  0  0  0  0  0  0  0  0  0  0  0
    6.4760   -2.2329    3.5264 C   0  0  0  0  0  0  0  0  0  0  0  0
    6.3796   -0.8942    4.2400 C   0  0  0  0  0  0  0  0  0  0  0  0
    7.7747   -0.3243    4.4386 C   0  0  0  0  0  0  0  0  0  0  0  0
    7.6783    1.0143    5.1521 C   0  0  0  0  0  0  0  0  0  0  0  0
    7.0128    0.8206    6.5049 C   0  0  0  0  0  0  0  0  0  0  0  0
    9.0733    1.5842    5.3508 C   0  0  0  0  0  0  0  0  0  0  0  0
    5.1773   -4.1414    2.6142 C   0  0  0  0  0  0  0  0  0  0  0  0
    2.8917   -0.7067    8.8132 C   0  0  0  0  0  0  0  0  0  0  0  0
    9.0368    1.5564    5.1082 C   0  0  0  0  0  0  0  0  0  0  0  0
    6.6307    0.0739   -4.4085 C   0  0  1  0  0  0  0  0  0  0  0  0
    6.8761    1.1069   -4.5415 H   0  0  0  0  0  0  0  0  0  0  0  0
    6.5650   -1.9690   -5.0290 C   0  0  0  0  0  0  0  0  0  0  0  0
    6.8601   -0.6956   -5.1633 C   0  0  0  0  0  0  0  0  0  0  0  0
    7.5111   -0.2281   -6.3645 C   0  0  0  0  0  0  0  0  0  0  0  0
    7.5628    1.4372   -7.0019 N   0  0  0  0  0  0  0  0  0  0  0  0
    5.6284   -3.7317   -3.7222 Mg  0  0  0  0  0  0  0  0  0  0  0  0
    5.9354   -2.4210   -3.8673 N   0  0  0  0  0  0  0  0  0  0  0  0
    5.0109   -4.1360   -2.5391 N   0  0  0  0  0  0  0  0  0  0  0  0
    4.7001   -3.2141   -1.5234 C   0  0  0  0  0  0  0  0  0  0  0  0
    4.0754   -3.7530   -0.3906 C   0  0  0  0  0  0  0  0  0  0  0  0
    5.0468   -1.2776    0.5664 C   0  0  0  0  0  0  0  0  0  0  0  0
    4.7502   -0.5822    1.5336 O   0  0  0  0  0  0  0  0  0  0  0  0
    3.8112   -5.0769   -0.3254 C   0  0  0  0  0  0  0  0  0  0  0  0
    4.4330   -5.6803   -1.8870 C   0  0  0  0  0  0  0  0  0  0  0  0
    4.4574   -7.0118   -2.4451 C   0  0  0  0  0  0  0  0  0  0  0  0
    3.9607   -8.0193   -1.7632 C   0  0  0  0  0  0  0  0  0  0  0  0
    3.0120   -7.8662   -0.2603 N   0  0  0  0  0  0  0  0  0  0  0  0
    2.5443   -9.5254   -0.0763 C   0  0  0  0  0  0  0  0  0  0  0  0
    8.7528    2.0549   -9.5323 C   0  0  0  0  0  0  0  0  0  0  0  0
    8.3784    1.1191   -8.4983 C   0  0  0  0  0  0  0  0  0  0  0  0
    8.5803   -0.2257   -8.4624 C   0  0  0  0  0  0  0  0  0  0  0  0
    8.1483   -0.9389   -7.3726 C   0  0  0  0  0  0  0  0  0  0  0  0
    8.3529   -2.4035   -7.2759 C   0  0  0  0  0  0  0  0  0  0  0  0
    9.2413   -0.8947   -9.5581 C   0  0  0  0  0  0  0  0  0  0  0  0
    9.4197   -2.1086   -9.5182 O   0  0  0  0  0  0  0  0  0  0  0  0
    3.1189  -10.1312   -1.1503 C   0  0  0  0  0  0  0  0  0  0  0  0
    3.8471   -9.3760   -2.0349 C   0  0  0  0  0  0  0  0  0  0  0  0
    4.4841   -9.9820   -3.2278 C   0  0  0  0  0  0  0  0  0  0  0  0
    5.2165   -8.9060   -4.0128 C   0  0  0  0  0  0  0  0  0  0  0  0
    2.9604  -11.5893   -1.3624 C   0  0  0  0  0  0  0  0  0  0  0  0
    3.1658   -5.8386    0.7698 C   0  0  0  0  0  0  0  0  0  0  0  0
    5.6792   -0.3666   -5.5090 C   0  0  0  0  0  0  0  0  0  0  0  0
    0.6526    0.6238    0.7528 H   0  0  0  0  0  0  0  0  0  0  0  0
    0.6526   -1.0648    0.3036 H   0  0  0  0  0  0  0  0  0  0  0  0
    0.6526    0.1685   -0.9342 H   0  0  0  0  0  0  0  0  0  0  0  0
    7.1616    1.3549   -2.0883 H   0  0  0  0  0  0  0  0  0  0  0  0
    7.8095   -0.2654   -1.9999 H   0  0  0  0  0  0  0  0  0  0  0  0
    6.0049   -0.9036   -0.4697 H   0  0  0  0  0  0  0  0  0  0  0  0
    5.3570    0.7167   -0.5580 H   0  0  0  0  0  0  0  0  0  0  0  0
    7.9123    1.9126    2.6336 H   0  0  0  0  0  0  0  0  0  0  0  0
    8.5602    0.2923    2.7220 H   0  0  0  0  0  0  0  0  0  0  0  0
    6.0597    0.3118    4.1395 H   0  0  0  0  0  0  0  0  0  0  0  0
    6.9449    1.7629    7.0072 H   0  0  0  0  0  0  0  0  0  0  0  0
    7.5942    0.1430    7.0947 H   0  0  0  0  0  0  0  0  0  0  0  0
    5.6856   -0.6917    5.8040 H   0  0  0  0  0  0  0  0  0  0  0  0
    5.0363    0.9282    5.7165 H   0  0  0  0  0  0  0  0  0  0  0  0
    4.8844    0.9993    8.1614 H   0  0  0  0  0  0  0  0  0  0  0  0
    5.5336   -0.6206    8.2488 H   0  0  0  0  0  0  0  0  0  0  0  0
    2.6715   -2.2527    6.6071 H   0  0  0  0  0  0  0  0  0  0  0  0
    4.2350   -2.5291    7.3366 H   0  0  0  0  0  0  0  0  0  0  0  0
    5.3011   -1.2567    5.5339 H   0  0  0  0  0  0  0  0  0  0  0  0
    3.7376   -0.9803    4.8043 H   0  0  0  0  0  0  0  0  0  0  0  0
    3.4334   -3.3976    4.5407 H   0  0  0  0  0  0  0  0  0  0  0  0
    4.9969   -3.6740    5.2703 H   0  0  0  0  0  0  0  0  0  0  0  0
    6.9445   -2.0965    2.5741 H   0  0  0  0  0  0  0  0  0  0  0  0
    7.0574   -2.9104    4.1161 H   0  0  0  0  0  0  0  0  0  0  0  0
    5.9111   -1.0306    5.1922 H   0  0  0  0  0  0  0  0  0  0  0  0
    5.7982   -0.2167    3.6502 H   0  0  0  0  0  0  0  0  0  0  0  0
    8.2431   -0.1880    3.4863 H   0  0  0  0  0  0  0  0  0  0  0  0
    8.3561   -1.0019    5.0283 H   0  0  0  0  0  0  0  0  0  0  0  0
    7.0968    1.6918    4.5624 H   0  0  0  0  0  0  0  0  0  0  0  0
    7.5942    0.1430    7.0947 H   0  0  0  0  0  0  0  0  0  0  0  0
    6.0307    0.4194    6.3651 H   0  0  0  0  0  0  0  0  0  0  0  0
    6.9449    1.7629    7.0072 H   0  0  0  0  0  0  0  0  0  0  0  0
    9.6547    0.9067    5.9405 H   0  0  0  0  0  0  0  0  0  0  0  0
    9.0055    2.5265    5.8531 H   0  0  0  0  0  0  0  0  0  0  0  0
    9.5418    1.7206    4.3985 H   0  0  0  0  0  0  0  0  0  0  0  0
    4.1953   -4.5425    2.4744 H   0  0  0  0  0  0  0  0  0  0  0  0
    5.7587   -4.8189    3.2040 H   0  0  0  0  0  0  0  0  0  0  0  0
    5.6458   -4.0050    1.6619 H   0  0  0  0  0  0  0  0  0  0  0  0
    2.8238    0.2357    9.3155 H   0  0  0  0  0  0  0  0  0  0  0  0
    3.4731   -1.3842    9.4030 H   0  0  0  0  0  0  0  0  0  0  0  0
    1.9096   -1.1078    8.6734 H   0  0  0  0  0  0  0  0  0  0  0  0
    9.3373    1.6215    4.0834 H   0  0  0  0  0  0  0  0  0  0  0  0
    9.7076    0.9114    5.6363 H   0  0  0  0  0  0  0  0  0  0  0  0
    9.0583    2.5312    5.5489 H   0  0  0  0  0  0  0  0  0  0  0  0
    6.6266   -0.0295   -4.4104 H   0  0  0  0  0  0  0  0  0  0  0  0
    4.8650   -7.1723   -3.3795 H   0  0  0  0  0  0  0  0  0  0  0  0
    9.0860    2.7618  -10.2064 H   0  0  0  0  0  0  0  0  0  0  0  0
    8.8598   -2.7514   -8.1517 H   0  0  0  0  0  0  0  0  0  0  0  0
    7.4042   -2.8917   -7.1953 H   0  0  0  0  0  0  0  0  0  0  0  0
    8.9426   -2.6249   -6.4109 H   0  0  0  0  0  0  0  0  0  0  0  0
    9.5638   -0.3524  -10.3748 H   0  0  0  0  0  0  0  0  0  0  0  0
    3.7326  -10.4259   -3.8468 H   0  0  0  0  0  0  0  0  0  0  0  0
    5.1801  -10.7332   -2.9176 H   0  0  0  0  0  0  0  0  0  0  0  0
    4.5205   -8.1548   -4.3230 H   0  0  0  0  0  0  0  0  0  0  0  0
    5.6764   -9.3436   -4.8741 H   0  0  0  0  0  0  0  0  0  0  0  0
    5.9680   -8.4621   -3.3939 H   0  0  0  0  0  0  0  0  0  0  0  0
    2.3649  -12.0017   -0.5748 H   0  0  0  0  0  0  0  0  0  0  0  0
    3.9231  -12.0563   -1.3636 H   0  0  0  0  0  0  0  0  0  0  0  0
    2.4786  -11.7627   -2.3020 H   0  0  0  0  0  0  0  0  0  0  0  0
    2.9119   -5.1714    1.5669 H   0  0  0  0  0  0  0  0  0  0  0  0
    3.8416   -6.5853    1.1314 H   0  0  0  0  0  0  0  0  0  0  0  0
    2.2780   -6.3092    0.4021 H   0  0  0  0  0  0  0  0  0  0  0  0
    5.4339   -1.3995   -5.3760 H   0  0  0  0  0  0  0  0  0  0  0  0
    6.1480   -0.2310   -6.4612 H   0  0  0  0  0  0  0  0  0  0  0  0
    4.7860    0.2208   -5.4644 H   0  0  0  0  0  0  0  0  0  0  0  0
  1  2  1  0  0  0  0
  1 71  1  0  0  0  0
  1 72  1  0  0  0  0
  1 73  1  0  0  0  0
  2  3  1  0  0  0  0
  3  4  2  0  0  0  0
  3  5  1  0  0  0  0
  5  6  1  6  0  0  0
  5  7  1  0  0  0  0
  5 49  1  0  0  0  0
  7  8  2  0  0  0  0
  7 47  1  0  0  0  0
  8  9  1  0  0  0  0
  8 45  1  0  0  0  0
  9 10  1  1  0  0  0
  9 11  1  0  0  0  0
  9 38  1  0  0  0  0
 11 12  1  0  0  0  0
 11 74  1  0  0  0  0
 11 75  1  0  0  0  0
 12 13  1  0  0  0  0
 12 76  1  0  0  0  0
 12 77  1  0  0  0  0
 13 14  2  0  0  0  0
 13 15  1  0  0  0  0
 15 16  1  0  0  0  0
 16 17  1  0  0  0  0
 16 78  1  0  0  0  0
 16 79  1  0  0  0  0
 17 18  2  0  0  0  0
 17 80  1  0  0  0  0
 18 19  1  0  0  0  0
 18 37  1  0  0  0  0
 19 20  1  0  0  0  0
 19 81  1  0  0  0  0
 19 82  1  0  0  0  0
 20 21  1  0  0  0  0
 20 83  1  0  0  0  0
 20 84  1  0  0  0  0
 21 22  1  0  0  0  0
 21 85  1  0  0  0  0
 21 86  1  0  0  0  0
 22 23  1  6  0  0  0
 22 24  1  0  0  0  0
 22 36  1  0  0  0  0
 24 25  1  0  0  0  0
 24 87  1  0  0  0  0
 24 88  1  0  0  0  0
 25 26  1  0  0  0  0
 25 89  1  0  0  0  0
 25 90  1  0  0  0  0
 26 27  1  0  0  0  0
 26 91  1  0  0  0  0
 26 92  1  0  0  0  0
 27 28  1  6  0  0  0
 27 29  1  0  0  0  0
 27 35  1  0  0  0  0
 29 30  1  0  0  0  0
 29 93  1  0  0  0  0
 29 94  1  0  0  0  0
 30 31  1  0  0  0  0
 30 95  1  0  0  0  0
 30 96  1  0  0  0  0
 31 32  1  0  0  0  0
 31 97  1  0  0  0  0
 31 98  1  0  0  0  0
 32 33  1  0  0  0  0
 32 34  1  0  0  0  0
 32 99  1  0  0  0  0
 33100  1  0  0  0  0
 33101  1  0  0  0  0
 33102  1  0  0  0  0
 34103  1  0  0  0  0
 34104  1  0  0  0  0
 34105  1  0  0  0  0
 35106  1  0  0  0  0
 35107  1  0  0  0  0
 35108  1  0  0  0  0
 36109  1  0  0  0  0
 36110  1  0  0  0  0
 36111  1  0  0  0  0
 37112  1  0  0  0  0
 37113  1  0  0  0  0
 37114  1  0  0  0  0
 38 40  1  0  0  0  0
 38 70  1  0  0  0  0
 38 39  1  6  0  0  0
 40 41  2  0  0  0  0
 40 45  1  0  0  0  0
 41 42  1  0  0  0  0
 41115  1  0  0  0  0
 42 43  1  0  0  0  0
 42 60  2  0  0  0  0
 43 44  1  0  0  0  0
 43 58  1  0  0  0  0
 44 45  1  0  0  0  0
 44 46  1  0  0  0  0
 44 55  1  0  0  0  0
 46 47  1  0  0  0  0
 46 52  1  0  0  0  0
 47 48  2  0  0  0  0
 48 49  1  0  0  0  0
 48 51  1  0  0  0  0
 49 50  2  0  0  0  0
 51 52  2  0  0  0  0
 51 69  1  0  0  0  0
 52 53  1  0  0  0  0
 53 54  2  0  0  0  0
 53116  1  0  0  0  0
 54 55  1  0  0  0  0
 54 65  1  0  0  0  0
 55 56  1  0  0  0  0
 56 57  2  0  0  0  0
 56 64  1  0  0  0  0
 57 58  1  0  0  0  0
 57117  1  0  0  0  0
 58 59  2  0  0  0  0
 59 60  1  0  0  0  0
 59 62  1  0  0  0  0
 60 61  1  0  0  0  0
 61118  1  0  0  0  0
 61119  1  0  0  0  0
 61120  1  0  0  0  0
 62 63  2  0  0  0  0
 62121  1  0  0  0  0
 64 65  2  0  0  0  0
 64 68  1  0  0  0  0
 65 66  1  0  0  0  0
 66 67  1  0  0  0  0
 66122  1  0  0  0  0
 66123  1  0  0  0  0
 67124  1  0  0  0  0
 67125  1  0  0  0  0
 67126  1  0  0  0  0
 68127  1  0  0  0  0
 68128  1  0  0  0  0
 68129  1  0  0  0  0
 69130  1  0  0  0  0
 69131  1  0  0  0  0
 69132  1  0  0  0  0
 70133  1  0  0  0  0
 70134  1  0  0  0  0
 70135  1  0  0  0  0
M  END
$$$$
