CLF
 OpenBabel04121316093D

 15 24  0  0  0  0  0  0  0  0999 V2000
    1.2670   -0.0240    0.3910 Fe  0  0  0  0  0  0  0  0  0  0  0  0
    0.2360    1.0310    0.7960 S   0  0  2  0  0  0  0  0  0  0  0  0
   -0.2430    1.1280   -0.6540 Fe  0  0  0  0  0  0  0  0  0  0  0  0
    0.7940    0.0720   -1.0610 S   0  0  1  0  0  0  0  0  0  0  0  0
   -0.2390   -1.0310   -0.7980 Fe  0  0  0  0  0  0  0  0  0  0  0  0
    0.2400   -1.1270    0.6520 S   0  0  1  0  0  0  0  0  0  0  0  0
   -0.7890   -0.0720    1.0620 Fe  0  0  0  0  0  0  0  0  0  0  0  0
   -1.2680    0.0240   -0.3880 S   0  0  0  0  0  0  0  0  0  0  0  0
   -2.8623    1.6585    0.2472 Fe  0  0  0  0  0  0  0  0  0  0  0  0
   -2.1043    2.9055   -0.2308 S   0  0  2  0  0  0  0  0  0  0  0  0
   -2.8613    4.1525    0.2472 Fe  0  0  0  0  0  0  0  0  0  0  0  0
   -4.3563    3.9535   -0.0618 S   0  0  2  0  0  0  0  0  0  0  0  0
   -4.9843    2.9055    0.8762 Fe  0  0  0  0  0  0  0  0  0  0  0  0
   -4.3563    1.8575   -0.0618 S   0  0  1  0  0  0  0  0  0  0  0  0
   -4.5513    2.9055   -1.1768 Fe  0  0  0  0  0  0  0  0  0  0  0  0
  1  4  1  0  0  0  0
  1  6  1  0  0  0  0
  2  1  1  1  0  0  0
  2  3  1  0  0  0  0
  2  7  1  0  0  0  0
  3  8  1  0  0  0  0
  4  3  1  6  0  0  0
  4  5  1  0  0  0  0
  5  8  1  0  0  0  0
  6  5  1  1  0  0  0
  6  7  1  0  0  0  0
  7  8  1  0  0  0  0
  8  9  1  0  0  0  0
  8 11  1  0  0  0  0
  8 13  1  0  0  0  0
  9 14  1  0  0  0  0
 10  9  1  1  0  0  0
 10 11  1  0  0  0  0
 10 15  1  0  0  0  0
 12 11  1  1  0  0  0
 12 13  1  0  0  0  0
 12 15  1  0  0  0  0
 14 13  1  1  0  0  0
 14 15  1  0  0  0  0
M  END
$$$$
