CM8
 OpenBabel04121316093D

 80 83  0  0  1  0  0  0  0  0999 V2000
    5.0226   -1.5574   -8.4853 C   0  0  0  0  0  0  0  0  0  0  0  0
    5.4284   -0.8000   -7.2479 C   0  0  0  0  0  0  0  0  0  0  0  0
    6.6804   -1.3417   -6.7858 N   0  0  0  0  0  0  0  0  0  0  0  0
    7.2389   -0.7912   -5.6589 C   0  0  0  0  0  0  0  0  0  0  0  0
    7.5184    0.5850   -5.6364 C   0  0  0  0  0  0  0  0  0  0  0  0
    8.0706    1.1309   -4.5098 C   0  0  0  0  0  0  0  0  0  0  0  0
    8.3354    0.2579   -3.4812 C   0  0  0  0  0  0  0  0  0  0  0  0
    8.0908   -1.0884   -3.4453 C   0  0  0  0  0  0  0  0  0  0  0  0
    7.5030   -1.6267   -4.5546 C   0  0  0  0  0  0  0  0  0  0  0  0
    8.5068   -1.8144   -2.2818 N   0  0  0  0  0  0  0  0  0  0  0  0
    7.5335   -2.4542   -1.3756 C   0  0  0  0  0  0  0  0  0  0  0  0
    8.1571   -3.7841   -0.9364 C   0  0  0  0  0  0  0  0  0  0  0  0
    9.4946   -3.6130   -0.1974 C   0  0  0  0  0  0  0  0  0  0  0  0
   10.5341   -2.9159   -1.0489 C   0  0  0  0  0  0  0  0  0  0  0  0
    9.9649   -1.3287   -1.5090 S   0  0  0  0  0  0  0  0  0  0  0  0
   10.9079   -0.8352   -2.5041 O   0  0  0  0  0  0  0  0  0  0  0  0
    9.6420   -0.5447   -0.3442 O   0  0  0  0  0  0  0  0  0  0  0  0
    8.3291    2.5789   -4.4061 C   0  0  0  0  0  0  0  0  0  0  0  0
    8.1777    3.3084   -5.3839 O   0  0  0  0  0  0  0  0  0  0  0  0
    8.6207    3.1540   -3.1892 N   0  0  0  0  0  0  0  0  0  0  0  0
    9.4861    2.6298   -2.0807 C   0  0  2  0  0  0  0  0  0  0  0  0
    8.9175    1.7977   -1.6977 H   0  0  0  0  0  0  0  0  0  0  0  0
    9.4050    3.3847   -0.7108 C   0  0  1  0  0  0  0  0  0  0  0  0
    9.6847    2.6560    0.0669 H   0  0  0  0  0  0  0  0  0  0  0  0
   10.2599    4.6492   -0.4629 C   0  0  0  0  0  0  0  0  0  0  0  0
   11.6916    4.3084   -0.3876 N   0  0  0  0  0  0  0  0  0  0  0  0
   12.6489    5.4046   -0.5797 C   0  0  0  0  0  0  0  0  0  0  0  0
   14.0790    4.9376   -0.9595 C   0  0  0  0  0  0  0  0  0  0  0  0
   15.0096    5.8971   -1.4115 C   0  0  0  0  0  0  0  0  0  0  0  0
   16.2626    5.5293   -1.9336 C   0  0  0  0  0  0  0  0  0  0  0  0
   16.5807    4.1848   -2.1188 C   0  0  0  0  0  0  0  0  0  0  0  0
   15.6657    3.1947   -1.7368 C   0  0  0  0  0  0  0  0  0  0  0  0
   14.4619    3.5799   -1.0877 C   0  0  0  0  0  0  0  0  0  0  0  0
   15.8965    1.7655   -2.1924 C   0  0  0  0  0  0  0  0  0  0  0  0
   16.1258    1.6775   -3.5387 F   0  0  0  0  0  0  0  0  0  0  0  0
   16.9746    1.1875   -1.6001 F   0  0  0  0  0  0  0  0  0  0  0  0
   14.8423    0.9336   -1.9581 F   0  0  0  0  0  0  0  0  0  0  0  0
    8.0137    3.6853   -0.4675 O   0  0  0  0  0  0  0  0  0  0  0  0
   10.8938    2.1624   -2.6226 C   0  0  0  0  0  0  0  0  0  0  0  0
   11.6702    3.2601   -3.3317 C   0  0  0  0  0  0  0  0  0  0  0  0
   11.1225    4.5422   -3.3940 C   0  0  0  0  0  0  0  0  0  0  0  0
   11.7971    5.7030   -3.6771 C   0  0  0  0  0  0  0  0  0  0  0  0
   13.1241    5.5914   -3.9654 C   0  0  0  0  0  0  0  0  0  0  0  0
   13.7006    4.3154   -4.0461 C   0  0  0  0  0  0  0  0  0  0  0  0
   12.9845    3.1394   -3.7383 C   0  0  0  0  0  0  0  0  0  0  0  0
    4.0582   -1.1986   -8.8471 H   0  0  0  0  0  0  0  0  0  0  0  0
    4.9492   -2.6276   -8.2667 H   0  0  0  0  0  0  0  0  0  0  0  0
    5.7738   -1.4236   -9.2704 H   0  0  0  0  0  0  0  0  0  0  0  0
    4.6691   -0.9181   -6.4646 H   0  0  0  0  0  0  0  0  0  0  0  0
    5.5061    0.2693   -7.4762 H   0  0  0  0  0  0  0  0  0  0  0  0
    7.1550   -2.1030   -7.2523 H   0  0  0  0  0  0  0  0  0  0  0  0
    7.3311    1.2192   -6.4998 H   0  0  0  0  0  0  0  0  0  0  0  0
    8.9074    0.5575   -2.6634 H   0  0  0  0  0  0  0  0  0  0  0  0
    7.2873   -2.6854   -4.5975 H   0  0  0  0  0  0  0  0  0  0  0  0
    6.5760   -2.6365   -1.8752 H   0  0  0  0  0  0  0  0  0  0  0  0
    7.3176   -1.8211   -0.5035 H   0  0  0  0  0  0  0  0  0  0  0  0
    8.3255   -4.3967   -1.8310 H   0  0  0  0  0  0  0  0  0  0  0  0
    7.4606   -4.3237   -0.2890 H   0  0  0  0  0  0  0  0  0  0  0  0
    9.8869   -4.5925    0.0865 H   0  0  0  0  0  0  0  0  0  0  0  0
    9.3288   -3.0394    0.7225 H   0  0  0  0  0  0  0  0  0  0  0  0
   10.7235   -3.4489   -1.9867 H   0  0  0  0  0  0  0  0  0  0  0  0
   11.4816   -2.7648   -0.5274 H   0  0  0  0  0  0  0  0  0  0  0  0
    8.6567    4.1477   -3.3693 H   0  0  0  0  0  0  0  0  0  0  0  0
    9.9578    5.1157    0.4776 H   0  0  0  0  0  0  0  0  0  0  0  0
    9.9656    5.4020   -1.2022 H   0  0  0  0  0  0  0  0  0  0  0  0
   11.8967    3.6410   -1.1181 H   0  0  0  0  0  0  0  0  0  0  0  0
   12.6713    6.0243    0.3151 H   0  0  0  0  0  0  0  0  0  0  0  0
   12.3100    6.0742   -1.3725 H   0  0  0  0  0  0  0  0  0  0  0  0
   14.7148    6.9431   -1.4906 H   0  0  0  0  0  0  0  0  0  0  0  0
   16.9512    6.2947   -2.2865 H   0  0  0  0  0  0  0  0  0  0  0  0
   17.4903    3.9131   -2.6559 H   0  0  0  0  0  0  0  0  0  0  0  0
   13.7492    2.7914   -0.8503 H   0  0  0  0  0  0  0  0  0  0  0  0
    7.5131    2.8573   -0.6052 H   0  0  0  0  0  0  0  0  0  0  0  0
   10.8005    1.3662   -3.3688 H   0  0  0  0  0  0  0  0  0  0  0  0
   11.4652    1.7232   -1.7879 H   0  0  0  0  0  0  0  0  0  0  0  0
   10.1830    4.7464   -2.9428 H   0  0  0  0  0  0  0  0  0  0  0  0
   11.3210    6.6380   -3.3883 H   0  0  0  0  0  0  0  0  0  0  0  0
   13.7306    6.4894   -3.9175 H   0  0  0  0  0  0  0  0  0  0  0  0
   14.7803    4.2712   -4.1323 H   0  0  0  0  0  0  0  0  0  0  0  0
   13.5091    2.1918   -3.6303 H   0  0  0  0  0  0  0  0  0  0  0  0
  1  2  1  0  0  0  0
  1 46  1  0  0  0  0
  1 47  1  0  0  0  0
  1 48  1  0  0  0  0
  2  3  1  0  0  0  0
  2 49  1  0  0  0  0
  2 50  1  0  0  0  0
  3  4  1  0  0  0  0
  3 51  1  0  0  0  0
  4  5  2  0  0  0  0
  4  9  1  0  0  0  0
  5  6  1  0  0  0  0
  5 52  1  0  0  0  0
  6  7  2  0  0  0  0
  6 18  1  0  0  0  0
  7  8  1  0  0  0  0
  7 53  1  0  0  0  0
  8  9  2  0  0  0  0
  8 10  1  0  0  0  0
  9 54  1  0  0  0  0
 10 11  1  0  0  0  0
 10 15  1  0  0  0  0
 11 12  1  0  0  0  0
 11 55  1  0  0  0  0
 11 56  1  0  0  0  0
 12 13  1  0  0  0  0
 12 57  1  0  0  0  0
 12 58  1  0  0  0  0
 13 14  1  0  0  0  0
 13 59  1  0  0  0  0
 13 60  1  0  0  0  0
 14 15  1  0  0  0  0
 14 61  1  0  0  0  0
 14 62  1  0  0  0  0
 15 16  2  0  0  0  0
 15 17  2  0  0  0  0
 18 19  2  0  0  0  0
 18 20  1  0  0  0  0
 20 63  1  0  0  0  0
 21 23  1  0  0  0  0
 21 39  1  0  0  0  0
 21 22  1  1  0  0  0
 21 20  1  0  0  0  0
 23 24  1  1  0  0  0
 23 25  1  0  0  0  0
 23 38  1  0  0  0  0
 25 26  1  0  0  0  0
 25 64  1  0  0  0  0
 25 65  1  0  0  0  0
 26 27  1  0  0  0  0
 26 66  1  0  0  0  0
 27 28  1  0  0  0  0
 27 67  1  0  0  0  0
 27 68  1  0  0  0  0
 28 29  2  0  0  0  0
 28 33  1  0  0  0  0
 29 30  1  0  0  0  0
 29 69  1  0  0  0  0
 30 31  2  0  0  0  0
 30 70  1  0  0  0  0
 31 32  1  0  0  0  0
 31 71  1  0  0  0  0
 32 33  2  0  0  0  0
 32 34  1  0  0  0  0
 33 72  1  0  0  0  0
 34 35  1  0  0  0  0
 34 36  1  0  0  0  0
 34 37  1  0  0  0  0
 38 73  1  0  0  0  0
 39 40  1  0  0  0  0
 39 74  1  0  0  0  0
 39 75  1  0  0  0  0
 40 41  2  0  0  0  0
 40 45  1  0  0  0  0
 41 42  1  0  0  0  0
 41 76  1  0  0  0  0
 42 43  2  0  0  0  0
 42 77  1  0  0  0  0
 43 44  1  0  0  0  0
 43 78  1  0  0  0  0
 44 45  2  0  0  0  0
 44 79  1  0  0  0  0
 45 80  1  0  0  0  0
M  END
$$$$
