CMB
 OpenBabel04121316093D

 54 57  0  0  0  0  0  0  0  0999 V2000
    0.8733    0.0068   -0.0107 Cl  0  0  0  0  0  0  0  0  0  0  0  0
    2.5923    0.0061   -0.0094 C   0  0  0  0  0  0  0  0  0  0  0  0
    3.2786    1.2245   -0.0081 C   0  0  0  0  0  0  0  0  0  0  0  0
    4.6784    1.2497   -0.0073 C   0  0  0  0  0  0  0  0  0  0  0  0
    5.3708    2.5997   -0.0126 C   0  0  0  0  0  0  0  0  0  0  0  0
    6.8033    2.4878   -0.0034 N   0  0  0  0  0  0  0  0  0  0  0  0
    7.6707    3.5296   -0.0021 C   0  0  0  0  0  0  0  0  0  0  0  0
    7.2332    4.6904   -0.0330 O   0  0  0  0  0  0  0  0  0  0  0  0
    9.1053    3.2289    0.0403 C   0  0  0  0  0  0  0  0  0  0  0  0
   10.0670    4.2282   -0.0170 C   0  0  0  0  0  0  0  0  0  0  0  0
   11.3615    3.6699    0.0167 C   0  0  0  0  0  0  0  0  0  0  0  0
   11.1988    2.3110    0.2515 C   0  0  0  0  0  0  0  0  0  0  0  0
    9.8247    2.0156    0.1451 N   0  0  0  0  0  0  0  0  0  0  0  0
    9.1621    0.6819    0.0491 C   0  0  0  0  0  0  0  0  0  0  0  0
    9.9760   -0.5642   -0.1121 C   0  0  0  0  0  0  0  0  0  0  0  0
   11.1699   -0.5034   -0.8016 C   0  0  0  0  0  0  0  0  0  0  0  0
   12.1565   -1.4303   -0.5480 C   0  0  0  0  0  0  0  0  0  0  0  0
   11.7612   -2.6940   -0.2248 C   0  0  0  0  0  0  0  0  0  0  0  0
   10.4104   -2.9242    0.0306 C   0  0  0  0  0  0  0  0  0  0  0  0
    9.5463   -1.8347    0.2555 C   0  0  0  0  0  0  0  0  0  0  0  0
    9.8901   -4.3077   -0.0647 C   0  0  0  0  0  0  0  0  0  0  0  0
   10.6261   -5.3209   -0.3999 N   0  0  0  0  0  0  0  0  0  0  0  0
    8.5771   -4.5581    0.1459 N   0  0  0  0  0  0  0  0  0  0  0  0
   12.3721    1.5558    0.5008 C   0  0  0  0  0  0  0  0  0  0  0  0
   13.6368    2.0245    0.1568 C   0  0  0  0  0  0  0  0  0  0  0  0
   13.7967    3.3677   -0.0475 C   0  0  0  0  0  0  0  0  0  0  0  0
   12.6732    4.2123   -0.0376 C   0  0  0  0  0  0  0  0  0  0  0  0
   12.8985    5.6851   -0.0586 C   0  0  0  0  0  0  0  0  0  0  0  0
    5.3504    0.0117   -0.0039 C   0  0  0  0  0  0  0  0  0  0  0  0
    4.6598   -1.1962   -0.0049 C   0  0  0  0  0  0  0  0  0  0  0  0
    3.2769   -1.2074   -0.0093 C   0  0  0  0  0  0  0  0  0  0  0  0
    5.5570   -2.6655    0.0003 Cl  0  0  0  0  0  0  0  0  0  0  0  0
    2.7206    2.1600   -0.0088 H   0  0  0  0  0  0  0  0  0  0  0  0
    5.0812    3.1704    0.8766 H   0  0  0  0  0  0  0  0  0  0  0  0
    5.0853    3.1621   -0.9086 H   0  0  0  0  0  0  0  0  0  0  0  0
    7.1638    1.5721   -0.0109 H   0  0  0  0  0  0  0  0  0  0  0  0
    9.8311    5.2831   -0.0895 H   0  0  0  0  0  0  0  0  0  0  0  0
    8.5492    0.7185   -0.8619 H   0  0  0  0  0  0  0  0  0  0  0  0
    8.5396    0.6104    0.9516 H   0  0  0  0  0  0  0  0  0  0  0  0
   11.4245    0.4020   -1.3375 H   0  0  0  0  0  0  0  0  0  0  0  0
   13.2050   -1.1696   -0.6414 H   0  0  0  0  0  0  0  0  0  0  0  0
   12.5201   -3.4599   -0.2905 H   0  0  0  0  0  0  0  0  0  0  0  0
    8.5367   -1.9785    0.6291 H   0  0  0  0  0  0  0  0  0  0  0  0
   11.5982   -5.0627   -0.5740 H   0  0  0  0  0  0  0  0  0  0  0  0
    7.8734   -3.8370    0.1887 H   0  0  0  0  0  0  0  0  0  0  0  0
    8.2673   -5.4941   -0.0758 H   0  0  0  0  0  0  0  0  0  0  0  0
   12.3388    0.5453    0.8745 H   0  0  0  0  0  0  0  0  0  0  0  0
   14.4875    1.3463    0.1246 H   0  0  0  0  0  0  0  0  0  0  0  0
   14.8047    3.7673   -0.1319 H   0  0  0  0  0  0  0  0  0  0  0  0
   13.9668    5.9148   -0.0484 H   0  0  0  0  0  0  0  0  0  0  0  0
   12.4443    6.1138    0.8397 H   0  0  0  0  0  0  0  0  0  0  0  0
   12.4430    6.1060   -0.9557 H   0  0  0  0  0  0  0  0  0  0  0  0
    6.4268   -0.0716   -0.0021 H   0  0  0  0  0  0  0  0  0  0  0  0
    2.7413   -2.1504   -0.0125 H   0  0  0  0  0  0  0  0  0  0  0  0
  1  2  1  0  0  0  0
  2  3  2  0  0  0  0
  2 31  1  0  0  0  0
  3  4  1  0  0  0  0
  3 33  1  0  0  0  0
  4  5  1  0  0  0  0
  4 29  2  0  0  0  0
  5  6  1  0  0  0  0
  5 34  1  0  0  0  0
  5 35  1  0  0  0  0
  6  7  1  0  0  0  0
  6 36  1  0  0  0  0
  7  8  2  0  0  0  0
  7  9  1  0  0  0  0
  9 10  2  0  0  0  0
  9 13  1  0  0  0  0
 10 11  1  0  0  0  0
 10 37  1  0  0  0  0
 11 12  2  0  0  0  0
 11 27  1  0  0  0  0
 12 13  1  0  0  0  0
 12 24  1  0  0  0  0
 13 14  1  0  0  0  0
 14 15  1  0  0  0  0
 14 38  1  0  0  0  0
 14 39  1  0  0  0  0
 15 16  2  0  0  0  0
 15 20  1  0  0  0  0
 16 17  1  0  0  0  0
 16 40  1  0  0  0  0
 17 18  2  0  0  0  0
 17 41  1  0  0  0  0
 18 19  1  0  0  0  0
 18 42  1  0  0  0  0
 19 20  2  0  0  0  0
 19 21  1  0  0  0  0
 20 43  1  0  0  0  0
 21 22  2  0  0  0  0
 21 23  1  0  0  0  0
 22 44  1  0  0  0  0
 23 45  1  0  0  0  0
 23 46  1  0  0  0  0
 24 25  2  0  0  0  0
 24 47  1  0  0  0  0
 25 26  1  0  0  0  0
 25 48  1  0  0  0  0
 26 27  2  0  0  0  0
 26 49  1  0  0  0  0
 27 28  1  0  0  0  0
 28 50  1  0  0  0  0
 28 51  1  0  0  0  0
 28 52  1  0  0  0  0
 29 30  1  0  0  0  0
 29 53  1  0  0  0  0
 30 31  2  0  0  0  0
 30 32  1  0  0  0  0
 31 54  1  0  0  0  0
M  END
$$$$
