CMG
 OpenBabel04121316093D

 35 37  0  0  0  0  0  0  0  0999 V2000
    1.0448   -0.1572   -0.2017 N   0  0  0  0  0  0  0  0  0  0  0  0
    2.4012   -0.1551   -0.1018 C   0  0  0  0  0  0  0  0  0  0  0  0
    2.9509    1.0624    0.0433 N   0  0  0  0  0  0  0  0  0  0  0  0
    4.2860    1.1606    0.1655 C   0  0  0  0  0  0  0  0  0  0  0  0
    4.7745    2.3397    0.6921 O   0  0  0  0  0  0  0  0  0  0  0  0
    4.2326    3.6060    0.1840 C   0  0  0  0  0  0  0  0  0  0  0  0
    5.5200    4.4464   -0.0815 C   0  0  0  0  0  0  0  0  0  0  0  0
    6.3038    3.6065   -1.1060 C   0  0  0  0  0  0  0  0  0  0  0  0
    5.6820    3.7930   -2.4909 C   0  0  0  0  0  0  0  0  0  0  0  0
    6.0036    5.1876   -2.9771 C   0  0  0  0  0  0  0  0  0  0  0  0
    5.3709    6.2163   -2.0401 C   0  0  0  0  0  0  0  0  0  0  0  0
    5.6696    5.9238   -0.5632 C   0  0  0  0  0  0  0  0  0  0  0  0
    5.0865    0.0013    0.0416 C   0  0  0  0  0  0  0  0  0  0  0  0
    4.3754   -1.1883   -0.0838 C   0  0  0  0  0  0  0  0  0  0  0  0
    3.0497   -1.3382   -0.1343 N   0  0  0  0  0  0  0  0  0  0  0  0
    5.3164   -2.1815   -0.0798 N   0  0  0  0  0  0  0  0  0  0  0  0
    5.1244   -3.1760   -0.0886 H   0  0  0  0  0  0  0  0  0  0  0  0
    6.5474   -1.5888   -0.0218 C   0  0  0  0  0  0  0  0  0  0  0  0
    6.4464   -0.2741    0.0674 N   0  0  0  0  0  0  0  0  0  0  0  0
    0.6123    0.7364   -0.0188 H   0  0  0  0  0  0  0  0  0  0  0  0
    0.5654   -1.0286   -0.0436 H   0  0  0  0  0  0  0  0  0  0  0  0
    3.6005    4.0151    0.9783 H   0  0  0  0  0  0  0  0  0  0  0  0
    3.6097    3.4610   -0.7057 H   0  0  0  0  0  0  0  0  0  0  0  0
    6.0129    4.4554    0.9013 H   0  0  0  0  0  0  0  0  0  0  0  0
    6.2947    2.5412   -0.8869 H   0  0  0  0  0  0  0  0  0  0  0  0
    7.3601    3.8874   -1.0757 H   0  0  0  0  0  0  0  0  0  0  0  0
    4.5900    3.6800   -2.4810 H   0  0  0  0  0  0  0  0  0  0  0  0
    6.0591    3.0272   -3.1699 H   0  0  0  0  0  0  0  0  0  0  0  0
    5.6407    5.3251   -4.0001 H   0  0  0  0  0  0  0  0  0  0  0  0
    7.0943    5.3067   -2.9985 H   0  0  0  0  0  0  0  0  0  0  0  0
    4.2866    6.2438   -2.1819 H   0  0  0  0  0  0  0  0  0  0  0  0
    5.7549    7.2091   -2.3161 H   0  0  0  0  0  0  0  0  0  0  0  0
    5.1883    6.6630    0.0863 H   0  0  0  0  0  0  0  0  0  0  0  0
    6.7496    6.1430   -0.4574 H   0  0  0  0  0  0  0  0  0  0  0  0
    7.4654   -2.1654   -0.0272 H   0  0  0  0  0  0  0  0  0  0  0  0
  1  2  1  0  0  0  0
  1 20  1  0  0  0  0
  1 21  1  0  0  0  0
  2  3  2  0  0  0  0
  2 15  1  0  0  0  0
  3  4  1  0  0  0  0
  4  5  1  0  0  0  0
  4 13  2  0  0  0  0
  5  6  1  0  0  0  0
  6  7  1  0  0  0  0
  6 22  1  0  0  0  0
  6 23  1  0  0  0  0
  7  8  1  0  0  0  0
  7 12  1  0  0  0  0
  7 24  1  0  0  0  0
  8  9  1  0  0  0  0
  8 25  1  0  0  0  0
  8 26  1  0  0  0  0
  9 10  1  0  0  0  0
  9 27  1  0  0  0  0
  9 28  1  0  0  0  0
 10 11  1  0  0  0  0
 10 29  1  0  0  0  0
 10 30  1  0  0  0  0
 11 12  1  0  0  0  0
 11 31  1  0  0  0  0
 11 32  1  0  0  0  0
 12 33  1  0  0  0  0
 12 34  1  0  0  0  0
 13 14  1  0  0  0  0
 13 19  1  0  0  0  0
 14 15  2  0  0  0  0
 14 16  1  0  0  0  0
 16 17  1  0  0  0  0
 16 18  1  0  0  0  0
 18 19  2  0  0  0  0
 18 35  1  0  0  0  0
M  END
$$$$
