CMI
 OpenBabel04121316093D

 60 63  0  0  0  0  0  0  0  0999 V2000
    0.9139    0.0831   -0.0125 C   0  0  0  0  0  0  0  0  0  0  0  0
    2.4089    0.0901   -0.0115 C   0  0  0  0  0  0  0  0  0  0  0  0
    3.1046    1.3055   -0.0106 C   0  0  0  0  0  0  0  0  0  0  0  0
    4.4990    1.3304   -0.0097 C   0  0  0  0  0  0  0  0  0  0  0  0
    5.1901    2.6760   -0.0156 C   0  0  0  0  0  0  0  0  0  0  0  0
    6.6220    2.5614   -0.0063 N   0  0  0  0  0  0  0  0  0  0  0  0
    7.4900    3.5983   -0.0052 C   0  0  0  0  0  0  0  0  0  0  0  0
    7.0577    4.7611   -0.0360 O   0  0  0  0  0  0  0  0  0  0  0  0
    8.9221    3.2909    0.0372 C   0  0  0  0  0  0  0  0  0  0  0  0
    9.8842    4.2888   -0.0201 C   0  0  0  0  0  0  0  0  0  0  0  0
   11.1770    3.7291    0.0135 C   0  0  0  0  0  0  0  0  0  0  0  0
   11.0132    2.3704    0.2483 C   0  0  0  0  0  0  0  0  0  0  0  0
    9.6386    2.0759    0.1420 N   0  0  0  0  0  0  0  0  0  0  0  0
    8.9757    0.7416    0.0466 C   0  0  0  0  0  0  0  0  0  0  0  0
    9.7936   -0.5042   -0.1135 C   0  0  0  0  0  0  0  0  0  0  0  0
   10.9848   -0.4436   -0.8070 C   0  0  0  0  0  0  0  0  0  0  0  0
   11.9727   -1.3698   -0.5529 C   0  0  0  0  0  0  0  0  0  0  0  0
   11.5807   -2.6348   -0.2301 C   0  0  0  0  0  0  0  0  0  0  0  0
   10.2326   -2.8662    0.0290 C   0  0  0  0  0  0  0  0  0  0  0  0
    9.3727   -1.7752    0.2621 C   0  0  0  0  0  0  0  0  0  0  0  0
    9.7119   -4.2492   -0.0765 C   0  0  0  0  0  0  0  0  0  0  0  0
   10.4469   -5.2642   -0.4064 N   0  0  0  0  0  0  0  0  0  0  0  0
    8.3971   -4.4994    0.1092 N   0  0  0  0  0  0  0  0  0  0  0  0
   12.1860    1.6146    0.4974 C   0  0  0  0  0  0  0  0  0  0  0  0
   13.4508    2.0832    0.1534 C   0  0  0  0  0  0  0  0  0  0  0  0
   13.6112    3.4264   -0.0505 C   0  0  0  0  0  0  0  0  0  0  0  0
   12.4882    4.2712   -0.0406 C   0  0  0  0  0  0  0  0  0  0  0  0
   12.7124    5.7440   -0.0616 C   0  0  0  0  0  0  0  0  0  0  0  0
    5.1704    0.0979   -0.0066 C   0  0  0  0  0  0  0  0  0  0  0  0
    4.4979   -1.1219   -0.0097 C   0  0  0  0  0  0  0  0  0  0  0  0
    3.1103   -1.1220   -0.0123 C   0  0  0  0  0  0  0  0  0  0  0  0
    5.2888   -2.3894   -0.0116 C   0  0  0  0  0  0  0  0  0  0  0  0
    0.5161    1.1027   -0.0112 H   0  0  0  0  0  0  0  0  0  0  0  0
    0.5474   -0.4274    0.8824 H   0  0  0  0  0  0  0  0  0  0  0  0
    0.5480   -0.4252   -0.9089 H   0  0  0  0  0  0  0  0  0  0  0  0
    2.5542    2.2451   -0.0117 H   0  0  0  0  0  0  0  0  0  0  0  0
    4.9007    3.2452    0.8743 H   0  0  0  0  0  0  0  0  0  0  0  0
    4.9048    3.2363   -0.9125 H   0  0  0  0  0  0  0  0  0  0  0  0
    6.9759    1.6434   -0.0148 H   0  0  0  0  0  0  0  0  0  0  0  0
    9.6475    5.3435   -0.0925 H   0  0  0  0  0  0  0  0  0  0  0  0
    8.3623    0.7777   -0.8642 H   0  0  0  0  0  0  0  0  0  0  0  0
    8.3526    0.6703    0.9486 H   0  0  0  0  0  0  0  0  0  0  0  0
   11.2377    0.4622   -1.3430 H   0  0  0  0  0  0  0  0  0  0  0  0
   13.0208   -1.1077   -0.6453 H   0  0  0  0  0  0  0  0  0  0  0  0
   12.3395   -3.4002   -0.2982 H   0  0  0  0  0  0  0  0  0  0  0  0
    8.3729   -1.9174    0.6552 H   0  0  0  0  0  0  0  0  0  0  0  0
   11.4204   -5.0071   -0.5728 H   0  0  0  0  0  0  0  0  0  0  0  0
    7.7052   -3.7835    0.2318 H   0  0  0  0  0  0  0  0  0  0  0  0
    8.0895   -5.4449   -0.0677 H   0  0  0  0  0  0  0  0  0  0  0  0
   12.1521    0.6043    0.8710 H   0  0  0  0  0  0  0  0  0  0  0  0
   14.3012    1.4048    0.1210 H   0  0  0  0  0  0  0  0  0  0  0  0
   14.6190    3.8261   -0.1348 H   0  0  0  0  0  0  0  0  0  0  0  0
   13.7805    5.9741   -0.0514 H   0  0  0  0  0  0  0  0  0  0  0  0
   12.2578    6.1724    0.8367 H   0  0  0  0  0  0  0  0  0  0  0  0
   12.2565    6.1647   -0.9586 H   0  0  0  0  0  0  0  0  0  0  0  0
    6.2461    0.0245   -0.0051 H   0  0  0  0  0  0  0  0  0  0  0  0
    2.5727   -2.0669   -0.0162 H   0  0  0  0  0  0  0  0  0  0  0  0
    6.3569   -2.1622   -0.0254 H   0  0  0  0  0  0  0  0  0  0  0  0
    5.0775   -2.9775   -0.9073 H   0  0  0  0  0  0  0  0  0  0  0  0
    5.0888   -2.9700    0.8922 H   0  0  0  0  0  0  0  0  0  0  0  0
  1  2  1  0  0  0  0
  1 33  1  0  0  0  0
  1 34  1  0  0  0  0
  1 35  1  0  0  0  0
  2  3  2  0  0  0  0
  2 31  1  0  0  0  0
  3  4  1  0  0  0  0
  3 36  1  0  0  0  0
  4  5  1  0  0  0  0
  4 29  2  0  0  0  0
  5  6  1  0  0  0  0
  5 37  1  0  0  0  0
  5 38  1  0  0  0  0
  6  7  1  0  0  0  0
  6 39  1  0  0  0  0
  7  8  2  0  0  0  0
  7  9  1  0  0  0  0
  9 10  2  0  0  0  0
  9 13  1  0  0  0  0
 10 11  1  0  0  0  0
 10 40  1  0  0  0  0
 11 12  2  0  0  0  0
 11 27  1  0  0  0  0
 12 13  1  0  0  0  0
 12 24  1  0  0  0  0
 13 14  1  0  0  0  0
 14 15  1  0  0  0  0
 14 41  1  0  0  0  0
 14 42  1  0  0  0  0
 15 16  2  0  0  0  0
 15 20  1  0  0  0  0
 16 17  1  0  0  0  0
 16 43  1  0  0  0  0
 17 18  2  0  0  0  0
 17 44  1  0  0  0  0
 18 19  1  0  0  0  0
 18 45  1  0  0  0  0
 19 20  2  0  0  0  0
 19 21  1  0  0  0  0
 20 46  1  0  0  0  0
 21 22  2  0  0  0  0
 21 23  1  0  0  0  0
 22 47  1  0  0  0  0
 23 48  1  0  0  0  0
 23 49  1  0  0  0  0
 24 25  2  0  0  0  0
 24 50  1  0  0  0  0
 25 26  1  0  0  0  0
 25 51  1  0  0  0  0
 26 27  2  0  0  0  0
 26 52  1  0  0  0  0
 27 28  1  0  0  0  0
 28 53  1  0  0  0  0
 28 54  1  0  0  0  0
 28 55  1  0  0  0  0
 29 30  1  0  0  0  0
 29 56  1  0  0  0  0
 30 31  2  0  0  0  0
 30 32  1  0  0  0  0
 31 57  1  0  0  0  0
 32 58  1  0  0  0  0
 32 59  1  0  0  0  0
 32 60  1  0  0  0  0
M  END
$$$$
