CMM
 OpenBabel04121316093D

 76 79  0  0  1  0  0  0  0  0999 V2000
    4.3894    2.6388    2.0279 C   0  0  0  0  0  0  0  0  0  0  0  0
    4.0618    2.0391    0.7750 O   0  0  0  0  0  0  0  0  0  0  0  0
    5.1178    1.3434    0.2430 C   0  0  0  0  0  0  0  0  0  0  0  0
    6.2429    1.3724    0.7205 O   0  0  0  0  0  0  0  0  0  0  0  0
    4.6418    0.5310   -0.9950 C   0  0  2  0  0  0  0  0  0  0  0  0
    3.5444    0.5686   -1.0490 H   0  0  0  0  0  0  0  0  0  0  0  0
    5.0768   -0.9472   -0.9303 C   0  0  0  0  0  0  0  0  0  0  0  0
    4.6093   -1.6823    0.2803 C   0  0  0  0  0  0  0  0  0  0  0  0
    5.0094   -3.0065    0.4702 C   0  0  0  0  0  0  0  0  0  0  0  0
    4.5227   -3.7016    1.5567 C   0  0  0  0  0  0  0  0  0  0  0  0
    3.7891   -3.0129    2.5226 C   0  0  0  0  0  0  0  0  0  0  0  0
    3.5493   -1.6585    2.4152 C   0  0  0  0  0  0  0  0  0  0  0  0
    3.8314   -1.0487    1.2407 C   0  0  0  0  0  0  0  0  0  0  0  0
    3.1800   -3.7629    3.6343 C   0  0  0  0  0  0  0  0  0  0  0  0
    2.3794   -2.8789    4.5929 C   0  0  0  0  0  0  0  0  0  0  0  0
    1.8043   -3.6659    5.7105 C   0  0  0  0  0  0  0  0  0  0  0  0
    2.0139   -5.0577    5.7332 C   0  0  0  0  0  0  0  0  0  0  0  0
    1.6160   -5.8262    6.7752 C   0  0  0  0  0  0  0  0  0  0  0  0
    0.9682   -5.2124    7.8202 C   0  0  0  0  0  0  0  0  0  0  0  0
    0.6759   -3.8319    7.8654 C   0  0  0  0  0  0  0  0  0  0  0  0
    1.1063   -3.0717    6.7787 C   0  0  0  0  0  0  0  0  0  0  0  0
    0.7356   -1.7649    7.0145 N   0  0  0  0  0  0  0  0  0  0  0  0
    0.9110   -0.9853    6.3898 H   0  0  0  0  0  0  0  0  0  0  0  0
    0.0850   -1.6795    8.2208 C   0  0  0  0  0  0  0  0  0  0  0  0
    0.0299   -2.9485    8.7942 C   0  0  0  0  0  0  0  0  0  0  0  0
   -0.5849   -3.2456   10.0978 C   0  0  0  0  0  0  0  0  0  0  0  0
   -1.1114   -2.3650   10.7873 O   0  0  0  0  0  0  0  0  0  0  0  0
   -0.6373   -4.6658   10.7358 C   0  0  0  0  0  0  0  0  0  0  0  0
   -0.1932   -5.6940   10.2665 O   0  0  0  0  0  0  0  0  0  0  0  0
   -1.2503   -4.6937   11.9300 O   0  0  0  0  0  0  0  0  0  0  0  0
    5.1299    1.1835   -2.1863 N   0  0  0  0  0  0  0  0  0  0  0  0
    6.4849    1.2147   -2.3810 C   0  0  0  0  0  0  0  0  0  0  0  0
    7.2900    0.7100   -1.6101 O   0  0  0  0  0  0  0  0  0  0  0  0
    6.9076    1.9025   -3.6241 C   0  0  0  0  0  0  0  0  0  0  0  0
    8.4508    1.9261   -3.6742 C   0  0  1  0  0  0  0  0  0  0  0  0
    8.9115    1.5437   -2.7559 H   0  0  0  0  0  0  0  0  0  0  0  0
    8.9579    1.0418   -4.8103 C   0  0  0  0  0  0  0  0  0  0  0  0
    8.5396    1.6439   -6.1424 C   0  0  0  0  0  0  0  0  0  0  0  0
    9.0366    3.0852   -6.2435 C   0  0  0  0  0  0  0  0  0  0  0  0
    8.5293    3.8952   -5.1194 N   0  0  0  0  0  0  0  0  0  0  0  0
    8.9509    3.3618   -3.8187 C   0  0  0  0  0  0  0  0  0  0  0  0
    7.7662    5.0204   -5.2884 C   0  0  0  0  0  0  0  0  0  0  0  0
    7.3639    5.5259   -6.4049 N   0  0  0  0  0  0  0  0  0  0  0  0
    7.3228    5.6740   -4.2014 N   0  0  0  0  0  0  0  0  0  0  0  0
    3.4721    3.0452    2.4589 H   0  0  0  0  0  0  0  0  0  0  0  0
    5.1040    3.4487    1.8662 H   0  0  0  0  0  0  0  0  0  0  0  0
    4.7935    1.8987    2.7307 H   0  0  0  0  0  0  0  0  0  0  0  0
    6.1650   -1.0522   -0.9283 H   0  0  0  0  0  0  0  0  0  0  0  0
    4.7110   -1.4768   -1.8195 H   0  0  0  0  0  0  0  0  0  0  0  0
    5.6731   -3.4998   -0.2338 H   0  0  0  0  0  0  0  0  0  0  0  0
    4.7087   -4.7675    1.6573 H   0  0  0  0  0  0  0  0  0  0  0  0
    3.0709   -1.0581    3.1793 H   0  0  0  0  0  0  0  0  0  0  0  0
    3.4171   -0.0608    1.1513 H   0  0  0  0  0  0  0  0  0  0  0  0
    3.9898   -4.2801    4.1631 H   0  0  0  0  0  0  0  0  0  0  0  0
    2.5071   -4.5036    3.1764 H   0  0  0  0  0  0  0  0  0  0  0  0
    1.5605   -2.3698    4.0653 H   0  0  0  0  0  0  0  0  0  0  0  0
    3.0407   -2.1187    5.0313 H   0  0  0  0  0  0  0  0  0  0  0  0
    2.5311   -5.5944    4.9457 H   0  0  0  0  0  0  0  0  0  0  0  0
    1.8200   -6.8894    6.7922 H   0  0  0  0  0  0  0  0  0  0  0  0
    0.7212   -5.9147    8.5879 H   0  0  0  0  0  0  0  0  0  0  0  0
   -0.2814   -0.7199    8.5725 H   0  0  0  0  0  0  0  0  0  0  0  0
   -1.5548   -3.7998   12.1822 H   0  0  0  0  0  0  0  0  0  0  0  0
    4.4805    1.5123   -2.8910 H   0  0  0  0  0  0  0  0  0  0  0  0
    6.4696    2.9059   -3.6211 H   0  0  0  0  0  0  0  0  0  0  0  0
    6.4599    1.3355   -4.4467 H   0  0  0  0  0  0  0  0  0  0  0  0
    8.5750    0.0195   -4.7057 H   0  0  0  0  0  0  0  0  0  0  0  0
   10.0522    0.9781   -4.7592 H   0  0  0  0  0  0  0  0  0  0  0  0
    7.4483    1.6306   -6.2460 H   0  0  0  0  0  0  0  0  0  0  0  0
    8.9353    1.0361   -6.9601 H   0  0  0  0  0  0  0  0  0  0  0  0
    8.7330    3.4610   -7.2203 H   0  0  0  0  0  0  0  0  0  0  0  0
   10.1324    3.0980   -6.2281 H   0  0  0  0  0  0  0  0  0  0  0  0
    8.5940    3.9348   -2.9575 H   0  0  0  0  0  0  0  0  0  0  0  0
   10.0456    3.3824   -3.7508 H   0  0  0  0  0  0  0  0  0  0  0  0
    7.6955    4.9732   -7.1882 H   0  0  0  0  0  0  0  0  0  0  0  0
    7.6471    5.5307   -3.2633 H   0  0  0  0  0  0  0  0  0  0  0  0
    6.8522    6.5490   -4.3946 H   0  0  0  0  0  0  0  0  0  0  0  0
  1  2  1  0  0  0  0
  1 45  1  0  0  0  0
  1 46  1  0  0  0  0
  1 47  1  0  0  0  0
  2  3  1  0  0  0  0
  3  4  2  0  0  0  0
  5  7  1  0  0  0  0
  5 31  1  0  0  0  0
  5  6  1  6  0  0  0
  5  3  1  0  0  0  0
  7  8  1  0  0  0  0
  7 48  1  0  0  0  0
  7 49  1  0  0  0  0
  8  9  2  0  0  0  0
  8 13  1  0  0  0  0
  9 10  1  0  0  0  0
  9 50  1  0  0  0  0
 10 11  2  0  0  0  0
 10 51  1  0  0  0  0
 11 12  1  0  0  0  0
 11 14  1  0  0  0  0
 12 13  2  0  0  0  0
 12 52  1  0  0  0  0
 13 53  1  0  0  0  0
 14 15  1  0  0  0  0
 14 54  1  0  0  0  0
 14 55  1  0  0  0  0
 15 16  1  0  0  0  0
 15 56  1  0  0  0  0
 15 57  1  0  0  0  0
 16 17  2  0  0  0  0
 16 21  1  0  0  0  0
 17 18  1  0  0  0  0
 17 58  1  0  0  0  0
 18 19  2  0  0  0  0
 18 59  1  0  0  0  0
 19 20  1  0  0  0  0
 19 60  1  0  0  0  0
 20 21  2  0  0  0  0
 20 25  1  0  0  0  0
 21 22  1  0  0  0  0
 22 23  1  0  0  0  0
 22 24  1  0  0  0  0
 24 25  2  0  0  0  0
 24 61  1  0  0  0  0
 25 26  1  0  0  0  0
 26 27  2  0  0  0  0
 26 28  1  0  0  0  0
 28 29  2  0  0  0  0
 28 30  1  0  0  0  0
 30 62  1  0  0  0  0
 31 32  1  0  0  0  0
 31 63  1  0  0  0  0
 32 33  2  0  0  0  0
 32 34  1  0  0  0  0
 34 35  1  0  0  0  0
 34 64  1  0  0  0  0
 34 65  1  0  0  0  0
 35 36  1  1  0  0  0
 35 37  1  0  0  0  0
 35 41  1  0  0  0  0
 37 38  1  0  0  0  0
 37 66  1  0  0  0  0
 37 67  1  0  0  0  0
 38 39  1  0  0  0  0
 38 68  1  0  0  0  0
 38 69  1  0  0  0  0
 39 40  1  0  0  0  0
 39 70  1  0  0  0  0
 39 71  1  0  0  0  0
 40 41  1  0  0  0  0
 40 42  1  0  0  0  0
 41 72  1  0  0  0  0
 41 73  1  0  0  0  0
 42 43  2  0  0  0  0
 42 44  1  0  0  0  0
 43 74  1  0  0  0  0
 44 75  1  0  0  0  0
 44 76  1  0  0  0  0
M  END
$$$$
