CMZ
 OpenBabel04121316093D

 42 43  0  0  1  0  0  0  0  0999 V2000
    1.0266   -0.8533   -0.3016 O   0  0  0  0  0  0  0  0  0  0  0  0
    2.3726   -0.3877   -0.0965 C   0  0  1  0  0  0  0  0  0  0  0  0
    2.4840    0.6527   -0.3796 H   0  0  0  0  0  0  0  0  0  0  0  0
    2.8855   -0.5757    1.3568 C   0  0  0  0  0  0  0  0  0  0  0  0
    2.3797    0.3785    2.3879 N   0  0  0  0  0  0  0  0  0  0  0  0
    3.1840    1.6148    2.5197 C   0  0  0  0  0  0  0  0  0  0  0  0
    3.0166    2.5808    1.3413 C   0  0  0  0  0  0  0  0  0  0  0  0
    1.6383    2.9601    1.1778 O   0  0  0  0  0  0  0  0  0  0  0  0
    0.7622    1.8331    1.0624 C   0  0  0  0  0  0  0  0  0  0  0  0
    0.9793    0.7968    2.2025 C   0  0  0  0  0  0  0  0  0  0  0  0
    3.1073   -1.0745   -1.2053 C   0  0  0  0  0  0  0  0  0  0  0  0
    4.5105   -1.0213   -1.0223 O   0  0  0  0  0  0  0  0  0  0  0  0
    5.0626   -1.8280   -1.9765 C   0  0  0  0  0  0  0  0  0  0  0  0
    5.7258   -1.1992   -3.0286 C   0  0  0  0  0  0  0  0  0  0  0  0
    6.1296   -1.9377   -4.1317 C   0  0  0  0  0  0  0  0  0  0  0  0
    6.6738   -1.2840   -5.3628 C   0  0  0  0  0  0  0  0  0  0  0  0
    5.9610   -3.3365   -4.1042 C   0  0  0  0  0  0  0  0  0  0  0  0
    5.3881   -3.9634   -2.9997 C   0  0  0  0  0  0  0  0  0  0  0  0
    4.8982   -3.2311   -1.9277 C   0  0  0  0  0  0  0  0  0  0  0  0
    4.1783   -3.9362   -0.8090 C   0  0  0  0  0  0  0  0  0  0  0  0
    0.4169   -0.5038    0.3522 H   0  0  0  0  0  0  0  0  0  0  0  0
    3.9840   -0.5687    1.3963 H   0  0  0  0  0  0  0  0  0  0  0  0
    2.5930   -1.5790    1.6944 H   0  0  0  0  0  0  0  0  0  0  0  0
    4.2395    1.3871    2.7044 H   0  0  0  0  0  0  0  0  0  0  0  0
    2.8309    2.1391    3.4201 H   0  0  0  0  0  0  0  0  0  0  0  0
    3.4323    2.1638    0.4188 H   0  0  0  0  0  0  0  0  0  0  0  0
    3.5805    3.4996    1.5239 H   0  0  0  0  0  0  0  0  0  0  0  0
    0.8729    1.4597    0.0466 H   0  0  0  0  0  0  0  0  0  0  0  0
   -0.2777    2.1673    1.0673 H   0  0  0  0  0  0  0  0  0  0  0  0
    0.3440   -0.0923    2.1247 H   0  0  0  0  0  0  0  0  0  0  0  0
    0.6450    1.2695    3.1331 H   0  0  0  0  0  0  0  0  0  0  0  0
    2.8168   -0.6017   -2.1565 H   0  0  0  0  0  0  0  0  0  0  0  0
    2.6919   -2.0739   -1.2695 H   0  0  0  0  0  0  0  0  0  0  0  0
    5.8705   -0.1143   -3.0027 H   0  0  0  0  0  0  0  0  0  0  0  0
    6.7684   -0.1995   -5.2369 H   0  0  0  0  0  0  0  0  0  0  0  0
    5.9941   -1.4619   -6.2033 H   0  0  0  0  0  0  0  0  0  0  0  0
    7.6603   -1.6880   -5.6051 H   0  0  0  0  0  0  0  0  0  0  0  0
    6.2674   -3.9341   -4.9543 H   0  0  0  0  0  0  0  0  0  0  0  0
    5.3029   -5.0521   -2.9913 H   0  0  0  0  0  0  0  0  0  0  0  0
    4.3169   -5.0181   -0.8707 H   0  0  0  0  0  0  0  0  0  0  0  0
    3.0926   -3.8086   -0.8542 H   0  0  0  0  0  0  0  0  0  0  0  0
    4.5361   -3.5888    0.1637 H   0  0  0  0  0  0  0  0  0  0  0  0
  1  2  1  0  0  0  0
  1 21  1  0  0  0  0
  2  3  1  6  0  0  0
  2  4  1  0  0  0  0
  2 11  1  0  0  0  0
  4  5  1  0  0  0  0
  4 22  1  0  0  0  0
  4 23  1  0  0  0  0
  5  6  1  0  0  0  0
  5 10  1  0  0  0  0
  6  7  1  0  0  0  0
  6 24  1  0  0  0  0
  6 25  1  0  0  0  0
  7  8  1  0  0  0  0
  7 26  1  0  0  0  0
  7 27  1  0  0  0  0
  8  9  1  0  0  0  0
  9 10  1  0  0  0  0
  9 28  1  0  0  0  0
  9 29  1  0  0  0  0
 10 30  1  0  0  0  0
 10 31  1  0  0  0  0
 11 12  1  0  0  0  0
 11 32  1  0  0  0  0
 11 33  1  0  0  0  0
 12 13  1  0  0  0  0
 13 14  2  0  0  0  0
 13 19  1  0  0  0  0
 14 15  1  0  0  0  0
 14 34  1  0  0  0  0
 15 16  1  0  0  0  0
 15 17  2  0  0  0  0
 16 35  1  0  0  0  0
 16 36  1  0  0  0  0
 16 37  1  0  0  0  0
 17 18  1  0  0  0  0
 17 38  1  0  0  0  0
 18 19  2  0  0  0  0
 18 39  1  0  0  0  0
 19 20  1  0  0  0  0
 20 40  1  0  0  0  0
 20 41  1  0  0  0  0
 20 42  1  0  0  0  0
M  END
$$$$
