CNE
 OpenBabel04121316093D

 80 81  0  0  1  0  0  0  0  0999 V2000
    2.4849   -3.2382    0.6012 C   0  0  0  0  0  0  0  0  0  0  0  0
    2.5640   -1.7436    0.8987 C   0  0  0  0  0  0  0  0  0  0  0  0
    1.2421   -1.2382    1.0651 O   0  0  0  0  0  0  0  0  0  0  0  0
    1.1009    0.1125    0.9530 C   0  0  0  0  0  0  0  0  0  0  0  0
    0.4162    0.7189    1.9978 C   0  0  0  0  0  0  0  0  0  0  0  0
   -0.0232    2.0430    1.9095 C   0  0  0  0  0  0  0  0  0  0  0  0
    0.2427    2.8129    0.7783 C   0  0  0  0  0  0  0  0  0  0  0  0
    1.0196    2.2265   -0.2249 C   0  0  0  0  0  0  0  0  0  0  0  0
    1.4083    0.8533   -0.1771 C   0  0  0  0  0  0  0  0  0  0  0  0
    1.9315    0.2411   -1.4452 C   0  0  0  0  0  0  0  0  0  0  0  0
    1.6301   -1.2046   -1.8107 C   0  0  0  0  0  0  0  0  0  0  0  0
    0.7019   -1.8756   -1.3387 O   0  0  0  0  0  0  0  0  0  0  0  0
    2.2160   -1.7953   -2.8682 N   0  0  0  0  0  0  0  0  0  0  0  0
    2.5135   -1.2195   -4.1778 C   0  0  2  0  0  0  0  0  0  0  0  0
    2.8385   -0.1838   -4.0440 H   0  0  0  0  0  0  0  0  0  0  0  0
    1.2875   -1.2040   -5.1880 C   0  0  0  0  0  0  0  0  0  0  0  0
    1.4014   -1.5976   -6.3513 O   0  0  0  0  0  0  0  0  0  0  0  0
    0.0763   -0.6423   -4.8828 N   0  0  0  0  0  0  0  0  0  0  0  0
   -0.2405    0.2405   -3.7948 C   0  0  2  0  0  0  0  0  0  0  0  0
    0.0980   -0.3635   -2.9837 H   0  0  0  0  0  0  0  0  0  0  0  0
   -1.6437    0.3861   -3.2497 C   0  0  0  0  0  0  0  0  0  0  0  0
   -1.9887    1.4851   -2.8023 O   0  0  0  0  0  0  0  0  0  0  0  0
   -2.4006   -0.9202   -3.0083 C   0  0  0  0  0  0  0  0  0  0  0  0
   -3.8642   -0.5087   -2.0509 S   0  0  0  0  0  0  0  0  0  0  0  0
   -5.0912   -1.7164   -2.5830 C   0  0  0  0  0  0  0  0  0  0  0  0
   -6.4904   -1.1875   -2.3567 C   0  0  0  0  0  0  0  0  0  0  0  0
   -7.4674   -2.1173   -1.9864 C   0  0  0  0  0  0  0  0  0  0  0  0
   -7.1892   -3.4293   -2.0268 F   0  0  0  0  0  0  0  0  0  0  0  0
   -8.7238   -1.7211   -1.5388 C   0  0  0  0  0  0  0  0  0  0  0  0
   -8.9804   -0.3727   -1.3271 C   0  0  0  0  0  0  0  0  0  0  0  0
   -8.0820    0.5700   -1.8060 C   0  0  0  0  0  0  0  0  0  0  0  0
   -6.8939    0.1627   -2.4151 C   0  0  0  0  0  0  0  0  0  0  0  0
   -6.0652    1.4162   -3.2816 Cl  0  0  0  0  0  0  0  0  0  0  0  0
    0.4788    1.6004   -3.8371 C   0  0  0  0  0  0  0  0  0  0  0  0
   -0.0661    2.4718   -4.9024 C   0  0  0  0  0  0  0  0  0  0  0  0
   -0.9177    2.1198   -5.7026 O   0  0  0  0  0  0  0  0  0  0  0  0
    0.5169    3.6913   -4.9039 O   0  0  0  0  0  0  0  0  0  0  0  0
    3.6963   -2.0387   -4.7509 C   0  0  0  0  0  0  0  0  0  0  0  0
    4.8865   -2.0087   -3.7761 C   0  0  0  0  0  0  0  0  0  0  0  0
    3.3016   -3.5029   -5.0149 C   0  0  0  0  0  0  0  0  0  0  0  0
   -0.3177    4.1736    0.6993 C   0  0  0  0  0  0  0  0  0  0  0  0
   -0.2363    5.0094   -0.3480 C   0  0  0  0  0  0  0  0  0  0  0  0
   -0.8241    6.3592   -0.2417 C   0  0  0  0  0  0  0  0  0  0  0  0
   -1.4128    6.7974    0.7335 O   0  0  0  0  0  0  0  0  0  0  0  0
   -0.5584    7.0281   -1.3919 O   0  0  0  0  0  0  0  0  0  0  0  0
   -1.0775    8.3575   -1.3860 C   0  0  0  0  0  0  0  0  0  0  0  0
    3.4795   -3.6834    0.6480 H   0  0  0  0  0  0  0  0  0  0  0  0
    2.0904   -3.4704   -0.3945 H   0  0  0  0  0  0  0  0  0  0  0  0
    1.8101   -3.7332    1.3042 H   0  0  0  0  0  0  0  0  0  0  0  0
    3.1402   -1.2484    0.1107 H   0  0  0  0  0  0  0  0  0  0  0  0
    3.0899   -1.5684    1.8354 H   0  0  0  0  0  0  0  0  0  0  0  0
    0.1916    0.1282    2.8789 H   0  0  0  0  0  0  0  0  0  0  0  0
   -0.5962    2.4517    2.7370 H   0  0  0  0  0  0  0  0  0  0  0  0
    1.2627    2.8175   -1.1046 H   0  0  0  0  0  0  0  0  0  0  0  0
    2.8716    0.6513   -1.8233 H   0  0  0  0  0  0  0  0  0  0  0  0
    1.2117    0.7045   -2.0638 H   0  0  0  0  0  0  0  0  0  0  0  0
    1.9086   -2.7604   -2.9043 H   0  0  0  0  0  0  0  0  0  0  0  0
   -0.5589   -0.6108   -5.6739 H   0  0  0  0  0  0  0  0  0  0  0  0
   -1.8093   -1.5628   -2.3483 H   0  0  0  0  0  0  0  0  0  0  0  0
   -2.5602   -1.4304   -3.9629 H   0  0  0  0  0  0  0  0  0  0  0  0
   -4.9049   -2.5350   -1.8743 H   0  0  0  0  0  0  0  0  0  0  0  0
   -4.9741   -2.1246   -3.5927 H   0  0  0  0  0  0  0  0  0  0  0  0
   -9.4807   -2.4675   -1.3256 H   0  0  0  0  0  0  0  0  0  0  0  0
   -9.8884   -0.0488   -0.8296 H   0  0  0  0  0  0  0  0  0  0  0  0
   -8.3140    1.6298   -1.7291 H   0  0  0  0  0  0  0  0  0  0  0  0
    1.5598    1.4957   -3.9861 H   0  0  0  0  0  0  0  0  0  0  0  0
    0.3160    2.1591   -2.9075 H   0  0  0  0  0  0  0  0  0  0  0  0
    1.1771    3.8359   -4.1978 H   0  0  0  0  0  0  0  0  0  0  0  0
    4.0116   -1.5825   -5.6977 H   0  0  0  0  0  0  0  0  0  0  0  0
    4.6429   -2.4947   -2.8228 H   0  0  0  0  0  0  0  0  0  0  0  0
    5.1868   -0.9796   -3.5530 H   0  0  0  0  0  0  0  0  0  0  0  0
    5.7461   -2.5393   -4.1943 H   0  0  0  0  0  0  0  0  0  0  0  0
    3.0159   -4.0212   -4.0937 H   0  0  0  0  0  0  0  0  0  0  0  0
    4.1337   -4.0537   -5.4584 H   0  0  0  0  0  0  0  0  0  0  0  0
    2.4548   -3.5874   -5.7004 H   0  0  0  0  0  0  0  0  0  0  0  0
   -0.8638    4.5037    1.5845 H   0  0  0  0  0  0  0  0  0  0  0  0
    0.2489    4.7676   -1.2814 H   0  0  0  0  0  0  0  0  0  0  0  0
   -0.8325    8.8289   -2.3412 H   0  0  0  0  0  0  0  0  0  0  0  0
   -0.6172    8.9411   -0.5821 H   0  0  0  0  0  0  0  0  0  0  0  0
   -2.1664    8.3386   -1.2755 H   0  0  0  0  0  0  0  0  0  0  0  0
  1  2  1  0  0  0  0
  1 47  1  0  0  0  0
  1 48  1  0  0  0  0
  1 49  1  0  0  0  0
  2  3  1  0  0  0  0
  2 50  1  0  0  0  0
  2 51  1  0  0  0  0
  3  4  1  0  0  0  0
  4  5  2  0  0  0  0
  4  9  1  0  0  0  0
  5  6  1  0  0  0  0
  5 52  1  0  0  0  0
  6  7  2  0  0  0  0
  6 53  1  0  0  0  0
  7  8  1  0  0  0  0
  7 41  1  0  0  0  0
  8  9  2  0  0  0  0
  8 54  1  0  0  0  0
  9 10  1  0  0  0  0
 10 11  1  0  0  0  0
 10 55  1  0  0  0  0
 10 56  1  0  0  0  0
 11 12  2  0  0  0  0
 11 13  1  0  0  0  0
 13 57  1  0  0  0  0
 14 16  1  0  0  0  0
 14 38  1  0  0  0  0
 14 15  1  1  0  0  0
 14 13  1  0  0  0  0
 16 17  2  0  0  0  0
 16 18  1  0  0  0  0
 18 58  1  0  0  0  0
 19 21  1  0  0  0  0
 19 34  1  0  0  0  0
 19 20  1  1  0  0  0
 19 18  1  0  0  0  0
 21 22  2  0  0  0  0
 21 23  1  0  0  0  0
 23 24  1  0  0  0  0
 23 59  1  0  0  0  0
 23 60  1  0  0  0  0
 24 25  1  0  0  0  0
 25 26  1  0  0  0  0
 25 61  1  0  0  0  0
 25 62  1  0  0  0  0
 26 27  2  0  0  0  0
 26 32  1  0  0  0  0
 27 28  1  0  0  0  0
 27 29  1  0  0  0  0
 29 30  2  0  0  0  0
 29 63  1  0  0  0  0
 30 31  1  0  0  0  0
 30 64  1  0  0  0  0
 31 32  2  0  0  0  0
 31 65  1  0  0  0  0
 32 33  1  0  0  0  0
 34 35  1  0  0  0  0
 34 66  1  0  0  0  0
 34 67  1  0  0  0  0
 35 36  2  0  0  0  0
 35 37  1  0  0  0  0
 37 68  1  0  0  0  0
 38 39  1  0  0  0  0
 38 40  1  0  0  0  0
 38 69  1  0  0  0  0
 39 70  1  0  0  0  0
 39 71  1  0  0  0  0
 39 72  1  0  0  0  0
 40 73  1  0  0  0  0
 40 74  1  0  0  0  0
 40 75  1  0  0  0  0
 41 42  2  0  0  0  0
 41 76  1  0  0  0  0
 42 43  1  0  0  0  0
 42 77  1  0  0  0  0
 43 44  2  0  0  0  0
 43 45  1  0  0  0  0
 45 46  1  0  0  0  0
 46 78  1  0  0  0  0
 46 79  1  0  0  0  0
 46 80  1  0  0  0  0
M  END
$$$$
