CNH
 OpenBabel04121316093D

 13 12  0  0  0  0  0  0  0  0999 V2000
    1.0793    0.0569   -0.0217 N   0  0  0  0  0  0  0  0  0  0  0  0
    2.2303    0.0569   -0.0217 C   0  0  0  0  0  0  0  0  0  0  0  0
    3.6743    0.0569   -0.0217 C   0  0  0  0  0  0  0  0  0  0  0  0
    4.2028    1.3844   -0.1514 O   0  0  0  0  0  0  0  0  0  0  0  0
    4.1963   -0.5312    1.2921 C   0  0  0  0  0  0  0  0  0  0  0  0
    4.1972   -0.7649   -1.2007 C   0  0  0  0  0  0  0  0  0  0  0  0
    3.8150    1.9268    0.5570 H   0  0  0  0  0  0  0  0  0  0  0  0
    3.8572    0.0612    2.1506 H   0  0  0  0  0  0  0  0  0  0  0  0
    5.2917   -0.5221    1.3197 H   0  0  0  0  0  0  0  0  0  0  0  0
    3.8539   -1.5621    1.4396 H   0  0  0  0  0  0  0  0  0  0  0  0
    3.8586   -0.3435   -2.1550 H   0  0  0  0  0  0  0  0  0  0  0  0
    3.8553   -1.8055   -1.1525 H   0  0  0  0  0  0  0  0  0  0  0  0
    5.2927   -0.7618   -1.2286 H   0  0  0  0  0  0  0  0  0  0  0  0
  1  2  3  0  0  0  0
  2  3  1  0  0  0  0
  3  4  1  0  0  0  0
  3  5  1  0  0  0  0
  3  6  1  0  0  0  0
  4  7  1  0  0  0  0
  5  8  1  0  0  0  0
  5  9  1  0  0  0  0
  5 10  1  0  0  0  0
  6 11  1  0  0  0  0
  6 12  1  0  0  0  0
  6 13  1  0  0  0  0
M  END
$$$$
