CNL
 OpenBabel04121316093D

 29 30  0  0  1  0  0  0  0  0999 V2000
    1.0004   -0.0264   -0.1108 C   0  0  0  0  0  0  0  0  0  0  0  0
    2.5276   -0.0707   -0.0629 C   0  0  2  0  0  0  0  0  0  0  0  0
    3.0286   -1.4943   -0.3668 C   0  0  0  0  0  0  0  0  0  0  0  0
    4.5587   -1.5269   -0.3023 C   0  0  0  0  0  0  0  0  0  0  0  0
    5.0824   -0.1050   -0.0274 C   0  0  2  0  0  0  0  0  0  0  0  0
    6.1800   -0.1004   -0.0335 H   0  0  0  0  0  0  0  0  0  0  0  0
    4.5601    0.3082    1.3612 C   0  0  0  0  0  0  0  0  0  0  0  0
    3.0300    0.3703    1.3238 C   0  0  0  0  0  0  0  0  0  0  0  0
    4.5088    0.8648   -1.0968 C   0  0  0  0  0  0  0  0  0  0  0  0
    3.0605    0.8323   -1.0590 O   0  0  0  0  0  0  0  0  0  0  0  0
    4.9673    2.3131   -0.8546 C   0  0  0  0  0  0  0  0  0  0  0  0
    4.9647    0.4808   -2.5151 C   0  0  0  0  0  0  0  0  0  0  0  0
    0.5624   -0.7013    0.6336 H   0  0  0  0  0  0  0  0  0  0  0  0
    0.6267   -0.3177   -1.0983 H   0  0  0  0  0  0  0  0  0  0  0  0
    0.6274    0.9850    0.0830 H   0  0  0  0  0  0  0  0  0  0  0  0
    2.7039   -1.8049   -1.3677 H   0  0  0  0  0  0  0  0  0  0  0  0
    2.6129   -2.2153    0.3471 H   0  0  0  0  0  0  0  0  0  0  0  0
    4.9645   -1.9293   -1.2362 H   0  0  0  0  0  0  0  0  0  0  0  0
    4.8858   -2.2153    0.4854 H   0  0  0  0  0  0  0  0  0  0  0  0
    4.9668    1.2767    1.6698 H   0  0  0  0  0  0  0  0  0  0  0  0
    4.8874   -0.4085    2.1232 H   0  0  0  0  0  0  0  0  0  0  0  0
    2.7062    1.3969    1.5356 H   0  0  0  0  0  0  0  0  0  0  0  0
    2.6145   -0.2697    2.1113 H   0  0  0  0  0  0  0  0  0  0  0  0
    4.5700    2.7256    0.0770 H   0  0  0  0  0  0  0  0  0  0  0  0
    4.6068    2.9783   -1.6473 H   0  0  0  0  0  0  0  0  0  0  0  0
    6.0616    2.3778   -0.8269 H   0  0  0  0  0  0  0  0  0  0  0  0
    4.5652   -0.4860   -2.8336 H   0  0  0  0  0  0  0  0  0  0  0  0
    6.0589    0.4450   -2.5782 H   0  0  0  0  0  0  0  0  0  0  0  0
    4.6044    1.2050   -3.2543 H   0  0  0  0  0  0  0  0  0  0  0  0
  1 13  1  0  0  0  0
  1 14  1  0  0  0  0
  1 15  1  0  0  0  0
  2  1  1  6  0  0  0
  2  3  1  0  0  0  0
  2  8  1  0  0  0  0
  2 10  1  0  0  0  0
  3  4  1  0  0  0  0
  3 16  1  0  0  0  0
  3 17  1  0  0  0  0
  4  5  1  0  0  0  0
  4 18  1  0  0  0  0
  4 19  1  0  0  0  0
  5  6  1  6  0  0  0
  5  7  1  0  0  0  0
  5  9  1  0  0  0  0
  7  8  1  0  0  0  0
  7 20  1  0  0  0  0
  7 21  1  0  0  0  0
  8 22  1  0  0  0  0
  8 23  1  0  0  0  0
  9 10  1  0  0  0  0
  9 11  1  0  0  0  0
  9 12  1  0  0  0  0
 11 24  1  0  0  0  0
 11 25  1  0  0  0  0
 11 26  1  0  0  0  0
 12 27  1  0  0  0  0
 12 28  1  0  0  0  0
 12 29  1  0  0  0  0
M  END
$$$$
