CNP
 OpenBabel04121316093D

 46 46  0  0  1  0  0  0  0  0999 V2000
    3.3417    1.0001    2.5528 C   0  0  0  0  0  0  0  0  0  0  0  0
    3.4182    0.7538    1.2449 C   0  0  0  0  0  0  0  0  0  0  0  0
    4.6717    0.3904    0.4936 C   0  0  0  0  0  0  0  0  0  0  0  0
    4.4420   -0.0304   -0.9926 C   0  0  2  0  0  0  0  0  0  0  0  0
    5.0576   -1.4198   -1.1406 C   0  0  0  0  0  0  0  0  0  0  0  0
    4.8349   -1.9096   -2.5377 C   0  0  2  0  0  0  0  0  0  0  0  0
    3.7722   -1.9632   -2.7985 H   0  0  0  0  0  0  0  0  0  0  0  0
    5.3526   -3.2251   -2.6232 O   0  0  0  0  0  0  0  0  0  0  0  0
    5.5191   -0.9665   -3.5182 C   0  0  2  0  0  0  0  0  0  0  0  0
    6.6043   -0.9769   -3.3477 H   0  0  0  0  0  0  0  0  0  0  0  0
    5.0276    0.4883   -3.3217 C   0  0  1  0  0  0  0  0  0  0  0  0
    3.9778    0.5539   -3.6222 H   0  0  0  0  0  0  0  0  0  0  0  0
    5.0933    0.8914   -1.9095 O   0  0  0  0  0  0  0  0  0  0  0  0
    5.7614    1.5681   -4.1836 C   0  0  1  0  0  0  0  0  0  0  0  0
    6.8139    1.6401   -3.8843 H   0  0  0  0  0  0  0  0  0  0  0  0
    5.6461    1.3365   -5.7222 C   0  0  1  0  0  0  0  0  0  0  0  0
    4.5779    1.2682   -5.9709 H   0  0  0  0  0  0  0  0  0  0  0  0
    6.3180    2.3872   -6.5918 C   0  0  0  0  0  0  0  0  0  0  0  0
    5.7849    3.6824   -6.4762 O   0  0  0  0  0  0  0  0  0  0  0  0
    6.3036    0.1817   -6.2199 O   0  0  0  0  0  0  0  0  0  0  0  0
    5.1175    2.8202   -3.8656 O   0  0  0  0  0  0  0  0  0  0  0  0
    5.2623   -1.5061   -4.8489 N   0  0  0  0  0  0  0  0  0  0  0  0
    6.0398   -2.5484   -5.3368 C   0  0  0  0  0  0  0  0  0  0  0  0
    6.9727   -3.0452   -4.7225 O   0  0  0  0  0  0  0  0  0  0  0  0
    5.8037   -2.8587   -6.7801 C   0  0  0  0  0  0  0  0  0  0  0  0
    2.9264   -0.1243   -1.3051 C   0  0  0  0  0  0  0  0  0  0  0  0
    2.2203   -1.0905   -1.0145 O   0  0  0  0  0  0  0  0  0  0  0  0
    2.4211    0.9683   -1.9220 O   0  0  0  0  0  0  0  0  0  0  0  0
    2.3625    1.1961    2.9816 H   0  0  0  0  0  0  0  0  0  0  0  0
    4.2117    0.9968    3.1944 H   0  0  0  0  0  0  0  0  0  0  0  0
    2.4577    0.7592    0.7370 H   0  0  0  0  0  0  0  0  0  0  0  0
    5.1316   -0.4510    1.0398 H   0  0  0  0  0  0  0  0  0  0  0  0
    5.4011    1.2070    0.5562 H   0  0  0  0  0  0  0  0  0  0  0  0
    4.6139   -2.1404   -0.4441 H   0  0  0  0  0  0  0  0  0  0  0  0
    6.1378   -1.4071   -0.9298 H   0  0  0  0  0  0  0  0  0  0  0  0
    4.7873   -3.8178   -2.1058 H   0  0  0  0  0  0  0  0  0  0  0  0
    6.2313    2.0658   -7.6395 H   0  0  0  0  0  0  0  0  0  0  0  0
    7.3916    2.3951   -6.3673 H   0  0  0  0  0  0  0  0  0  0  0  0
    4.8181    3.5907   -6.5020 H   0  0  0  0  0  0  0  0  0  0  0  0
    6.4200   -0.4437   -5.4925 H   0  0  0  0  0  0  0  0  0  0  0  0
    5.4480    3.0997   -2.9912 H   0  0  0  0  0  0  0  0  0  0  0  0
    4.4782   -1.1652   -5.4018 H   0  0  0  0  0  0  0  0  0  0  0  0
    5.1716   -2.1107   -7.2660 H   0  0  0  0  0  0  0  0  0  0  0  0
    5.3635   -3.8499   -6.8732 H   0  0  0  0  0  0  0  0  0  0  0  0
    6.7858   -2.8278   -7.2627 H   0  0  0  0  0  0  0  0  0  0  0  0
    3.0993    1.6671   -2.0579 H   0  0  0  0  0  0  0  0  0  0  0  0
  1  2  2  0  0  0  0
  1 29  1  0  0  0  0
  1 30  1  0  0  0  0
  2  3  1  0  0  0  0
  2 31  1  0  0  0  0
  3 32  1  0  0  0  0
  3 33  1  0  0  0  0
  4  5  1  0  0  0  0
  4 13  1  0  0  0  0
  4 26  1  6  0  0  0
  4  3  1  0  0  0  0
  5  6  1  0  0  0  0
  5 34  1  0  0  0  0
  5 35  1  0  0  0  0
  6  7  1  6  0  0  0
  6  8  1  0  0  0  0
  6  9  1  0  0  0  0
  8 36  1  0  0  0  0
  9 11  1  0  0  0  0
  9 22  1  0  0  0  0
  9 10  1  1  0  0  0
 11 12  1  6  0  0  0
 11 13  1  0  0  0  0
 11 14  1  0  0  0  0
 14 15  1  1  0  0  0
 14 16  1  0  0  0  0
 14 21  1  0  0  0  0
 16 17  1  6  0  0  0
 16 18  1  0  0  0  0
 16 20  1  0  0  0  0
 18 19  1  0  0  0  0
 18 37  1  0  0  0  0
 18 38  1  0  0  0  0
 19 39  1  0  0  0  0
 20 40  1  0  0  0  0
 21 41  1  0  0  0  0
 22 23  1  0  0  0  0
 22 42  1  0  0  0  0
 23 24  2  0  0  0  0
 23 25  1  0  0  0  0
 25 43  1  0  0  0  0
 25 44  1  0  0  0  0
 25 45  1  0  0  0  0
 26 27  2  0  0  0  0
 26 28  1  0  0  0  0
 28 46  1  0  0  0  0
M  END
$$$$
