CO2
 OpenBabel04121316093D

  3  2  0  0  0  0  0  0  0  0999 V2000
    0.9786   -0.0812    0.0558 O   0  0  0  0  0  0  0  0  0  0  0  0
    2.1756   -0.0812    0.0558 C   0  0  0  0  0  0  0  0  0  0  0  0
    3.3726   -0.0812    0.0558 O   0  0  0  0  0  0  0  0  0  0  0  0
  1  2  2  0  0  0  0
  2  3  2  0  0  0  0
M  END
$$$$
