COG
 OpenBabel04121316093D

 46 48  0  0  0  0  0  0  0  0999 V2000
    0.5472   -0.0028    1.2639 C   0  0  0  0  0  0  0  0  0  0  0  0
    1.9232   -0.1126    1.5954 O   0  0  0  0  0  0  0  0  0  0  0  0
    2.7131    0.9980    1.5737 C   0  0  0  0  0  0  0  0  0  0  0  0
    2.2400    2.3013    1.3931 C   0  0  0  0  0  0  0  0  0  0  0  0
    3.1149    3.3859    1.3928 C   0  0  0  0  0  0  0  0  0  0  0  0
    4.4318    3.1994    1.7706 C   0  0  0  0  0  0  0  0  0  0  0  0
    4.9120    1.9001    1.9437 C   0  0  0  0  0  0  0  0  0  0  0  0
    4.0976    0.7868    1.6462 C   0  0  0  0  0  0  0  0  0  0  0  0
    4.8036   -0.5352    1.3337 C   0  0  0  0  0  0  0  0  0  0  0  0
    4.2533   -1.4951    0.3222 N   0  0  0  0  0  0  0  0  0  0  0  0
    3.2760   -1.2290   -0.6380 C   0  0  0  0  0  0  0  0  0  0  0  0
    2.2890   -2.1742   -0.9509 C   0  0  0  0  0  0  0  0  0  0  0  0
    1.0454   -1.7658   -1.4657 C   0  0  0  0  0  0  0  0  0  0  0  0
    0.7536   -0.4443   -1.7815 C   0  0  0  0  0  0  0  0  0  0  0  0
    1.7993    0.4854   -1.6550 C   0  0  0  0  0  0  0  0  0  0  0  0
    3.0760    0.0471   -1.1823 C   0  0  0  0  0  0  0  0  0  0  0  0
    1.3778    1.8227   -1.7424 C   0  0  0  0  0  0  0  0  0  0  0  0
    2.2741    2.8930   -1.5982 N   0  0  0  0  0  0  0  0  0  0  0  0
    0.1027    2.2014   -1.9111 N   0  0  0  0  0  0  0  0  0  0  0  0
   -0.8012    1.2286   -2.0521 C   0  0  0  0  0  0  0  0  0  0  0  0
   -0.5159   -0.0760   -2.0134 N   0  0  0  0  0  0  0  0  0  0  0  0
   -2.1126    1.6130   -2.2383 N   0  0  0  0  0  0  0  0  0  0  0  0
    4.6778   -2.8842    0.4997 C   0  0  0  0  0  0  0  0  0  0  0  0
    5.1586    4.3495    1.8785 O   0  0  0  0  0  0  0  0  0  0  0  0
    6.3852    4.2117    2.5780 C   0  0  0  0  0  0  0  0  0  0  0  0
    0.2353   -0.9526    0.8230 H   0  0  0  0  0  0  0  0  0  0  0  0
    0.3092    0.7806    0.5449 H   0  0  0  0  0  0  0  0  0  0  0  0
   -0.0418    0.1469    2.1611 H   0  0  0  0  0  0  0  0  0  0  0  0
    1.2094    2.4999    1.1198 H   0  0  0  0  0  0  0  0  0  0  0  0
    2.7695    4.3707    1.0857 H   0  0  0  0  0  0  0  0  0  0  0  0
    5.9379    1.7236    2.2540 H   0  0  0  0  0  0  0  0  0  0  0  0
    4.9843   -1.0392    2.2936 H   0  0  0  0  0  0  0  0  0  0  0  0
    5.8008   -0.2854    0.9394 H   0  0  0  0  0  0  0  0  0  0  0  0
    2.3801   -3.2085   -0.6319 H   0  0  0  0  0  0  0  0  0  0  0  0
    0.2170   -2.4754   -1.3910 H   0  0  0  0  0  0  0  0  0  0  0  0
    3.8472    0.7933   -0.9997 H   0  0  0  0  0  0  0  0  0  0  0  0
    3.0238    2.6974   -0.9476 H   0  0  0  0  0  0  0  0  0  0  0  0
    1.7334    3.7058   -1.3059 H   0  0  0  0  0  0  0  0  0  0  0  0
   -2.1534    2.5434   -2.6330 H   0  0  0  0  0  0  0  0  0  0  0  0
   -2.6354    0.8904   -2.7147 H   0  0  0  0  0  0  0  0  0  0  0  0
    5.6029   -2.9507    1.0840 H   0  0  0  0  0  0  0  0  0  0  0  0
    4.8898   -3.3354   -0.4754 H   0  0  0  0  0  0  0  0  0  0  0  0
    3.9223   -3.4861    1.0199 H   0  0  0  0  0  0  0  0  0  0  0  0
    6.7926    5.2102    2.7516 H   0  0  0  0  0  0  0  0  0  0  0  0
    7.1022    3.6483    1.9733 H   0  0  0  0  0  0  0  0  0  0  0  0
    6.2253    3.7371    3.5523 H   0  0  0  0  0  0  0  0  0  0  0  0
  1  2  1  0  0  0  0
  1 26  1  0  0  0  0
  1 27  1  0  0  0  0
  1 28  1  0  0  0  0
  2  3  1  0  0  0  0
  3  4  2  0  0  0  0
  3  8  1  0  0  0  0
  4  5  1  0  0  0  0
  4 29  1  0  0  0  0
  5  6  2  0  0  0  0
  5 30  1  0  0  0  0
  6  7  1  0  0  0  0
  6 24  1  0  0  0  0
  7  8  2  0  0  0  0
  7 31  1  0  0  0  0
  8  9  1  0  0  0  0
  9 10  1  0  0  0  0
  9 32  1  0  0  0  0
  9 33  1  0  0  0  0
 10 11  1  0  0  0  0
 10 23  1  0  0  0  0
 11 12  2  0  0  0  0
 11 16  1  0  0  0  0
 12 13  1  0  0  0  0
 12 34  1  0  0  0  0
 13 14  2  0  0  0  0
 13 35  1  0  0  0  0
 14 15  1  0  0  0  0
 14 21  1  0  0  0  0
 15 16  2  0  0  0  0
 15 17  1  0  0  0  0
 16 36  1  0  0  0  0
 17 18  1  0  0  0  0
 17 19  2  0  0  0  0
 18 37  1  0  0  0  0
 18 38  1  0  0  0  0
 19 20  1  0  0  0  0
 20 21  2  0  0  0  0
 20 22  1  0  0  0  0
 22 39  1  0  0  0  0
 22 40  1  0  0  0  0
 23 41  1  0  0  0  0
 23 42  1  0  0  0  0
 23 43  1  0  0  0  0
 24 25  1  0  0  0  0
 25 44  1  0  0  0  0
 25 45  1  0  0  0  0
 25 46  1  0  0  0  0
M  END
$$$$
