COI
 OpenBabel04121316093D

 19 18  0  0  0  0  0  0  0  0999 V2000
    1.0349   -0.0892   -0.0638 C   0  0  0  0  0  0  0  0  0  0  0  0
    2.5649   -0.0740   -0.0099 C   0  0  0  0  0  0  0  0  0  0  0  0
    3.0763   -0.5194    1.3669 C   0  0  0  0  0  0  0  0  0  0  0  0
    2.6317    0.4099    2.4797 C   0  0  0  0  0  0  0  0  0  0  0  0
    1.9945    1.4530    2.3582 O   0  0  0  0  0  0  0  0  0  0  0  0
    3.0185    0.0096    3.8952 C   0  0  0  0  0  0  0  0  0  0  0  0
    3.7040   -0.9657    4.1376 O   0  0  0  0  0  0  0  0  0  0  0  0
    2.5091    0.8631    4.8022 O   0  0  0  0  0  0  0  0  0  0  0  0
    3.1092   -0.9887   -1.1093 C   0  0  0  0  0  0  0  0  0  0  0  0
    0.5865    0.5720    0.6814 H   0  0  0  0  0  0  0  0  0  0  0  0
    0.6500   -1.0975    0.1200 H   0  0  0  0  0  0  0  0  0  0  0  0
    0.6788    0.2494   -1.0409 H   0  0  0  0  0  0  0  0  0  0  0  0
    2.9186    0.9467   -0.2047 H   0  0  0  0  0  0  0  0  0  0  0  0
    4.1733   -0.5365    1.3661 H   0  0  0  0  0  0  0  0  0  0  0  0
    2.7224   -1.5344    1.5853 H   0  0  0  0  0  0  0  0  0  0  0  0
    1.9928    1.5707    4.3476 H   0  0  0  0  0  0  0  0  0  0  0  0
    2.7673   -2.0202   -0.9686 H   0  0  0  0  0  0  0  0  0  0  0  0
    4.2037   -0.9918   -1.1202 H   0  0  0  0  0  0  0  0  0  0  0  0
    2.7643   -0.6529   -2.0935 H   0  0  0  0  0  0  0  0  0  0  0  0
  1  2  1  0  0  0  0
  1 10  1  0  0  0  0
  1 11  1  0  0  0  0
  1 12  1  0  0  0  0
  2  3  1  0  0  0  0
  2  9  1  0  0  0  0
  2 13  1  0  0  0  0
  3  4  1  0  0  0  0
  3 14  1  0  0  0  0
  3 15  1  0  0  0  0
  4  5  2  0  0  0  0
  4  6  1  0  0  0  0
  6  7  2  0  0  0  0
  6  8  1  0  0  0  0
  8 16  1  0  0  0  0
  9 17  1  0  0  0  0
  9 18  1  0  0  0  0
  9 19  1  0  0  0  0
M  END
$$$$
