COO
 OpenBabel04121316093D

 93 95  0  0  1  0  0  0  0  0999 V2000
    6.7890  -10.8330   -9.5340 C   0  0  0  0  0  0  0  0  0  0  0  0
    7.1321  -10.2859   -8.1866 C   0  0  0  0  0  0  0  0  0  0  0  0
    8.1976  -10.7011   -7.4850 C   0  0  0  0  0  0  0  0  0  0  0  0
    8.4984  -10.1219   -6.1400 C   0  0  0  0  0  0  0  0  0  0  0  0
    7.8322   -9.2698   -5.6046 O   0  0  0  0  0  0  0  0  0  0  0  0
    9.9395  -10.8203   -5.4175 S   0  0  0  0  0  0  0  0  0  0  0  0
   10.0023   -9.9125   -3.8396 C   0  0  0  0  0  0  0  0  0  0  0  0
   11.2154  -10.3856   -3.0420 C   0  0  0  0  0  0  0  0  0  0  0  0
   11.3608   -9.7205   -1.7597 N   0  0  0  0  0  0  0  0  0  0  0  0
   12.4183  -10.0629   -0.9473 C   0  0  0  0  0  0  0  0  0  0  0  0
   13.2457  -10.9098   -1.2692 O   0  0  0  0  0  0  0  0  0  0  0  0
   12.4639   -9.3057    0.3574 C   0  0  0  0  0  0  0  0  0  0  0  0
   13.6621   -9.7721    1.1448 C   0  0  0  0  0  0  0  0  0  0  0  0
   13.8079   -9.0835    2.4010 N   0  0  0  0  0  0  0  0  0  0  0  0
   14.8566   -9.4795    3.1930 C   0  0  0  0  0  0  0  0  0  0  0  0
   15.6403  -10.3395    2.7975 O   0  0  0  0  0  0  0  0  0  0  0  0
   14.9708   -8.7444    4.5362 C   0  0  2  0  0  0  0  0  0  0  0  0
   14.9141   -7.6708    4.3197 H   0  0  0  0  0  0  0  0  0  0  0  0
   16.3073   -9.0836    5.2554 C   0  0  0  0  0  0  0  0  0  0  0  0
   16.4680   -8.0913    6.4381 C   0  0  0  0  0  0  0  0  0  0  0  0
   16.6949   -6.8092    5.7864 O   0  0  0  0  0  0  0  0  0  0  0  0
   16.2651   -5.3913    6.3909 P   0  0  2  0  0  0  0  0  0  0  0  0
   14.9151   -5.4926    7.0297 O   0  0  0  0  0  0  0  0  0  0  0  0
   16.5026   -4.2100    5.2392 O   0  0  0  0  0  0  0  0  0  0  0  0
   16.2922   -2.5736    5.7010 P   0  0  2  0  0  0  0  0  0  0  0  0
   15.6300   -3.0606    7.0083 O   0  0  0  0  0  0  0  0  0  0  0  0
   14.7130   -2.2972    5.0720 O   0  0  0  0  0  0  0  0  0  0  0  0
   13.6589   -2.1323    6.1530 C   0  0  0  0  0  0  0  0  0  0  0  0
   12.4306   -1.2260    5.8896 C   0  0  1  0  0  0  0  0  0  0  0  0
   12.1549   -1.3343    4.8398 H   0  0  0  0  0  0  0  0  0  0  0  0
   11.3265   -1.6741    6.7274 O   0  0  0  0  0  0  0  0  0  0  0  0
   10.3823   -0.5850    6.7585 C   0  0  2  0  0  0  0  0  0  0  0  0
    9.7723   -0.6475    5.8501 H   0  0  0  0  0  0  0  0  0  0  0  0
   11.2021    0.6949    6.7895 C   0  0  1  0  0  0  0  0  0  0  0  0
   11.3604    1.0706    7.8089 H   0  0  0  0  0  0  0  0  0  0  0  0
   12.5564    0.2747    6.2681 C   0  0  2  0  0  0  0  0  0  0  0  0
   13.2483    0.4378    7.1094 H   0  0  0  0  0  0  0  0  0  0  0  0
   12.9369    1.1109    5.1808 O   0  0  0  0  0  0  0  0  0  0  0  0
   14.5137    0.7031    4.5974 P   0  0  0  0  0  0  0  0  0  0  0  0
   14.9988    0.0146    5.8481 O   0  0  0  0  0  0  0  0  0  0  0  0
   13.7812   -0.0238    3.3715 O   0  0  0  0  0  0  0  0  0  0  0  0
   16.0905    0.2952    4.0140 O   0  0  0  0  0  0  0  0  0  0  0  0
   10.5874    1.7304    6.0191 O   0  0  0  0  0  0  0  0  0  0  0  0
    9.4665   -0.7134    7.8788 N   0  0  0  0  0  0  0  0  0  0  0  0
    8.9158   -1.8821    8.3331 C   0  0  0  0  0  0  0  0  0  0  0  0
    8.0641   -1.6771    9.3166 N   0  0  0  0  0  0  0  0  0  0  0  0
    8.0540   -0.3102    9.5017 C   0  0  0  0  0  0  0  0  0  0  0  0
    8.8926    0.3130    8.5949 C   0  0  0  0  0  0  0  0  0  0  0  0
    9.0950    1.6395    8.4674 N   0  0  0  0  0  0  0  0  0  0  0  0
    8.4087    2.3318    9.4013 C   0  0  0  0  0  0  0  0  0  0  0  0
    7.5689    1.8563   10.3413 N   0  0  0  0  0  0  0  0  0  0  0  0
    7.3633    0.5206   10.4003 C   0  0  0  0  0  0  0  0  0  0  0  0
    6.4880    0.0295   11.3396 N   0  0  0  0  0  0  0  0  0  0  0  0
   17.0341   -2.0281    4.2364 O   0  0  0  0  0  0  0  0  0  0  0  0
   17.5212   -5.1327    7.3657 O   0  0  0  0  0  0  0  0  0  0  0  0
   16.3256  -10.5780    5.6588 C   0  0  0  0  0  0  0  0  0  0  0  0
   17.5330   -8.7831    4.3468 C   0  0  0  0  0  0  0  0  0  0  0  0
   13.8234   -9.0594    5.3386 O   0  0  0  0  0  0  0  0  0  0  0  0
    5.8837  -10.3513   -9.9174 H   0  0  0  0  0  0  0  0  0  0  0  0
    6.5978  -11.9092   -9.4798 H   0  0  0  0  0  0  0  0  0  0  0  0
    7.5965  -10.6438  -10.2480 H   0  0  0  0  0  0  0  0  0  0  0  0
    6.4729   -9.5197   -7.7813 H   0  0  0  0  0  0  0  0  0  0  0  0
    8.8586  -11.4638   -7.8819 H   0  0  0  0  0  0  0  0  0  0  0  0
    9.0884  -10.0920   -3.2629 H   0  0  0  0  0  0  0  0  0  0  0  0
   10.0799   -8.8357   -4.0254 H   0  0  0  0  0  0  0  0  0  0  0  0
   12.1434  -10.2089   -3.6009 H   0  0  0  0  0  0  0  0  0  0  0  0
   11.1538  -11.4626   -2.8391 H   0  0  0  0  0  0  0  0  0  0  0  0
   10.6964   -9.0183   -1.4595 H   0  0  0  0  0  0  0  0  0  0  0  0
   11.5478   -9.4920    0.9278 H   0  0  0  0  0  0  0  0  0  0  0  0
   12.5413   -8.2312    0.1611 H   0  0  0  0  0  0  0  0  0  0  0  0
   14.5897   -9.6119    0.5776 H   0  0  0  0  0  0  0  0  0  0  0  0
   13.6018  -10.8498    1.3515 H   0  0  0  0  0  0  0  0  0  0  0  0
   13.1062   -8.4572    2.7767 H   0  0  0  0  0  0  0  0  0  0  0  0
   17.3481   -8.3632    7.0375 H   0  0  0  0  0  0  0  0  0  0  0  0
   15.6076   -8.1185    7.1244 H   0  0  0  0  0  0  0  0  0  0  0  0
   14.1045   -1.7033    7.0674 H   0  0  0  0  0  0  0  0  0  0  0  0
   13.3252   -3.1416    6.4234 H   0  0  0  0  0  0  0  0  0  0  0  0
   13.2403    0.6780    2.9333 H   0  0  0  0  0  0  0  0  0  0  0  0
   16.6150    0.4534    4.8331 H   0  0  0  0  0  0  0  0  0  0  0  0
    9.7677    1.9652    6.4998 H   0  0  0  0  0  0  0  0  0  0  0  0
    9.1695   -2.8464    7.9097 H   0  0  0  0  0  0  0  0  0  0  0  0
    8.5510    3.4101    9.3981 H   0  0  0  0  0  0  0  0  0  0  0  0
    6.0263    0.6738   11.9598 H   0  0  0  0  0  0  0  0  0  0  0  0
    6.3386   -0.9687   11.3830 H   0  0  0  0  0  0  0  0  0  0  0  0
   16.6970   -1.1474    3.9581 H   0  0  0  0  0  0  0  0  0  0  0  0
   18.1406   -4.4846    6.9912 H   0  0  0  0  0  0  0  0  0  0  0  0
   15.4725  -10.8605    6.2839 H   0  0  0  0  0  0  0  0  0  0  0  0
   17.2489  -10.8548    6.1737 H   0  0  0  0  0  0  0  0  0  0  0  0
   16.2822  -11.2322    4.7784 H   0  0  0  0  0  0  0  0  0  0  0  0
   17.5714   -7.7288    4.0487 H   0  0  0  0  0  0  0  0  0  0  0  0
   17.5493   -9.3378    3.4138 H   0  0  0  0  0  0  0  0  0  0  0  0
   18.4605   -9.0045    4.8854 H   0  0  0  0  0  0  0  0  0  0  0  0
   13.8634   -8.5369    6.1595 H   0  0  0  0  0  0  0  0  0  0  0  0
  1  2  1  0  0  0  0
  1 59  1  0  0  0  0
  1 60  1  0  0  0  0
  1 61  1  0  0  0  0
  2  3  2  0  0  0  0
  2 62  1  0  0  0  0
  3  4  1  0  0  0  0
  3 63  1  0  0  0  0
  4  5  2  0  0  0  0
  4  6  1  0  0  0  0
  6  7  1  0  0  0  0
  7  8  1  0  0  0  0
  7 64  1  0  0  0  0
  7 65  1  0  0  0  0
  8  9  1  0  0  0  0
  8 66  1  0  0  0  0
  8 67  1  0  0  0  0
  9 10  1  0  0  0  0
  9 68  1  0  0  0  0
 10 11  2  0  0  0  0
 10 12  1  0  0  0  0
 12 13  1  0  0  0  0
 12 69  1  0  0  0  0
 12 70  1  0  0  0  0
 13 14  1  0  0  0  0
 13 71  1  0  0  0  0
 13 72  1  0  0  0  0
 14 15  1  0  0  0  0
 14 73  1  0  0  0  0
 15 16  2  0  0  0  0
 17 19  1  0  0  0  0
 17 58  1  0  0  0  0
 17 18  1  6  0  0  0
 17 15  1  0  0  0  0
 19 20  1  0  0  0  0
 19 56  1  0  0  0  0
 19 57  1  0  0  0  0
 20 21  1  0  0  0  0
 20 74  1  0  0  0  0
 20 75  1  0  0  0  0
 22 24  1  6  0  0  0
 22 55  1  0  0  0  0
 22 23  2  0  0  0  0
 22 21  1  0  0  0  0
 25 27  1  6  0  0  0
 25 54  1  0  0  0  0
 25 26  2  0  0  0  0
 25 24  1  0  0  0  0
 27 28  1  0  0  0  0
 28 29  1  0  0  0  0
 28 76  1  0  0  0  0
 28 77  1  0  0  0  0
 29 30  1  6  0  0  0
 29 31  1  0  0  0  0
 29 36  1  0  0  0  0
 31 32  1  0  0  0  0
 32 34  1  0  0  0  0
 32 44  1  0  0  0  0
 32 33  1  6  0  0  0
 34 35  1  1  0  0  0
 34 36  1  0  0  0  0
 34 43  1  0  0  0  0
 36 37  1  1  0  0  0
 36 38  1  0  0  0  0
 38 39  1  0  0  0  0
 39 40  2  0  0  0  0
 39 41  1  0  0  0  0
 39 42  1  0  0  0  0
 41 78  1  0  0  0  0
 42 79  1  0  0  0  0
 43 80  1  0  0  0  0
 44 45  1  0  0  0  0
 44 48  1  0  0  0  0
 45 46  2  0  0  0  0
 45 81  1  0  0  0  0
 46 47  1  0  0  0  0
 47 48  2  0  0  0  0
 47 52  1  0  0  0  0
 48 49  1  0  0  0  0
 49 50  2  0  0  0  0
 50 51  1  0  0  0  0
 50 82  1  0  0  0  0
 51 52  2  0  0  0  0
 52 53  1  0  0  0  0
 53 83  1  0  0  0  0
 53 84  1  0  0  0  0
 54 85  1  0  0  0  0
 55 86  1  0  0  0  0
 56 87  1  0  0  0  0
 56 88  1  0  0  0  0
 56 89  1  0  0  0  0
 57 90  1  0  0  0  0
 57 91  1  0  0  0  0
 57 92  1  0  0  0  0
 58 93  1  0  0  0  0
M  END
$$$$
