COQ
 OpenBabel04121316093D

 45 47  0  0  0  0  0  0  0  0999 V2000
    0.9110    0.0353    0.0089 C   0  0  0  0  0  0  0  0  0  0  0  0
    2.3228   -0.0882    0.0574 O   0  0  0  0  0  0  0  0  0  0  0  0
    2.9539    0.8305   -0.7290 C   0  0  0  0  0  0  0  0  0  0  0  0
    2.7152    2.2048   -0.6273 C   0  0  0  0  0  0  0  0  0  0  0  0
    3.5037    3.0938   -1.3497 C   0  0  0  0  0  0  0  0  0  0  0  0
    4.6637    2.5683   -1.9272 C   0  0  0  0  0  0  0  0  0  0  0  0
    4.7472    1.2119   -2.2513 C   0  0  0  0  0  0  0  0  0  0  0  0
    3.9020    0.3280   -1.6168 C   0  0  0  0  0  0  0  0  0  0  0  0
    5.6267    0.9162   -3.2523 O   0  0  0  0  0  0  0  0  0  0  0  0
    5.6988   -0.4283   -3.7032 C   0  0  0  0  0  0  0  0  0  0  0  0
    3.0393    4.5284   -1.5464 C   0  0  0  0  0  0  0  0  0  0  0  0
    3.5536    5.2725   -2.7214 N   0  0  0  0  0  0  0  0  0  0  0  0
    4.1356    4.7149   -3.8474 C   0  0  0  0  0  0  0  0  0  0  0  0
    3.8407    3.4680   -4.3855 C   0  0  0  0  0  0  0  0  0  0  0  0
    4.6404    2.7491   -5.2266 N   0  0  0  0  0  0  0  0  0  0  0  0
    5.7719    3.2982   -5.6653 C   0  0  0  0  0  0  0  0  0  0  0  0
    6.0208    4.6246   -5.3947 C   0  0  0  0  0  0  0  0  0  0  0  0
    5.2203    5.3233   -4.4571 C   0  0  0  0  0  0  0  0  0  0  0  0
    7.0428    5.2129   -6.1285 C   0  0  0  0  0  0  0  0  0  0  0  0
    7.1923    6.5883   -6.1410 N   0  0  0  0  0  0  0  0  0  0  0  0
    7.7902    4.5076   -6.9897 N   0  0  0  0  0  0  0  0  0  0  0  0
    7.5439    3.1998   -7.0754 C   0  0  0  0  0  0  0  0  0  0  0  0
    6.5723    2.5619   -6.4335 N   0  0  0  0  0  0  0  0  0  0  0  0
    8.3136    2.4551   -7.9331 N   0  0  0  0  0  0  0  0  0  0  0  0
    3.3983    6.7243   -2.6915 C   0  0  0  0  0  0  0  0  0  0  0  0
    0.5036   -0.6800    0.7249 H   0  0  0  0  0  0  0  0  0  0  0  0
    0.5531   -0.2152   -0.9940 H   0  0  0  0  0  0  0  0  0  0  0  0
    0.5603    1.0281    0.3033 H   0  0  0  0  0  0  0  0  0  0  0  0
    1.9290    2.5934    0.0114 H   0  0  0  0  0  0  0  0  0  0  0  0
    5.4126    3.2331   -2.3463 H   0  0  0  0  0  0  0  0  0  0  0  0
    3.9711   -0.7395   -1.7813 H   0  0  0  0  0  0  0  0  0  0  0  0
    6.3202   -0.4593   -4.6053 H   0  0  0  0  0  0  0  0  0  0  0  0
    4.7275   -0.8668   -3.9675 H   0  0  0  0  0  0  0  0  0  0  0  0
    6.1948   -1.0116   -2.9266 H   0  0  0  0  0  0  0  0  0  0  0  0
    3.2773    5.0766   -0.6256 H   0  0  0  0  0  0  0  0  0  0  0  0
    1.9429    4.5372   -1.6422 H   0  0  0  0  0  0  0  0  0  0  0  0
    2.9915    2.8920   -4.0245 H   0  0  0  0  0  0  0  0  0  0  0  0
    5.5071    6.3187   -4.1520 H   0  0  0  0  0  0  0  0  0  0  0  0
    6.7921    7.1643   -5.4187 H   0  0  0  0  0  0  0  0  0  0  0  0
    7.9273    6.9651   -6.7184 H   0  0  0  0  0  0  0  0  0  0  0  0
    8.8738    2.9557   -8.6009 H   0  0  0  0  0  0  0  0  0  0  0  0
    8.0561    1.4903   -8.0560 H   0  0  0  0  0  0  0  0  0  0  0  0
    2.7178    7.0442   -1.8959 H   0  0  0  0  0  0  0  0  0  0  0  0
    2.9766    7.0763   -3.6402 H   0  0  0  0  0  0  0  0  0  0  0  0
    4.3568    7.2273   -2.5195 H   0  0  0  0  0  0  0  0  0  0  0  0
  1  2  1  0  0  0  0
  1 26  1  0  0  0  0
  1 27  1  0  0  0  0
  1 28  1  0  0  0  0
  2  3  1  0  0  0  0
  3  4  2  0  0  0  0
  3  8  1  0  0  0  0
  4  5  1  0  0  0  0
  4 29  1  0  0  0  0
  5  6  2  0  0  0  0
  5 11  1  0  0  0  0
  6  7  1  0  0  0  0
  6 30  1  0  0  0  0
  7  8  2  0  0  0  0
  7  9  1  0  0  0  0
  8 31  1  0  0  0  0
  9 10  1  0  0  0  0
 10 32  1  0  0  0  0
 10 33  1  0  0  0  0
 10 34  1  0  0  0  0
 11 12  1  0  0  0  0
 11 35  1  0  0  0  0
 11 36  1  0  0  0  0
 12 13  1  0  0  0  0
 12 25  1  0  0  0  0
 13 14  2  0  0  0  0
 13 18  1  0  0  0  0
 14 15  1  0  0  0  0
 14 37  1  0  0  0  0
 15 16  2  0  0  0  0
 16 17  1  0  0  0  0
 16 23  1  0  0  0  0
 17 18  2  0  0  0  0
 17 19  1  0  0  0  0
 18 38  1  0  0  0  0
 19 20  1  0  0  0  0
 19 21  2  0  0  0  0
 20 39  1  0  0  0  0
 20 40  1  0  0  0  0
 21 22  1  0  0  0  0
 22 23  2  0  0  0  0
 22 24  1  0  0  0  0
 24 41  1  0  0  0  0
 24 42  1  0  0  0  0
 25 43  1  0  0  0  0
 25 44  1  0  0  0  0
 25 45  1  0  0  0  0
M  END
$$$$
