COU
 OpenBabel04121316093D

 17 18  0  0  0  0  0  0  0  0999 V2000
    0.8926   -0.0252    0.0555 O   0  0  0  0  0  0  0  0  0  0  0  0
    2.1232   -0.0442    0.0893 C   0  0  0  0  0  0  0  0  0  0  0  0
    2.8472   -1.3261    0.0715 C   0  0  0  0  0  0  0  0  0  0  0  0
    4.1810   -1.3960    0.0914 C   0  0  0  0  0  0  0  0  0  0  0  0
    4.9497   -0.1668    0.0779 C   0  0  0  0  0  0  0  0  0  0  0  0
    4.2857    1.0567    0.1209 C   0  0  0  0  0  0  0  0  0  0  0  0
    2.8801    1.1157    0.1633 O   0  0  0  0  0  0  0  0  0  0  0  0
    4.9828    2.2598    0.0822 C   0  0  0  0  0  0  0  0  0  0  0  0
    6.3524    2.2302   -0.1730 C   0  0  0  0  0  0  0  0  0  0  0  0
    7.0133    1.0074   -0.3064 C   0  0  0  0  0  0  0  0  0  0  0  0
    6.3355   -0.1845   -0.0562 C   0  0  0  0  0  0  0  0  0  0  0  0
    2.2346   -2.2177    0.0338 H   0  0  0  0  0  0  0  0  0  0  0  0
    4.7021   -2.3460    0.0608 H   0  0  0  0  0  0  0  0  0  0  0  0
    4.4638    3.2054    0.2059 H   0  0  0  0  0  0  0  0  0  0  0  0
    6.9083    3.1582   -0.2741 H   0  0  0  0  0  0  0  0  0  0  0  0
    8.0551    0.9786   -0.6149 H   0  0  0  0  0  0  0  0  0  0  0  0
    6.8888   -1.1182   -0.0075 H   0  0  0  0  0  0  0  0  0  0  0  0
  1  2  2  0  0  0  0
  2  3  1  0  0  0  0
  2  7  1  0  0  0  0
  3  4  2  0  0  0  0
  3 12  1  0  0  0  0
  4  5  1  0  0  0  0
  4 13  1  0  0  0  0
  5  6  2  0  0  0  0
  5 11  1  0  0  0  0
  6  7  1  0  0  0  0
  6  8  1  0  0  0  0
  8  9  2  0  0  0  0
  8 14  1  0  0  0  0
  9 10  1  0  0  0  0
  9 15  1  0  0  0  0
 10 11  2  0  0  0  0
 10 16  1  0  0  0  0
 11 17  1  0  0  0  0
M  END
$$$$
