CP5
 OpenBabel04121316093D

 21 21  0  0  0  0  0  0  0  0999 V2000
    1.1305   -0.1673    0.0741 O   0  5  0  0  0  0  0  0  0  0  0  0
    2.3984   -0.1718    0.0603 C   0  0  0  0  0  0  0  0  0  0  0  0
    3.1523   -0.9714    0.6929 O   0  0  0  0  0  0  0  0  0  0  0  0
    3.1189    0.9047   -0.7864 C   0  0  0  0  0  0  0  0  0  0  0  0
    2.4701    1.8466   -1.4860 C   0  0  0  0  0  0  0  0  0  0  0  0
    1.1103    1.9050   -1.5546 O   0  0  0  0  0  0  0  0  0  0  0  0
    0.2618    3.0644   -2.4578 P   0  0  0  0  0  0  0  0  0  0  0  0
    1.4561    3.5325   -3.1841 O   0  0  0  0  0  0  0  0  0  0  0  0
   -0.5104    4.1194   -3.2797 O   0  0  0  0  0  0  0  0  0  0  0  0
    4.5799    0.9335   -0.8434 C   0  0  0  0  0  0  0  0  0  0  0  0
    5.2656    0.6698   -2.0387 C   0  0  0  0  0  0  0  0  0  0  0  0
    6.6512    0.5142   -2.0300 C   0  0  0  0  0  0  0  0  0  0  0  0
    7.3671    0.7469   -0.8562 C   0  0  0  0  0  0  0  0  0  0  0  0
    6.7025    1.1726    0.2934 C   0  0  0  0  0  0  0  0  0  0  0  0
    5.3112    1.2324    0.3078 C   0  0  0  0  0  0  0  0  0  0  0  0
    2.9945    2.6006   -2.0533 H   0  0  0  0  0  0  0  0  0  0  0  0
    4.7101    0.5559   -2.9679 H   0  0  0  0  0  0  0  0  0  0  0  0
    7.1600    0.1940   -2.9332 H   0  0  0  0  0  0  0  0  0  0  0  0
    8.4398    0.5932   -0.8348 H   0  0  0  0  0  0  0  0  0  0  0  0
    7.2526    1.4230    1.1929 H   0  0  0  0  0  0  0  0  0  0  0  0
    4.7769    1.4789    1.2217 H   0  0  0  0  0  0  0  0  0  0  0  0
  1  2  1  0  0  0  0
  2  3  2  0  0  0  0
  2  4  1  0  0  0  0
  4  5  2  0  0  0  0
  4 10  1  0  0  0  0
  5  6  1  0  0  0  0
  5 16  1  0  0  0  0
  6  7  1  0  0  0  0
  7  8  2  0  0  0  0
  7  9  2  0  0  0  0
 10 11  2  0  0  0  0
 10 15  1  0  0  0  0
 11 12  1  0  0  0  0
 11 17  1  0  0  0  0
 12 13  2  0  0  0  0
 12 18  1  0  0  0  0
 13 14  1  0  0  0  0
 13 19  1  0  0  0  0
 14 15  2  0  0  0  0
 14 20  1  0  0  0  0
 15 21  1  0  0  0  0
M  CHG  1   1  -1
M  END
$$$$
