CPX
 OpenBabel04121316093D

 70 73  0  0  1  0  0  0  0  0999 V2000
    4.4552   -1.6302    4.2123 O   0  0  0  0  0  0  0  0  0  0  0  0
    3.9585   -1.5426    3.0939 C   0  0  0  0  0  0  0  0  0  0  0  0
    4.7028   -1.4899    1.6906 C   0  0  0  0  0  0  0  0  0  0  0  0
    6.2655   -1.7753    1.6846 C   0  0  0  0  0  0  0  0  0  0  0  0
    6.0659   -2.7824    0.5444 C   0  0  0  0  0  0  0  0  0  0  0  0
    4.6231   -2.9368    1.0220 C   0  0  0  0  0  0  0  0  0  0  0  0
    4.3392   -0.1763    0.9383 C   0  0  2  0  0  0  0  0  0  0  0  0
    4.3433   -0.3370   -0.1425 H   0  0  0  0  0  0  0  0  0  0  0  0
    5.2160    1.0238    1.4077 C   0  0  2  0  0  0  0  0  0  0  0  0
    6.2683    0.7937    1.5565 H   0  0  0  0  0  0  0  0  0  0  0  0
    4.5845    1.4713    2.7203 C   0  0  0  0  0  0  0  0  0  0  0  0
    3.1019    1.2734    2.4661 C   0  0  0  0  0  0  0  0  0  0  0  0
    3.0086    0.2892    1.3697 N   0  0  0  0  0  0  0  0  0  0  0  0
    1.7532   -0.1517    1.0133 C   0  0  0  0  0  0  0  0  0  0  0  0
    0.8158    0.3035    1.6709 O   0  0  0  0  0  0  0  0  0  0  0  0
    1.5874   -1.1838   -0.1685 C   0  0  2  0  0  0  0  0  0  0  0  0
    2.5567   -1.6551   -0.3366 H   0  0  0  0  0  0  0  0  0  0  0  0
    1.2122   -0.4791   -1.5173 C   0  0  0  0  0  0  0  0  0  0  0  0
   -0.1740    0.1677   -1.5639 C   0  0  0  0  0  0  0  0  0  0  0  0
    2.2161    0.6176   -1.8707 C   0  0  0  0  0  0  0  0  0  0  0  0
    0.7091   -2.3262    0.1926 N   0  0  0  0  0  0  0  0  0  0  0  0
   -0.5820   -2.0548    0.4961 C   0  0  0  0  0  0  0  0  0  0  0  0
   -0.9646   -0.9079    0.5424 O   0  0  0  0  0  0  0  0  0  0  0  0
   -1.4372   -3.0746    0.7411 N   0  0  0  0  0  0  0  0  0  0  0  0
   -2.8630   -2.7651    0.9541 C   0  0  0  0  0  0  0  0  0  0  0  0
   -3.4458   -3.6009    2.0821 C   0  0  0  0  0  0  0  0  0  0  0  0
   -4.6862   -2.8329    2.5295 C   0  0  0  0  0  0  0  0  0  0  0  0
   -4.3361   -1.3677    2.3983 C   0  0  0  0  0  0  0  0  0  0  0  0
   -3.2015   -1.3207    1.4089 C   0  0  0  0  0  0  0  0  0  0  0  0
    5.1887    2.0989    0.4413 N   0  0  0  0  0  0  0  0  0  0  0  0
    5.7165    1.8904   -0.8056 C   0  0  0  0  0  0  0  0  0  0  0  0
    6.2223    0.8453   -1.1765 O   0  0  0  0  0  0  0  0  0  0  0  0
    5.5877    3.0380   -1.7203 C   0  0  0  0  0  0  0  0  0  0  0  0
    5.7221    4.4630   -1.2403 C   0  0  0  0  0  0  0  0  0  0  0  0
    6.8288    3.8343   -2.0374 C   0  0  0  0  0  0  0  0  0  0  0  0
    2.8587   -1.4530    3.0089 H   0  0  0  0  0  0  0  0  0  0  0  0
    6.6292   -2.2210    2.6157 H   0  0  0  0  0  0  0  0  0  0  0  0
    6.9736   -0.9934    1.4040 H   0  0  0  0  0  0  0  0  0  0  0  0
    6.6950   -3.6757    0.6121 H   0  0  0  0  0  0  0  0  0  0  0  0
    6.1621   -2.3700   -0.4668 H   0  0  0  0  0  0  0  0  0  0  0  0
    4.5405   -3.7332    1.7773 H   0  0  0  0  0  0  0  0  0  0  0  0
    3.8819   -3.1469    0.2531 H   0  0  0  0  0  0  0  0  0  0  0  0
    4.8233    2.4980    3.0105 H   0  0  0  0  0  0  0  0  0  0  0  0
    4.9245    0.8281    3.5389 H   0  0  0  0  0  0  0  0  0  0  0  0
    2.6055    2.2060    2.1749 H   0  0  0  0  0  0  0  0  0  0  0  0
    2.5909    0.8906    3.3582 H   0  0  0  0  0  0  0  0  0  0  0  0
    1.2368   -1.2390   -2.3108 H   0  0  0  0  0  0  0  0  0  0  0  0
   -0.3070    0.8468   -0.7125 H   0  0  0  0  0  0  0  0  0  0  0  0
   -0.9537   -0.5998   -1.5821 H   0  0  0  0  0  0  0  0  0  0  0  0
   -0.3510    0.7556   -2.4641 H   0  0  0  0  0  0  0  0  0  0  0  0
    2.2510    1.3862   -1.0915 H   0  0  0  0  0  0  0  0  0  0  0  0
    1.9264    1.1186   -2.7996 H   0  0  0  0  0  0  0  0  0  0  0  0
    3.2171    0.2058   -2.0091 H   0  0  0  0  0  0  0  0  0  0  0  0
    1.0395   -3.2768    0.1456 H   0  0  0  0  0  0  0  0  0  0  0  0
   -1.1420   -4.0325    0.6381 H   0  0  0  0  0  0  0  0  0  0  0  0
   -3.3871   -2.9786    0.0109 H   0  0  0  0  0  0  0  0  0  0  0  0
   -2.7229   -3.6689    2.9034 H   0  0  0  0  0  0  0  0  0  0  0  0
   -3.6869   -4.6178    1.7596 H   0  0  0  0  0  0  0  0  0  0  0  0
   -4.9621   -3.0759    3.5582 H   0  0  0  0  0  0  0  0  0  0  0  0
   -5.5348   -3.0574    1.8764 H   0  0  0  0  0  0  0  0  0  0  0  0
   -3.9769   -0.9658    3.3550 H   0  0  0  0  0  0  0  0  0  0  0  0
   -5.1727   -0.7408    2.0788 H   0  0  0  0  0  0  0  0  0  0  0  0
   -2.3934   -0.8634    1.9886 H   0  0  0  0  0  0  0  0  0  0  0  0
   -3.4177   -0.6736    0.5483 H   0  0  0  0  0  0  0  0  0  0  0  0
    4.7044    2.9622    0.6509 H   0  0  0  0  0  0  0  0  0  0  0  0
    4.9046    2.8470   -2.5418 H   0  0  0  0  0  0  0  0  0  0  0  0
    5.9158    4.6532   -0.1903 H   0  0  0  0  0  0  0  0  0  0  0  0
    5.0943    5.2106   -1.7095 H   0  0  0  0  0  0  0  0  0  0  0  0
    7.7438    3.5657   -1.5179 H   0  0  0  0  0  0  0  0  0  0  0  0
    6.9821    4.1389   -3.0646 H   0  0  0  0  0  0  0  0  0  0  0  0
  1  2  2  0  0  0  0
  2  3  1  0  0  0  0
  2 36  1  0  0  0  0
  3  4  1  0  0  0  0
  3  6  1  0  0  0  0
  4  5  1  0  0  0  0
  4 37  1  0  0  0  0
  4 38  1  0  0  0  0
  5  6  1  0  0  0  0
  5 39  1  0  0  0  0
  5 40  1  0  0  0  0
  6 41  1  0  0  0  0
  6 42  1  0  0  0  0
  7  9  1  0  0  0  0
  7 13  1  0  0  0  0
  7  8  1  6  0  0  0
  7  3  1  0  0  0  0
  9 10  1  1  0  0  0
  9 11  1  0  0  0  0
  9 30  1  0  0  0  0
 11 12  1  0  0  0  0
 11 43  1  0  0  0  0
 11 44  1  0  0  0  0
 12 13  1  0  0  0  0
 12 45  1  0  0  0  0
 12 46  1  0  0  0  0
 13 14  1  0  0  0  0
 14 15  2  0  0  0  0
 16 18  1  0  0  0  0
 16 21  1  0  0  0  0
 16 17  1  6  0  0  0
 16 14  1  0  0  0  0
 18 19  1  0  0  0  0
 18 20  1  0  0  0  0
 18 47  1  0  0  0  0
 19 48  1  0  0  0  0
 19 49  1  0  0  0  0
 19 50  1  0  0  0  0
 20 51  1  0  0  0  0
 20 52  1  0  0  0  0
 20 53  1  0  0  0  0
 21 22  1  0  0  0  0
 21 54  1  0  0  0  0
 22 23  2  0  0  0  0
 22 24  1  0  0  0  0
 24 25  1  0  0  0  0
 24 55  1  0  0  0  0
 25 26  1  0  0  0  0
 25 29  1  0  0  0  0
 25 56  1  0  0  0  0
 26 27  1  0  0  0  0
 26 57  1  0  0  0  0
 26 58  1  0  0  0  0
 27 28  1  0  0  0  0
 27 59  1  0  0  0  0
 27 60  1  0  0  0  0
 28 29  1  0  0  0  0
 28 61  1  0  0  0  0
 28 62  1  0  0  0  0
 29 63  1  0  0  0  0
 29 64  1  0  0  0  0
 30 31  1  0  0  0  0
 30 65  1  0  0  0  0
 31 32  2  0  0  0  0
 31 33  1  0  0  0  0
 33 34  1  0  0  0  0
 33 35  1  0  0  0  0
 33 66  1  0  0  0  0
 34 35  1  0  0  0  0
 34 67  1  0  0  0  0
 34 68  1  0  0  0  0
 35 69  1  0  0  0  0
 35 70  1  0  0  0  0
M  END
$$$$
