CR3
 OpenBabel04121316093D

 46 49  0  0  0  0  0  0  0  0999 V2000
    1.2205   -0.0799   -1.2808 O   0  5  0  0  0  0  0  0  0  0  0  0
    2.2956   -0.0718   -0.5538 C   0  0  0  0  0  0  0  0  0  0  0  0
    2.9219    1.1209   -0.1012 C   0  0  0  0  0  0  0  0  0  0  0  0
    4.2907    1.1423    0.2323 C   0  0  0  0  0  0  0  0  0  0  0  0
    4.9774   -0.0450    0.4438 C   0  0  0  0  0  0  0  0  0  0  0  0
    4.3097   -1.2547    0.2678 C   0  0  0  0  0  0  0  0  0  0  0  0
    2.9763   -1.2816   -0.2105 C   0  0  0  0  0  0  0  0  0  0  0  0
    2.3313   -2.5939   -0.4621 C   0  0  0  0  0  0  0  0  0  0  0  0
    2.3519   -3.8109    0.1824 C   0  0  0  0  0  0  0  0  0  0  0  0
    1.8087   -4.7604   -0.7251 C   0  0  0  0  0  0  0  0  0  0  0  0
    1.2235   -4.0681   -1.7755 C   0  0  0  0  0  0  0  0  0  0  0  0
    1.3953   -2.7408   -1.4748 N   0  0  0  0  0  0  0  0  0  0  0  0
    1.0184   -1.9173   -1.9417 H   0  0  0  0  0  0  0  0  0  0  0  0
    0.6161   -4.7044   -2.8592 C   0  0  0  0  0  0  0  0  0  0  0  0
    0.6798   -6.1068   -2.8925 C   0  0  0  0  0  0  0  0  0  0  0  0
    1.2755   -6.8608   -1.8611 C   0  0  0  0  0  0  0  0  0  0  0  0
    1.8057   -6.1616   -0.7582 C   0  0  0  0  0  0  0  0  0  0  0  0
    1.3716   -8.3391   -1.9178 C   0  0  0  0  0  0  0  0  0  0  0  0
    1.9554   -9.0120   -0.9439 N   0  3  0  0  0  0  0  0  0  0  0  0
    2.0374  -10.0165   -0.9448 H   0  0  0  0  0  0  0  0  0  0  0  0
    2.3531   -8.5368   -0.1447 H   0  0  0  0  0  0  0  0  0  0  0  0
    0.8849   -9.0181   -2.9359 N   0  0  0  0  0  0  0  0  0  0  0  0
    2.2978    2.3464    0.0971 O   0  0  0  0  0  0  0  0  0  0  0  0
    0.8612    2.3505    0.2027 C   0  0  0  0  0  0  0  0  0  0  0  0
    0.2152    1.2901    1.1157 C   0  0  0  0  0  0  0  0  0  0  0  0
   -1.1526    1.8370    1.4247 C   0  0  0  0  0  0  0  0  0  0  0  0
   -0.8969    3.3061    1.6630 C   0  0  0  0  0  0  0  0  0  0  0  0
    0.3879    3.6512    0.8927 C   0  0  0  0  0  0  0  0  0  0  0  0
    4.8115    2.0936    0.2980 H   0  0  0  0  0  0  0  0  0  0  0  0
    6.0175   -0.0219    0.7580 H   0  0  0  0  0  0  0  0  0  0  0  0
    4.8610   -2.1795    0.4025 H   0  0  0  0  0  0  0  0  0  0  0  0
    2.8266   -4.0135    1.1317 H   0  0  0  0  0  0  0  0  0  0  0  0
    0.1586   -4.1373   -3.6661 H   0  0  0  0  0  0  0  0  0  0  0  0
    0.2503   -6.5738   -3.7738 H   0  0  0  0  0  0  0  0  0  0  0  0
    2.2947   -6.6381    0.0788 H   0  0  0  0  0  0  0  0  0  0  0  0
    0.4364   -8.5494   -3.7118 H   0  0  0  0  0  0  0  0  0  0  0  0
    0.9385  -10.0243   -2.9878 H   0  0  0  0  0  0  0  0  0  0  0  0
    0.4480    2.3614   -0.8137 H   0  0  0  0  0  0  0  0  0  0  0  0
    0.8248    1.1205    2.0090 H   0  0  0  0  0  0  0  0  0  0  0  0
    0.0295    0.3164    0.6693 H   0  0  0  0  0  0  0  0  0  0  0  0
   -1.5961    1.3188    2.2790 H   0  0  0  0  0  0  0  0  0  0  0  0
   -1.8141    1.6917    0.5606 H   0  0  0  0  0  0  0  0  0  0  0  0
   -0.7473    3.4753    2.7347 H   0  0  0  0  0  0  0  0  0  0  0  0
   -1.7553    3.9037    1.3431 H   0  0  0  0  0  0  0  0  0  0  0  0
    1.1448    4.0400    1.5839 H   0  0  0  0  0  0  0  0  0  0  0  0
    0.1972    4.4431    0.1591 H   0  0  0  0  0  0  0  0  0  0  0  0
  1  2  1  0  0  0  0
  2  3  2  0  0  0  0
  2  7  1  0  0  0  0
  3  4  1  0  0  0  0
  3 23  1  0  0  0  0
  4  5  2  0  0  0  0
  4 29  1  0  0  0  0
  5  6  1  0  0  0  0
  5 30  1  0  0  0  0
  6  7  2  0  0  0  0
  6 31  1  0  0  0  0
  7  8  1  0  0  0  0
  8  9  2  0  0  0  0
  8 12  1  0  0  0  0
  9 10  1  0  0  0  0
  9 32  1  0  0  0  0
 10 11  2  0  0  0  0
 10 17  1  0  0  0  0
 11 12  1  0  0  0  0
 11 14  1  0  0  0  0
 12 13  1  0  0  0  0
 14 15  2  0  0  0  0
 14 33  1  0  0  0  0
 15 16  1  0  0  0  0
 15 34  1  0  0  0  0
 16 17  2  0  0  0  0
 16 18  1  0  0  0  0
 17 35  1  0  0  0  0
 18 19  2  0  0  0  0
 18 22  1  0  0  0  0
 19 20  1  0  0  0  0
 19 21  1  0  0  0  0
 22 36  1  0  0  0  0
 22 37  1  0  0  0  0
 23 24  1  0  0  0  0
 24 25  1  0  0  0  0
 24 28  1  0  0  0  0
 24 38  1  0  0  0  0
 25 26  1  0  0  0  0
 25 39  1  0  0  0  0
 25 40  1  0  0  0  0
 26 27  1  0  0  0  0
 26 41  1  0  0  0  0
 26 42  1  0  0  0  0
 27 28  1  0  0  0  0
 27 43  1  0  0  0  0
 27 44  1  0  0  0  0
 28 45  1  0  0  0  0
 28 46  1  0  0  0  0
M  CHG  2   1  -1  19   1
M  END
$$$$
