CRB
 OpenBabel04121316093D

 32 32  0  0  1  0  0  0  0  0999 V2000
    2.8696    0.4941    1.2592 O   0  0  0  0  0  0  0  0  0  0  0  0
    2.4454    0.0364   -0.0207 C   0  0  2  0  0  0  0  0  0  0  0  0
    1.3507    0.0645    0.0106 H   0  0  0  0  0  0  0  0  0  0  0  0
    2.8895   -1.4123   -0.3531 C   0  0  1  0  0  0  0  0  0  0  0  0
    3.9854   -1.4554   -0.3205 H   0  0  0  0  0  0  0  0  0  0  0  0
    2.3731   -2.4789    0.6308 C   0  0  0  0  0  0  0  0  0  0  0  0
    2.9241   -2.1047    2.3353 P   0  0  0  0  0  0  0  0  0  0  0  0
    4.2289   -1.4719    1.8597 O   0  0  0  0  0  0  0  0  0  0  0  0
    1.6297   -1.1487    2.5503 O   0  0  0  0  0  0  0  0  0  0  0  0
    3.4450   -1.7509    3.9466 O   0  0  0  0  0  0  0  0  0  0  0  0
    2.4627   -1.7885   -1.7560 C   0  0  0  0  0  0  0  0  0  0  0  0
    3.0087   -0.7779   -2.7630 C   0  0  1  0  0  0  0  0  0  0  0  0
    2.5349    0.6392   -2.4271 C   0  0  0  0  0  0  0  0  0  0  0  0
    2.9466    1.0628   -1.0329 C   0  0  1  0  0  0  0  0  0  0  0  0
    4.0340    1.1676   -0.9452 H   0  0  0  0  0  0  0  0  0  0  0  0
    2.4050    2.3547   -0.7538 O   0  0  0  0  0  0  0  0  0  0  0  0
    4.4418   -0.8797   -2.7799 O   0  0  0  0  0  0  0  0  0  0  0  0
    2.4740   -1.2064   -4.1263 C   0  0  0  0  0  0  0  0  0  0  0  0
    1.3829   -0.8708   -4.5833 O   0  0  0  0  0  0  0  0  0  0  0  0
    3.2987   -2.0851   -4.7434 O   0  0  0  0  0  0  0  0  0  0  0  0
    3.8154    0.2333    1.3899 H   0  0  0  0  0  0  0  0  0  0  0  0
    2.7681   -3.4658    0.3643 H   0  0  0  0  0  0  0  0  0  0  0  0
    1.2794   -2.5478    0.6006 H   0  0  0  0  0  0  0  0  0  0  0  0
    1.7196   -0.2721    2.1168 H   0  0  0  0  0  0  0  0  0  0  0  0
    4.1911   -2.3287    4.1863 H   0  0  0  0  0  0  0  0  0  0  0  0
    1.3674   -1.8300   -1.8007 H   0  0  0  0  0  0  0  0  0  0  0  0
    2.8367   -2.7957   -1.9824 H   0  0  0  0  0  0  0  0  0  0  0  0
    1.4367    0.6864   -2.4807 H   0  0  0  0  0  0  0  0  0  0  0  0
    2.9049    1.3733   -3.1482 H   0  0  0  0  0  0  0  0  0  0  0  0
    1.4525    2.2651   -0.5767 H   0  0  0  0  0  0  0  0  0  0  0  0
    4.8086   -0.5408   -1.9405 H   0  0  0  0  0  0  0  0  0  0  0  0
    4.1257   -2.1674   -4.2135 H   0  0  0  0  0  0  0  0  0  0  0  0
  1 21  1  0  0  0  0
  2  4  1  0  0  0  0
  2 14  1  0  0  0  0
  2  3  1  6  0  0  0
  2  1  1  0  0  0  0
  4  5  1  1  0  0  0
  4  6  1  0  0  0  0
  4 11  1  0  0  0  0
  6  7  1  0  0  0  0
  6 22  1  0  0  0  0
  6 23  1  0  0  0  0
  7  8  2  0  0  0  0
  7  9  1  0  0  0  0
  7 10  1  0  0  0  0
  9 24  1  0  0  0  0
 10 25  1  0  0  0  0
 11 12  1  0  0  0  0
 11 26  1  0  0  0  0
 11 27  1  0  0  0  0
 12 13  1  0  0  0  0
 12 18  1  6  0  0  0
 12 17  1  0  0  0  0
 13 14  1  0  0  0  0
 13 28  1  0  0  0  0
 13 29  1  0  0  0  0
 14 16  1  0  0  0  0
 14 15  1  1  0  0  0
 16 30  1  0  0  0  0
 17 31  1  0  0  0  0
 18 19  2  0  0  0  0
 18 20  1  0  0  0  0
 20 32  1  0  0  0  0
M  END
$$$$
