CRZ
 OpenBabel04121316103D

 34 36  0  0  0  0  0  0  0  0999 V2000
    1.0441    0.1051   -0.0762 O   0  0  0  0  0  0  0  0  0  0  0  0
    2.3881    0.0230   -0.1471 C   0  0  0  0  0  0  0  0  0  0  0  0
    2.9523   -0.4939   -1.1020 O   0  0  0  0  0  0  0  0  0  0  0  0
    3.0948    0.6129    1.0516 C   0  0  0  0  0  0  0  0  0  0  0  0
    4.6007    0.5220    0.8380 C   0  0  0  0  0  0  0  0  0  0  0  0
    5.3876    1.0489    2.0292 C   0  0  0  0  0  0  0  0  0  0  0  0
    6.8227    0.9392    1.8124 N   0  0  0  0  0  0  0  0  0  0  0  0
    7.4938   -0.2633    1.7080 C   0  0  0  0  0  0  0  0  0  0  0  0
    7.0262   -1.5859    1.7917 C   0  0  0  0  0  0  0  0  0  0  0  0
    7.9341   -2.6246    1.6029 C   0  0  0  0  0  0  0  0  0  0  0  0
    9.2758   -2.3555    1.3646 C   0  0  0  0  0  0  0  0  0  0  0  0
    9.7393   -1.0347    1.2965 C   0  0  0  0  0  0  0  0  0  0  0  0
    8.8336    0.0361    1.4631 C   0  0  0  0  0  0  0  0  0  0  0  0
    8.9583    1.4636    1.4448 C   0  0  0  0  0  0  0  0  0  0  0  0
    7.6872    2.0024    1.6627 C   0  0  0  0  0  0  0  0  0  0  0  0
    7.4605    3.3883    1.6976 C   0  0  0  0  0  0  0  0  0  0  0  0
    8.5500    4.2410    1.5176 C   0  0  0  0  0  0  0  0  0  0  0  0
    9.8251    3.7313    1.3019 C   0  0  0  0  0  0  0  0  0  0  0  0
   10.0427    2.3490    1.2595 C   0  0  0  0  0  0  0  0  0  0  0  0
    0.6980    0.5651    0.7098 H   0  0  0  0  0  0  0  0  0  0  0  0
    2.8124    0.0470    1.9470 H   0  0  0  0  0  0  0  0  0  0  0  0
    2.8000    1.6597    1.1755 H   0  0  0  0  0  0  0  0  0  0  0  0
    4.8909    1.0677   -0.0689 H   0  0  0  0  0  0  0  0  0  0  0  0
    4.8547   -0.5247    0.6415 H   0  0  0  0  0  0  0  0  0  0  0  0
    5.1590    0.4991    2.9490 H   0  0  0  0  0  0  0  0  0  0  0  0
    5.1335    2.0974    2.2076 H   0  0  0  0  0  0  0  0  0  0  0  0
    5.9822   -1.8125    1.9794 H   0  0  0  0  0  0  0  0  0  0  0  0
    7.5797   -3.6516    1.6430 H   0  0  0  0  0  0  0  0  0  0  0  0
    9.9708   -3.1796    1.2300 H   0  0  0  0  0  0  0  0  0  0  0  0
   10.7909   -0.8400    1.1103 H   0  0  0  0  0  0  0  0  0  0  0  0
    6.4720    3.8028    1.8624 H   0  0  0  0  0  0  0  0  0  0  0  0
    8.3939    5.3166    1.5473 H   0  0  0  0  0  0  0  0  0  0  0  0
   10.6604    4.4126    1.1642 H   0  0  0  0  0  0  0  0  0  0  0  0
   11.0431    1.9629    1.0875 H   0  0  0  0  0  0  0  0  0  0  0  0
  1  2  1  0  0  0  0
  1 20  1  0  0  0  0
  2  3  2  0  0  0  0
  2  4  1  0  0  0  0
  4  5  1  0  0  0  0
  4 21  1  0  0  0  0
  4 22  1  0  0  0  0
  5  6  1  0  0  0  0
  5 23  1  0  0  0  0
  5 24  1  0  0  0  0
  6  7  1  0  0  0  0
  6 25  1  0  0  0  0
  6 26  1  0  0  0  0
  7  8  1  0  0  0  0
  7 15  1  0  0  0  0
  8  9  2  0  0  0  0
  8 13  1  0  0  0  0
  9 10  1  0  0  0  0
  9 27  1  0  0  0  0
 10 11  2  0  0  0  0
 10 28  1  0  0  0  0
 11 12  1  0  0  0  0
 11 29  1  0  0  0  0
 12 13  2  0  0  0  0
 12 30  1  0  0  0  0
 13 14  1  0  0  0  0
 14 15  2  0  0  0  0
 14 19  1  0  0  0  0
 15 16  1  0  0  0  0
 16 17  2  0  0  0  0
 16 31  1  0  0  0  0
 17 18  1  0  0  0  0
 17 32  1  0  0  0  0
 18 19  2  0  0  0  0
 18 33  1  0  0  0  0
 19 34  1  0  0  0  0
M  END
$$$$
