CS5
 OpenBabel04121316103D

 83 85  0  0  1  0  0  0  0  0999 V2000
    3.7972    0.6321   -3.2437 C   0  0  0  0  0  0  0  0  0  0  0  0
    4.5981    1.1360   -2.0900 C   0  0  0  0  0  0  0  0  0  0  0  0
    5.7860    0.4149   -1.5114 C   0  0  0  0  0  0  0  0  0  0  0  0
    6.3358    1.0137   -0.2550 N   0  0  0  0  0  0  0  0  0  0  0  0
    5.7644    2.0374    0.5312 C   0  0  0  0  0  0  0  0  0  0  0  0
    6.3189    2.6587    1.4405 O   0  0  0  0  0  0  0  0  0  0  0  0
    4.4840    2.6592    0.2138 C   0  0  0  0  0  0  0  0  0  0  0  0
    3.2282    2.1050    0.3343 C   0  0  0  0  0  0  0  0  0  0  0  0
    2.1729    2.7508   -0.3264 C   0  0  0  0  0  0  0  0  0  0  0  0
    0.9471    2.0136   -0.7219 C   0  0  0  0  0  0  0  0  0  0  0  0
    2.2850    4.0758   -0.7173 C   0  0  0  0  0  0  0  0  0  0  0  0
    3.5192    4.6712   -0.6720 C   0  0  0  0  0  0  0  0  0  0  0  0
    4.6201    3.8800   -0.4016 C   0  0  0  0  0  0  0  0  0  0  0  0
    3.5390    6.1131   -0.8221 C   0  0  0  0  0  0  0  0  0  0  0  0
    2.5418    6.7496   -1.2113 O   0  0  0  0  0  0  0  0  0  0  0  0
    4.5812    6.8222   -0.3791 N   0  0  0  0  0  0  0  0  0  0  0  0
    5.9822    6.4423   -0.1017 C   0  0  2  0  0  0  0  0  0  0  0  0
    5.9193    5.4451    0.2566 H   0  0  0  0  0  0  0  0  0  0  0  0
    6.6067    6.9353    1.2204 C   0  0  1  0  0  0  0  0  0  0  0  0
    7.4189    6.2340    1.4701 H   0  0  0  0  0  0  0  0  0  0  0  0
    7.1900    8.3541    1.2709 C   0  0  0  0  0  0  0  0  0  0  0  0
    8.4469    8.4298    0.5031 N   0  0  0  0  0  0  0  0  0  0  0  0
    8.9476    9.7834    0.2172 C   0  0  0  0  0  0  0  0  0  0  0  0
   10.0586    9.8194   -0.8798 C   0  0  0  0  0  0  0  0  0  0  0  0
   10.3570   11.0431   -1.5234 C   0  0  0  0  0  0  0  0  0  0  0  0
   11.1295   11.0824   -2.7016 C   0  0  0  0  0  0  0  0  0  0  0  0
   11.5473    9.8906   -3.3110 C   0  0  0  0  0  0  0  0  0  0  0  0
   11.2419    8.6545   -2.7207 C   0  0  0  0  0  0  0  0  0  0  0  0
   10.6105    8.6375   -1.4573 C   0  0  0  0  0  0  0  0  0  0  0  0
   11.3874    7.5745   -3.5698 O   0  0  0  0  0  0  0  0  0  0  0  0
   10.9493    6.2706   -3.1886 C   0  0  0  0  0  0  0  0  0  0  0  0
    5.6187    6.7558    2.2535 O   0  0  0  0  0  0  0  0  0  0  0  0
    6.8238    6.3971   -1.3955 C   0  0  0  0  0  0  0  0  0  0  0  0
    6.8677    7.7579   -2.0610 C   0  0  0  0  0  0  0  0  0  0  0  0
    6.0818    8.8337   -1.6440 C   0  0  0  0  0  0  0  0  0  0  0  0
    6.3282   10.1573   -1.9080 C   0  0  0  0  0  0  0  0  0  0  0  0
    5.7634   11.0598   -1.0968 F   0  0  0  0  0  0  0  0  0  0  0  0
    7.3835   10.4759   -2.6933 C   0  0  0  0  0  0  0  0  0  0  0  0
    8.0934    9.4384   -3.2670 C   0  0  0  0  0  0  0  0  0  0  0  0
    7.9024    8.1077   -2.8874 C   0  0  0  0  0  0  0  0  0  0  0  0
    9.1330    9.7484   -4.0334 F   0  0  0  0  0  0  0  0  0  0  0  0
    7.5801    0.3690    0.2079 C   0  0  0  0  0  0  0  0  0  0  0  0
    8.2445    1.0077    1.4218 C   0  0  0  0  0  0  0  0  0  0  0  0
    9.4925    0.3136    1.8922 C   0  0  0  0  0  0  0  0  0  0  0  0
    2.9226    1.2951   -3.3391 H   0  0  0  0  0  0  0  0  0  0  0  0
    3.4165   -0.3645   -3.0102 H   0  0  0  0  0  0  0  0  0  0  0  0
    4.3645    0.6475   -4.1670 H   0  0  0  0  0  0  0  0  0  0  0  0
    3.8597    0.9687   -1.3327 H   0  0  0  0  0  0  0  0  0  0  0  0
    4.8280    2.1917   -2.2544 H   0  0  0  0  0  0  0  0  0  0  0  0
    6.5882    0.3806   -2.2566 H   0  0  0  0  0  0  0  0  0  0  0  0
    5.5021   -0.6136   -1.2638 H   0  0  0  0  0  0  0  0  0  0  0  0
    3.1383    1.0733    0.6574 H   0  0  0  0  0  0  0  0  0  0  0  0
    1.1189    0.9392   -0.6356 H   0  0  0  0  0  0  0  0  0  0  0  0
    0.7152    2.2197   -1.7761 H   0  0  0  0  0  0  0  0  0  0  0  0
    0.1311    2.3372   -0.0814 H   0  0  0  0  0  0  0  0  0  0  0  0
    1.4345    4.6398   -1.0953 H   0  0  0  0  0  0  0  0  0  0  0  0
    5.6380    4.1071   -0.6807 H   0  0  0  0  0  0  0  0  0  0  0  0
    4.2813    7.7708   -0.5398 H   0  0  0  0  0  0  0  0  0  0  0  0
    7.3825    8.6135    2.3137 H   0  0  0  0  0  0  0  0  0  0  0  0
    6.4055    9.0465    0.9538 H   0  0  0  0  0  0  0  0  0  0  0  0
    8.2926    8.0048   -0.3984 H   0  0  0  0  0  0  0  0  0  0  0  0
    9.2825   10.2515    1.1413 H   0  0  0  0  0  0  0  0  0  0  0  0
    8.1084   10.3922   -0.1357 H   0  0  0  0  0  0  0  0  0  0  0  0
    9.8515   11.9622   -1.2244 H   0  0  0  0  0  0  0  0  0  0  0  0
   11.2418   12.0204   -3.2471 H   0  0  0  0  0  0  0  0  0  0  0  0
   11.9105    9.9255   -4.3406 H   0  0  0  0  0  0  0  0  0  0  0  0
   10.3637    7.6842   -1.0078 H   0  0  0  0  0  0  0  0  0  0  0  0
   11.3960    5.5424   -3.8726 H   0  0  0  0  0  0  0  0  0  0  0  0
    9.8782    6.0957   -3.3227 H   0  0  0  0  0  0  0  0  0  0  0  0
   11.2460    6.0281   -2.1699 H   0  0  0  0  0  0  0  0  0  0  0  0
    5.3376    5.8182    2.2248 H   0  0  0  0  0  0  0  0  0  0  0  0
    6.4252    5.6722   -2.1244 H   0  0  0  0  0  0  0  0  0  0  0  0
    7.8280    6.0084   -1.1485 H   0  0  0  0  0  0  0  0  0  0  0  0
    5.4616    8.7984   -0.7812 H   0  0  0  0  0  0  0  0  0  0  0  0
    7.7840   11.4780   -2.6527 H   0  0  0  0  0  0  0  0  0  0  0  0
    8.7226    7.4265   -2.9933 H   0  0  0  0  0  0  0  0  0  0  0  0
    8.2859    0.3631   -0.6331 H   0  0  0  0  0  0  0  0  0  0  0  0
    7.3301   -0.6759    0.4295 H   0  0  0  0  0  0  0  0  0  0  0  0
    7.5431    0.9953    2.2645 H   0  0  0  0  0  0  0  0  0  0  0  0
    8.5099    2.0451    1.1835 H   0  0  0  0  0  0  0  0  0  0  0  0
    9.2702   -0.7149    2.1844 H   0  0  0  0  0  0  0  0  0  0  0  0
    9.8778    0.8488    2.7668 H   0  0  0  0  0  0  0  0  0  0  0  0
   10.2549    0.3223    1.1115 H   0  0  0  0  0  0  0  0  0  0  0  0
  1  2  1  0  0  0  0
  1 45  1  0  0  0  0
  1 46  1  0  0  0  0
  1 47  1  0  0  0  0
  2  3  1  0  0  0  0
  2 48  1  0  0  0  0
  2 49  1  0  0  0  0
  3  4  1  0  0  0  0
  3 50  1  0  0  0  0
  3 51  1  0  0  0  0
  4  5  1  0  0  0  0
  4 42  1  0  0  0  0
  5  6  2  0  0  0  0
  5  7  1  0  0  0  0
  7  8  2  0  0  0  0
  7 13  1  0  0  0  0
  8  9  1  0  0  0  0
  8 52  1  0  0  0  0
  9 10  1  0  0  0  0
  9 11  2  0  0  0  0
 10 53  1  0  0  0  0
 10 54  1  0  0  0  0
 10 55  1  0  0  0  0
 11 12  1  0  0  0  0
 11 56  1  0  0  0  0
 12 13  2  0  0  0  0
 12 14  1  0  0  0  0
 13 57  1  0  0  0  0
 14 15  2  0  0  0  0
 14 16  1  0  0  0  0
 16 58  1  0  0  0  0
 17 19  1  0  0  0  0
 17 33  1  0  0  0  0
 17 18  1  1  0  0  0
 17 16  1  0  0  0  0
 19 20  1  1  0  0  0
 19 21  1  0  0  0  0
 19 32  1  0  0  0  0
 21 22  1  0  0  0  0
 21 59  1  0  0  0  0
 21 60  1  0  0  0  0
 22 23  1  0  0  0  0
 22 61  1  0  0  0  0
 23 24  1  0  0  0  0
 23 62  1  0  0  0  0
 23 63  1  0  0  0  0
 24 25  2  0  0  0  0
 24 29  1  0  0  0  0
 25 26  1  0  0  0  0
 25 64  1  0  0  0  0
 26 27  2  0  0  0  0
 26 65  1  0  0  0  0
 27 28  1  0  0  0  0
 27 66  1  0  0  0  0
 28 29  2  0  0  0  0
 28 30  1  0  0  0  0
 29 67  1  0  0  0  0
 30 31  1  0  0  0  0
 31 68  1  0  0  0  0
 31 69  1  0  0  0  0
 31 70  1  0  0  0  0
 32 71  1  0  0  0  0
 33 34  1  0  0  0  0
 33 72  1  0  0  0  0
 33 73  1  0  0  0  0
 34 35  2  0  0  0  0
 34 40  1  0  0  0  0
 35 36  1  0  0  0  0
 35 74  1  0  0  0  0
 36 37  1  0  0  0  0
 36 38  2  0  0  0  0
 38 39  1  0  0  0  0
 38 75  1  0  0  0  0
 39 40  2  0  0  0  0
 39 41  1  0  0  0  0
 40 76  1  0  0  0  0
 42 43  1  0  0  0  0
 42 77  1  0  0  0  0
 42 78  1  0  0  0  0
 43 44  1  0  0  0  0
 43 79  1  0  0  0  0
 43 80  1  0  0  0  0
 44 81  1  0  0  0  0
 44 82  1  0  0  0  0
 44 83  1  0  0  0  0
M  END
$$$$
