CS9
 OpenBabel04121316103D

 84 87  0  0  1  0  0  0  0  0999 V2000
   -1.0912   -2.0287  -10.2799 C   0  0  0  0  0  0  0  0  0  0  0  0
   -0.9013   -0.7056  -10.8964 C   0  0  0  0  0  0  0  0  0  0  0  0
    0.3958    0.0136  -10.8491 C   0  0  0  0  0  0  0  0  0  0  0  0
    0.2827    1.4403  -11.2356 N   0  0  0  0  0  0  0  0  0  0  0  0
   -0.9033    2.1755  -11.5223 C   0  0  0  0  0  0  0  0  0  0  0  0
   -0.9859    3.3380  -11.9109 O   0  0  0  0  0  0  0  0  0  0  0  0
   -2.2534    1.6595  -11.4261 C   0  0  0  0  0  0  0  0  0  0  0  0
   -3.0513    1.5930  -12.5015 C   0  0  0  0  0  0  0  0  0  0  0  0
   -4.3105    1.0298  -12.3469 C   0  0  0  0  0  0  0  0  0  0  0  0
   -5.2379    1.1223  -13.4789 C   0  0  0  0  0  0  0  0  0  0  0  0
   -4.7452    0.4331  -11.1629 C   0  0  0  0  0  0  0  0  0  0  0  0
   -3.9178    0.4723  -10.0858 C   0  0  0  0  0  0  0  0  0  0  0  0
   -2.7668    1.2104  -10.2556 C   0  0  0  0  0  0  0  0  0  0  0  0
   -4.2129   -0.3542   -8.9109 C   0  0  0  0  0  0  0  0  0  0  0  0
   -5.3441   -0.8226   -8.7909 O   0  0  0  0  0  0  0  0  0  0  0  0
   -3.1889   -0.6861   -8.0523 N   0  0  0  0  0  0  0  0  0  0  0  0
   -1.8812   -0.0365   -7.7253 C   0  0  2  0  0  0  0  0  0  0  0  0
   -1.3181   -0.3131   -8.5435 H   0  0  0  0  0  0  0  0  0  0  0  0
   -1.0459   -0.6805   -6.5383 C   0  0  1  0  0  0  0  0  0  0  0  0
   -0.0502   -0.2496   -6.6618 H   0  0  0  0  0  0  0  0  0  0  0  0
   -1.5916   -0.4752   -4.9361 C   0  0  2  0  0  0  0  0  0  0  0  0
   -0.8812   -0.7890   -4.1955 H   0  0  0  0  0  0  0  0  0  0  0  0
   -3.2334   -1.4959   -4.9663 N   0  0  0  0  0  0  0  0  0  0  0  0
   -4.7353   -0.3856   -5.5309 C   0  0  0  0  0  0  0  0  0  0  0  0
   -4.2403    1.6231   -5.3319 C   0  0  1  0  0  0  0  0  0  0  0  0
   -5.1922    1.7591   -4.7840 H   0  0  0  0  0  0  0  0  0  0  0  0
   -2.1082    1.4755   -4.6032 C   0  0  0  0  0  0  0  0  0  0  0  0
   -4.6921    2.0817   -6.9154 O   0  0  0  0  0  0  0  0  0  0  0  0
   -4.5086    3.4616   -7.2062 C   0  0  0  0  0  0  0  0  0  0  0  0
   -5.2691    4.2533   -6.3831 C   0  0  0  0  0  0  0  0  0  0  0  0
   -4.9466    5.5994   -6.3617 C   0  0  0  0  0  0  0  0  0  0  0  0
   -3.7540    6.1283   -6.9098 C   0  0  0  0  0  0  0  0  0  0  0  0
   -2.8254    5.3450   -7.5345 C   0  0  0  0  0  0  0  0  0  0  0  0
   -3.2645    4.0567   -7.8134 C   0  0  0  0  0  0  0  0  0  0  0  0
   -1.0448   -2.0844   -6.7664 O   0  0  0  0  0  0  0  0  0  0  0  0
   -1.9166    1.4667   -7.6154 C   0  0  0  0  0  0  0  0  0  0  0  0
   -2.5614    1.8336   -6.4172 C   0  0  0  0  0  0  0  0  0  0  0  0
   -3.0559    0.4816   -5.5891 C   0  0  0  0  0  0  0  0  0  0  0  0
   -3.6317    0.7078   -3.7578 C   0  0  0  0  0  0  0  0  0  0  0  0
   -4.0142   -0.2354   -2.8795 F   0  0  0  0  0  0  0  0  0  0  0  0
   -3.8248    2.2680   -3.2354 C   0  0  0  0  0  0  0  0  0  0  0  0
   -3.4059    3.4363   -4.1240 C   0  0  0  0  0  0  0  0  0  0  0  0
   -2.7062    3.2726   -5.4881 C   0  0  0  0  0  0  0  0  0  0  0  0
   -3.9215    4.6536   -3.9017 F   0  0  0  0  0  0  0  0  0  0  0  0
    1.5814    2.1054  -11.4128 C   0  0  0  0  0  0  0  0  0  0  0  0
    1.4540    3.5311  -11.9066 C   0  0  0  0  0  0  0  0  0  0  0  0
    2.7595    4.2229  -12.0967 C   0  0  0  0  0  0  0  0  0  0  0  0
   -2.1646   -2.2232  -10.1266 H   0  0  0  0  0  0  0  0  0  0  0  0
   -0.6085   -2.0101   -9.3156 H   0  0  0  0  0  0  0  0  0  0  0  0
   -0.6066   -2.7316  -10.9211 H   0  0  0  0  0  0  0  0  0  0  0  0
   -1.3342   -0.1670  -10.1327 H   0  0  0  0  0  0  0  0  0  0  0  0
   -1.5028   -0.5639  -11.7867 H   0  0  0  0  0  0  0  0  0  0  0  0
    1.0389   -0.5274  -11.5339 H   0  0  0  0  0  0  0  0  0  0  0  0
    0.8213   -0.0035   -9.8291 H   0  0  0  0  0  0  0  0  0  0  0  0
   -2.6858    2.0128  -13.4218 H   0  0  0  0  0  0  0  0  0  0  0  0
   -4.7354    1.6328  -14.3009 H   0  0  0  0  0  0  0  0  0  0  0  0
   -6.0923    1.7111  -13.1454 H   0  0  0  0  0  0  0  0  0  0  0  0
   -5.5165    0.1129  -13.7686 H   0  0  0  0  0  0  0  0  0  0  0  0
   -5.7210   -0.0289  -11.0843 H   0  0  0  0  0  0  0  0  0  0  0  0
   -1.9763    1.2726   -9.5688 H   0  0  0  0  0  0  0  0  0  0  0  0
   -3.4471   -1.3723   -7.3380 H   0  0  0  0  0  0  0  0  0  0  0  0
   -3.3893   -1.4666   -3.9739 H   0  0  0  0  0  0  0  0  0  0  0  0
   -5.6111   -0.7417   -5.0291 H   0  0  0  0  0  0  0  0  0  0  0  0
   -4.9210   -0.5842   -6.6196 H   0  0  0  0  0  0  0  0  0  0  0  0
   -1.7302    1.7244   -3.6039 H   0  0  0  0  0  0  0  0  0  0  0  0
   -1.1177    1.8788   -5.2604 H   0  0  0  0  0  0  0  0  0  0  0  0
   -5.8935    3.8194   -5.5927 H   0  0  0  0  0  0  0  0  0  0  0  0
   -5.6269    6.2593   -5.8542 H   0  0  0  0  0  0  0  0  0  0  0  0
   -3.5350    7.1746   -6.8191 H   0  0  0  0  0  0  0  0  0  0  0  0
   -1.7376    5.5634   -7.4431 H   0  0  0  0  0  0  0  0  0  0  0  0
   -2.3062    3.5340   -7.9308 H   0  0  0  0  0  0  0  0  0  0  0  0
   -0.7557   -2.2562   -7.6673 H   0  0  0  0  0  0  0  0  0  0  0  0
   -2.6517    1.9023   -8.2604 H   0  0  0  0  0  0  0  0  0  0  0  0
   -0.9388    1.9197   -7.6209 H   0  0  0  0  0  0  0  0  0  0  0  0
   -3.0197   -0.3279   -6.2094 H   0  0  0  0  0  0  0  0  0  0  0  0
   -4.5139    2.5220   -2.4513 H   0  0  0  0  0  0  0  0  0  0  0  0
   -2.3951    4.2350   -5.7954 H   0  0  0  0  0  0  0  0  0  0  0  0
    2.1748    1.5192  -12.1288 H   0  0  0  0  0  0  0  0  0  0  0  0
    2.1176    2.0888  -10.4540 H   0  0  0  0  0  0  0  0  0  0  0  0
    0.8776    4.1091  -11.1718 H   0  0  0  0  0  0  0  0  0  0  0  0
    0.9373    3.5248  -12.8761 H   0  0  0  0  0  0  0  0  0  0  0  0
    3.2888    4.2632  -11.1449 H   0  0  0  0  0  0  0  0  0  0  0  0
    2.5662    5.2390  -12.4512 H   0  0  0  0  0  0  0  0  0  0  0  0
    3.3496    3.6842  -12.8379 H   0  0  0  0  0  0  0  0  0  0  0  0
  1  2  1  0  0  0  0
  1 48  1  0  0  0  0
  1 49  1  0  0  0  0
  1 50  1  0  0  0  0
  2  3  1  0  0  0  0
  2 51  1  0  0  0  0
  2 52  1  0  0  0  0
  3  4  1  0  0  0  0
  3 53  1  0  0  0  0
  3 54  1  0  0  0  0
  4  5  1  0  0  0  0
  4 45  1  0  0  0  0
  5  6  2  0  0  0  0
  5  7  1  0  0  0  0
  7  8  2  0  0  0  0
  7 13  1  0  0  0  0
  8  9  1  0  0  0  0
  8 55  1  0  0  0  0
  9 10  1  0  0  0  0
  9 11  2  0  0  0  0
 10 56  1  0  0  0  0
 10 57  1  0  0  0  0
 10 58  1  0  0  0  0
 11 12  1  0  0  0  0
 11 59  1  0  0  0  0
 12 13  2  0  0  0  0
 12 14  1  0  0  0  0
 13 60  1  0  0  0  0
 14 15  2  0  0  0  0
 14 16  1  0  0  0  0
 16 61  1  0  0  0  0
 17 19  1  0  0  0  0
 17 36  1  0  0  0  0
 17 18  1  6  0  0  0
 17 16  1  0  0  0  0
 19 20  1  6  0  0  0
 19 35  1  0  0  0  0
 21 23  1  0  0  0  0
 21 27  1  0  0  0  0
 21 22  1  1  0  0  0
 21 19  1  0  0  0  0
 23 24  1  0  0  0  0
 23 62  1  0  0  0  0
 24 25  1  0  0  0  0
 24 63  1  0  0  0  0
 24 64  1  0  0  0  0
 25 26  1  1  0  0  0
 25 27  1  0  0  0  0
 25 28  1  0  0  0  0
 27 65  1  0  0  0  0
 27 66  1  0  0  0  0
 28 29  1  0  0  0  0
 29 30  2  0  0  0  0
 29 34  1  0  0  0  0
 30 31  1  0  0  0  0
 30 67  1  0  0  0  0
 31 32  2  0  0  0  0
 31 68  1  0  0  0  0
 32 33  1  0  0  0  0
 32 69  1  0  0  0  0
 33 34  2  0  0  0  0
 33 70  1  0  0  0  0
 34 71  1  0  0  0  0
 35 72  1  0  0  0  0
 36 37  1  0  0  0  0
 36 73  1  0  0  0  0
 36 74  1  0  0  0  0
 37 38  2  0  0  0  0
 37 43  1  0  0  0  0
 38 39  1  0  0  0  0
 38 75  1  0  0  0  0
 39 40  1  0  0  0  0
 39 41  2  0  0  0  0
 41 42  1  0  0  0  0
 41 76  1  0  0  0  0
 42 43  2  0  0  0  0
 42 44  1  0  0  0  0
 43 77  1  0  0  0  0
 45 46  1  0  0  0  0
 45 78  1  0  0  0  0
 45 79  1  0  0  0  0
 46 47  1  0  0  0  0
 46 80  1  0  0  0  0
 46 81  1  0  0  0  0
 47 82  1  0  0  0  0
 47 83  1  0  0  0  0
 47 84  1  0  0  0  0
M  END
$$$$
