CT1
 OpenBabel04121316103D

 49 49  0  0  1  0  0  0  0  0999 V2000
    5.8099    7.1756    0.4655 C   0  0  0  0  0  0  0  0  0  0  0  0
    4.8127    6.0472    0.5932 C   0  0  0  0  0  0  0  0  0  0  0  0
    5.5271    4.7868    1.0670 C   0  0  0  0  0  0  0  0  0  0  0  0
    4.5181    3.6704    1.2131 C   0  0  0  0  0  0  0  0  0  0  0  0
    5.0175    2.3455    1.8171 C   0  0  2  0  0  0  0  0  0  0  0  0
    4.6509    1.5147    1.1945 H   0  0  0  0  0  0  0  0  0  0  0  0
    4.4928    2.1088    3.1652 N   0  0  0  0  0  0  0  0  0  0  0  0
    3.1611    2.2626    3.4276 C   0  0  0  0  0  0  0  0  0  0  0  0
    2.3797    2.7683    2.6256 O   0  0  0  0  0  0  0  0  0  0  0  0
    2.7724    1.7564    4.6241 O   0  0  0  0  0  0  0  0  0  0  0  0
    1.3148    1.7384    4.8363 C   0  0  1  0  0  0  0  0  0  0  0  0
    0.9112    2.7243    4.5596 H   0  0  0  0  0  0  0  0  0  0  0  0
    0.6534    0.6062    3.9585 C   0  0  0  0  0  0  0  0  0  0  0  0
   -0.8632    0.5619    4.0395 C   0  0  0  0  0  0  0  0  0  0  0  0
    0.8691    0.6921    2.4476 C   0  0  0  0  0  0  0  0  0  0  0  0
    1.0990    1.5426    6.3818 C   0  0  0  0  0  0  0  0  0  0  0  0
   -0.3445    1.5219    6.8610 C   0  0  0  0  0  0  0  0  0  0  0  0
   -0.9928    0.2975    7.1235 C   0  0  0  0  0  0  0  0  0  0  0  0
   -2.3941    0.2256    7.0590 C   0  0  0  0  0  0  0  0  0  0  0  0
   -3.1495    1.3908    6.9614 C   0  0  0  0  0  0  0  0  0  0  0  0
   -2.5070    2.6270    6.9403 C   0  0  0  0  0  0  0  0  0  0  0  0
   -1.1148    2.6916    6.8259 C   0  0  0  0  0  0  0  0  0  0  0  0
    6.5371    2.2410    1.8350 C   0  0  0  0  0  0  0  0  0  0  0  0
    7.2595    2.8765    2.5995 O   0  0  0  0  0  0  0  0  0  0  0  0
    5.3111    8.0844    0.1232 H   0  0  0  0  0  0  0  0  0  0  0  0
    6.5927    6.9102   -0.2512 H   0  0  0  0  0  0  0  0  0  0  0  0
    6.2825    7.3787    1.4321 H   0  0  0  0  0  0  0  0  0  0  0  0
    4.3200    5.8620   -0.3683 H   0  0  0  0  0  0  0  0  0  0  0  0
    4.0287    6.3295    1.3083 H   0  0  0  0  0  0  0  0  0  0  0  0
    5.9871    4.9923    2.0405 H   0  0  0  0  0  0  0  0  0  0  0  0
    6.3098    4.5011    0.3583 H   0  0  0  0  0  0  0  0  0  0  0  0
    4.0363    3.4632    0.2489 H   0  0  0  0  0  0  0  0  0  0  0  0
    3.7442    4.1183    1.8369 H   0  0  0  0  0  0  0  0  0  0  0  0
    5.1200    1.8895    3.9298 H   0  0  0  0  0  0  0  0  0  0  0  0
    1.0791   -0.3462    4.2975 H   0  0  0  0  0  0  0  0  0  0  0  0
   -1.3162    1.5443    3.8741 H   0  0  0  0  0  0  0  0  0  0  0  0
   -1.1704    0.1729    4.9775 H   0  0  0  0  0  0  0  0  0  0  0  0
   -1.3017   -0.1688    3.3567 H   0  0  0  0  0  0  0  0  0  0  0  0
    0.4977    1.6571    2.0783 H   0  0  0  0  0  0  0  0  0  0  0  0
    0.2972   -0.0742    1.9168 H   0  0  0  0  0  0  0  0  0  0  0  0
    1.9084    0.5251    2.1678 H   0  0  0  0  0  0  0  0  0  0  0  0
    1.6245    2.3444    6.9198 H   0  0  0  0  0  0  0  0  0  0  0  0
    1.6064    0.6203    6.6915 H   0  0  0  0  0  0  0  0  0  0  0  0
   -0.4289   -0.6349    7.1080 H   0  0  0  0  0  0  0  0  0  0  0  0
   -2.8829   -0.7420    6.9480 H   0  0  0  0  0  0  0  0  0  0  0  0
   -4.2309    1.3350    6.8616 H   0  0  0  0  0  0  0  0  0  0  0  0
   -3.0949    3.5404    6.9377 H   0  0  0  0  0  0  0  0  0  0  0  0
   -0.6461    3.6527    6.6280 H   0  0  0  0  0  0  0  0  0  0  0  0
    6.9773    1.5377    1.1072 H   0  0  0  0  0  0  0  0  0  0  0  0
  1  2  1  0  0  0  0
  1 25  1  0  0  0  0
  1 26  1  0  0  0  0
  1 27  1  0  0  0  0
  2  3  1  0  0  0  0
  2 28  1  0  0  0  0
  2 29  1  0  0  0  0
  3  4  1  0  0  0  0
  3 30  1  0  0  0  0
  3 31  1  0  0  0  0
  4 32  1  0  0  0  0
  4 33  1  0  0  0  0
  5  7  1  0  0  0  0
  5 23  1  0  0  0  0
  5  6  1  6  0  0  0
  5  4  1  0  0  0  0
  7  8  1  0  0  0  0
  7 34  1  0  0  0  0
  8  9  2  0  0  0  0
  8 10  1  0  0  0  0
 10 11  1  0  0  0  0
 11 12  1  6  0  0  0
 11 13  1  0  0  0  0
 11 16  1  0  0  0  0
 13 14  1  0  0  0  0
 13 15  1  0  0  0  0
 13 35  1  0  0  0  0
 14 36  1  0  0  0  0
 14 37  1  0  0  0  0
 14 38  1  0  0  0  0
 15 39  1  0  0  0  0
 15 40  1  0  0  0  0
 15 41  1  0  0  0  0
 16 17  1  0  0  0  0
 16 42  1  0  0  0  0
 16 43  1  0  0  0  0
 17 18  2  0  0  0  0
 17 22  1  0  0  0  0
 18 19  1  0  0  0  0
 18 44  1  0  0  0  0
 19 20  2  0  0  0  0
 19 45  1  0  0  0  0
 20 21  1  0  0  0  0
 20 46  1  0  0  0  0
 21 22  2  0  0  0  0
 21 47  1  0  0  0  0
 22 48  1  0  0  0  0
 23 24  2  0  0  0  0
 23 49  1  0  0  0  0
M  END
$$$$
