CT8
 OpenBabel04121316103D

 38 41  0  0  0  0  0  0  0  0999 V2000
    1.0455   -0.0374    0.1868 Br  0  0  0  0  0  0  0  0  0  0  0  0
    2.9331   -0.0455    0.1295 C   0  0  0  0  0  0  0  0  0  0  0  0
    3.6270    1.1584    0.0555 C   0  0  0  0  0  0  0  0  0  0  0  0
    5.0115    1.1450   -0.0227 C   0  0  0  0  0  0  0  0  0  0  0  0
    5.6810   -0.0724   -0.1286 C   0  0  0  0  0  0  0  0  0  0  0  0
    4.9960   -1.3106   -0.0920 C   0  0  0  0  0  0  0  0  0  0  0  0
    3.6100   -1.2651    0.1138 C   0  0  0  0  0  0  0  0  0  0  0  0
    5.6826   -2.6040   -0.3202 C   0  0  0  0  0  0  0  0  0  0  0  0
    6.9824   -2.6168   -0.8188 C   0  0  0  0  0  0  0  0  0  0  0  0
    7.6396   -3.7912   -1.0654 C   0  0  0  0  0  0  0  0  0  0  0  0
    8.9146   -3.8943   -1.5273 N   0  0  0  0  0  0  0  0  0  0  0  0
    9.7350   -2.7288   -1.8018 C   0  0  0  0  0  0  0  0  0  0  0  0
   11.0943   -3.0998   -2.3232 C   0  0  0  0  0  0  0  0  0  0  0  0
   11.9815   -2.0693   -2.6528 C   0  0  0  0  0  0  0  0  0  0  0  0
   13.1786   -2.4012   -3.2634 C   0  0  0  0  0  0  0  0  0  0  0  0
   13.5886   -3.6691   -3.4697 N   0  0  0  0  0  0  0  0  0  0  0  0
   12.7649   -4.6491   -3.0701 C   0  0  0  0  0  0  0  0  0  0  0  0
   11.5146   -4.4171   -2.5372 C   0  0  0  0  0  0  0  0  0  0  0  0
    6.8845   -5.0083   -0.8075 N   0  3  0  0  0  0  0  0  0  0  0  0
    5.5792   -4.9218   -0.3304 C   0  0  0  0  0  0  0  0  0  0  0  0
    4.9659   -3.7303   -0.0770 N   0  0  0  0  0  0  0  0  0  0  0  0
    5.0275   -6.1716   -0.1529 N   0  0  0  0  0  0  0  0  0  0  0  0
    6.0735   -6.9813   -0.5450 C   0  0  0  0  0  0  0  0  0  0  0  0
    7.1999   -6.2679   -0.9429 N   0  0  0  0  0  0  0  0  0  0  0  0
    8.0894   -6.6371   -1.2728 H   0  0  0  0  0  0  0  0  0  0  0  0
    3.1008    2.1084    0.0585 H   0  0  0  0  0  0  0  0  0  0  0  0
    5.5738    2.0763   -0.0254 H   0  0  0  0  0  0  0  0  0  0  0  0
    6.7587   -0.0037   -0.2505 H   0  0  0  0  0  0  0  0  0  0  0  0
    3.0434   -2.1878    0.2276 H   0  0  0  0  0  0  0  0  0  0  0  0
    7.4961   -1.6889   -1.0377 H   0  0  0  0  0  0  0  0  0  0  0  0
    9.2955   -4.8024   -1.6617 H   0  0  0  0  0  0  0  0  0  0  0  0
    9.8518   -2.1289   -0.8896 H   0  0  0  0  0  0  0  0  0  0  0  0
    9.2395   -2.1085   -2.5619 H   0  0  0  0  0  0  0  0  0  0  0  0
   11.7482   -1.0251   -2.4630 H   0  0  0  0  0  0  0  0  0  0  0  0
   13.8577   -1.6340   -3.6221 H   0  0  0  0  0  0  0  0  0  0  0  0
   13.1303   -5.6642   -3.1887 H   0  0  0  0  0  0  0  0  0  0  0  0
   10.9214   -5.2899   -2.3140 H   0  0  0  0  0  0  0  0  0  0  0  0
    6.1202   -8.0607   -0.5753 H   0  0  0  0  0  0  0  0  0  0  0  0
  1  2  1  0  0  0  0
  2  3  2  0  0  0  0
  2  7  1  0  0  0  0
  3  4  1  0  0  0  0
  3 26  1  0  0  0  0
  4  5  2  0  0  0  0
  4 27  1  0  0  0  0
  5  6  1  0  0  0  0
  5 28  1  0  0  0  0
  6  7  2  0  0  0  0
  6  8  1  0  0  0  0
  7 29  1  0  0  0  0
  8  9  2  0  0  0  0
  8 21  1  0  0  0  0
  9 10  1  0  0  0  0
  9 30  1  0  0  0  0
 10 11  1  0  0  0  0
 10 19  2  0  0  0  0
 11 12  1  0  0  0  0
 11 31  1  0  0  0  0
 12 13  1  0  0  0  0
 12 32  1  0  0  0  0
 12 33  1  0  0  0  0
 13 14  2  0  0  0  0
 13 18  1  0  0  0  0
 14 15  1  0  0  0  0
 14 34  1  0  0  0  0
 15 16  2  0  0  0  0
 15 35  1  0  0  0  0
 16 17  1  0  0  0  0
 17 18  2  0  0  0  0
 17 36  1  0  0  0  0
 18 37  1  0  0  0  0
 19 20  1  0  0  0  0
 19 24  1  0  0  0  0
 20 21  2  0  0  0  0
 20 22  1  0  0  0  0
 22 23  2  0  0  0  0
 23 24  1  0  0  0  0
 23 38  1  0  0  0  0
 24 25  1  0  0  0  0
M  CHG  1  19   1
M  END
$$$$
