CT9
 OpenBabel04121316103D

 66 69  0  0  1  0  0  0  0  0999 V2000
    3.0018    0.3636    1.3611 N   0  0  0  0  0  0  0  0  0  0  0  0
    2.5188   -0.0478    0.0500 C   0  0  2  0  0  0  0  0  0  0  0  0
    1.4226   -0.0255    0.0634 H   0  0  0  0  0  0  0  0  0  0  0  0
    3.0329   -1.4316   -0.3331 C   0  0  0  0  0  0  0  0  0  0  0  0
    2.6150   -1.8141   -1.7589 C   0  0  0  0  0  0  0  0  0  0  0  0
    3.1142   -0.8156   -2.7945 C   0  0  1  0  0  0  0  0  0  0  0  0
    2.7324   -1.0817   -3.7879 H   0  0  0  0  0  0  0  0  0  0  0  0
    2.4867    0.5087   -2.3891 C   0  0  0  0  0  0  0  0  0  0  0  0
    2.9914    0.9463   -0.9877 C   0  0  0  0  0  0  0  0  0  0  0  0
    4.5896   -0.7780   -2.8552 N   0  0  0  0  0  0  0  0  0  0  0  0
    5.3327    0.0051   -3.7187 C   0  0  0  0  0  0  0  0  0  0  0  0
    5.2529    1.4519   -3.4829 C   0  0  0  0  0  0  0  0  0  0  0  0
    5.5512    2.3720   -4.3999 C   0  0  0  0  0  0  0  0  0  0  0  0
    5.2622    3.7431   -4.2538 N   0  0  0  0  0  0  0  0  0  0  0  0
    4.2867    4.3216   -3.4091 C   0  0  0  0  0  0  0  0  0  0  0  0
    3.3297    3.5684   -2.7547 C   0  0  0  0  0  0  0  0  0  0  0  0
    2.3398    3.9802   -1.8949 C   0  0  0  0  0  0  0  0  0  0  0  0
    2.4164    5.2558   -1.4649 C   0  0  0  0  0  0  0  0  0  0  0  0
    3.4425    6.0705   -1.9614 C   0  0  0  0  0  0  0  0  0  0  0  0
    4.2946    5.6375   -3.0108 C   0  0  0  0  0  0  0  0  0  0  0  0
    1.0857    5.7007   -0.4137 S   0  0  0  0  0  0  0  0  0  0  0  0
   -0.1446    5.4034   -1.1487 O   0  0  0  0  0  0  0  0  0  0  0  0
    1.3186    5.1266    0.8798 O   0  0  0  0  0  0  0  0  0  0  0  0
    1.1939    7.3893   -0.3197 N   0  0  0  0  0  0  0  0  0  0  0  0
    1.0959    8.0864   -1.6238 C   0  0  0  0  0  0  0  0  0  0  0  0
    0.1670    7.9063    0.6094 C   0  0  0  0  0  0  0  0  0  0  0  0
    6.3387    1.8710   -5.4537 N   0  0  0  0  0  0  0  0  0  0  0  0
    6.6683    0.4952   -5.4934 C   0  0  0  0  0  0  0  0  0  0  0  0
    6.1218   -0.4520   -4.6465 N   0  0  0  0  0  0  0  0  0  0  0  0
    7.5417    0.3438   -6.5466 C   0  0  0  0  0  0  0  0  0  0  0  0
    7.6988    1.6465   -7.0685 C   0  0  0  0  0  0  0  0  0  0  0  0
    6.9720    2.5680   -6.4380 N   0  0  0  0  0  0  0  0  0  0  0  0
    8.1251   -0.9466   -7.0220 C   0  0  0  0  0  0  0  0  0  0  0  0
    7.0133   -1.9269   -7.4141 C   0  0  0  0  0  0  0  0  0  0  0  0
    9.0574   -0.7231   -8.2101 C   0  0  0  0  0  0  0  0  0  0  0  0
    4.0207    0.3878    1.3784 H   0  0  0  0  0  0  0  0  0  0  0  0
    2.7103   -0.3097    2.0652 H   0  0  0  0  0  0  0  0  0  0  0  0
    2.6498   -2.1725    0.3703 H   0  0  0  0  0  0  0  0  0  0  0  0
    4.1282   -1.4409   -0.2645 H   0  0  0  0  0  0  0  0  0  0  0  0
    1.5157   -1.8248   -1.8044 H   0  0  0  0  0  0  0  0  0  0  0  0
    2.9705   -2.8131   -2.0073 H   0  0  0  0  0  0  0  0  0  0  0  0
    1.3903    0.4792   -2.3595 H   0  0  0  0  0  0  0  0  0  0  0  0
    2.6415    1.1351   -3.2610 H   0  0  0  0  0  0  0  0  0  0  0  0
    2.6264    1.9144   -0.6619 H   0  0  0  0  0  0  0  0  0  0  0  0
    4.0829    1.0213   -0.9333 H   0  0  0  0  0  0  0  0  0  0  0  0
    5.0969   -1.4940   -2.3502 H   0  0  0  0  0  0  0  0  0  0  0  0
    4.9603    1.7094   -2.4946 H   0  0  0  0  0  0  0  0  0  0  0  0
    5.6255    4.3276   -5.0032 H   0  0  0  0  0  0  0  0  0  0  0  0
    3.3695    2.5365   -2.8604 H   0  0  0  0  0  0  0  0  0  0  0  0
    1.5840    3.2966   -1.5125 H   0  0  0  0  0  0  0  0  0  0  0  0
    3.5880    7.0666   -1.5650 H   0  0  0  0  0  0  0  0  0  0  0  0
    4.9875    6.3305   -3.4695 H   0  0  0  0  0  0  0  0  0  0  0  0
    1.8650    7.7917   -2.3339 H   0  0  0  0  0  0  0  0  0  0  0  0
    1.2507    9.1537   -1.4638 H   0  0  0  0  0  0  0  0  0  0  0  0
    0.1343    7.8981   -2.1013 H   0  0  0  0  0  0  0  0  0  0  0  0
    0.2480    7.4330    1.5921 H   0  0  0  0  0  0  0  0  0  0  0  0
   -0.8315    7.7231    0.1981 H   0  0  0  0  0  0  0  0  0  0  0  0
    0.3092    8.9804    0.7374 H   0  0  0  0  0  0  0  0  0  0  0  0
    8.3113    1.9515   -7.9083 H   0  0  0  0  0  0  0  0  0  0  0  0
    8.7068   -1.3877   -6.2002 H   0  0  0  0  0  0  0  0  0  0  0  0
    6.3891   -1.5078   -8.2115 H   0  0  0  0  0  0  0  0  0  0  0  0
    6.3499   -2.1502   -6.5713 H   0  0  0  0  0  0  0  0  0  0  0  0
    7.4305   -2.8770   -7.7574 H   0  0  0  0  0  0  0  0  0  0  0  0
    8.5089   -0.2808   -9.0507 H   0  0  0  0  0  0  0  0  0  0  0  0
    9.5036   -1.6607   -8.5480 H   0  0  0  0  0  0  0  0  0  0  0  0
    9.8667   -0.0340   -7.9419 H   0  0  0  0  0  0  0  0  0  0  0  0
  1 36  1  0  0  0  0
  1 37  1  0  0  0  0
  2  4  1  0  0  0  0
  2  9  1  0  0  0  0
  2  3  1  1  0  0  0
  2  1  1  0  0  0  0
  4  5  1  0  0  0  0
  4 38  1  0  0  0  0
  4 39  1  0  0  0  0
  5  6  1  0  0  0  0
  5 40  1  0  0  0  0
  5 41  1  0  0  0  0
  6  7  1  6  0  0  0
  6  8  1  0  0  0  0
  6 10  1  0  0  0  0
  8  9  1  0  0  0  0
  8 42  1  0  0  0  0
  8 43  1  0  0  0  0
  9 44  1  0  0  0  0
  9 45  1  0  0  0  0
 10 11  1  0  0  0  0
 10 46  1  0  0  0  0
 11 12  1  0  0  0  0
 11 29  2  0  0  0  0
 12 13  2  0  0  0  0
 12 47  1  0  0  0  0
 13 14  1  0  0  0  0
 13 27  1  0  0  0  0
 14 15  1  0  0  0  0
 14 48  1  0  0  0  0
 15 16  2  0  0  0  0
 15 20  1  0  0  0  0
 16 17  1  0  0  0  0
 16 49  1  0  0  0  0
 17 18  2  0  0  0  0
 17 50  1  0  0  0  0
 18 19  1  0  0  0  0
 18 21  1  0  0  0  0
 19 20  2  0  0  0  0
 19 51  1  0  0  0  0
 20 52  1  0  0  0  0
 21 22  2  0  0  0  0
 21 23  2  0  0  0  0
 21 24  1  0  0  0  0
 24 25  1  0  0  0  0
 24 26  1  0  0  0  0
 25 53  1  0  0  0  0
 25 54  1  0  0  0  0
 25 55  1  0  0  0  0
 26 56  1  0  0  0  0
 26 57  1  0  0  0  0
 26 58  1  0  0  0  0
 27 28  1  0  0  0  0
 27 32  1  0  0  0  0
 28 29  1  0  0  0  0
 28 30  2  0  0  0  0
 30 31  1  0  0  0  0
 30 33  1  0  0  0  0
 31 32  2  0  0  0  0
 31 59  1  0  0  0  0
 33 34  1  0  0  0  0
 33 35  1  0  0  0  0
 33 60  1  0  0  0  0
 34 61  1  0  0  0  0
 34 62  1  0  0  0  0
 34 63  1  0  0  0  0
 35 64  1  0  0  0  0
 35 65  1  0  0  0  0
 35 66  1  0  0  0  0
M  END
$$$$
