CTL
 OpenBabel04121316103D

 25 26  0  0  1  0  0  0  0  0999 V2000
    2.7460   -0.1851   -1.4111 N   0  0  0  0  0  0  0  0  0  0  0  0
    2.3762    0.0194    0.0111 C   0  0  1  0  0  0  0  0  0  0  0  0
    1.2806    0.0372    0.0461 H   0  0  0  0  0  0  0  0  0  0  0  0
    2.9008   -1.1241    0.8816 C   0  0  0  0  0  0  0  0  0  0  0  0
    4.4208   -1.2345    0.7737 C   0  0  0  0  0  0  0  0  0  0  0  0
    5.1104    0.1043    0.9228 C   0  0  0  0  0  0  0  0  0  0  0  0
    4.4104    1.3255    0.8229 C   0  0  0  0  0  0  0  0  0  0  0  0
    2.9102    1.3591    0.5856 C   0  0  1  0  0  0  0  0  0  0  0  0
    2.4140    1.5689    1.5414 H   0  0  0  0  0  0  0  0  0  0  0  0
    2.5584    2.4105   -0.3208 O   0  0  0  0  0  0  0  0  0  0  0  0
    5.1086    2.5328    0.9894 C   0  0  0  0  0  0  0  0  0  0  0  0
    6.4882    2.5301    1.1962 C   0  0  0  0  0  0  0  0  0  0  0  0
    7.1818    1.3273    1.2478 C   0  0  0  0  0  0  0  0  0  0  0  0
    6.5005    0.1183    1.1120 C   0  0  0  0  0  0  0  0  0  0  0  0
    3.7607   -0.1060   -1.5058 H   0  0  0  0  0  0  0  0  0  0  0  0
    2.3606    0.5846   -1.9577 H   0  0  0  0  0  0  0  0  0  0  0  0
    2.4332   -2.0757    0.6048 H   0  0  0  0  0  0  0  0  0  0  0  0
    2.6276   -0.9334    1.9291 H   0  0  0  0  0  0  0  0  0  0  0  0
    4.6922   -1.6578   -0.2019 H   0  0  0  0  0  0  0  0  0  0  0  0
    4.7843   -1.9331    1.5360 H   0  0  0  0  0  0  0  0  0  0  0  0
    3.1577    2.3184   -1.0806 H   0  0  0  0  0  0  0  0  0  0  0  0
    4.5763    3.4805    0.9534 H   0  0  0  0  0  0  0  0  0  0  0  0
    7.0177    3.4722    1.3139 H   0  0  0  0  0  0  0  0  0  0  0  0
    8.2587    1.3253    1.4004 H   0  0  0  0  0  0  0  0  0  0  0  0
    7.0556   -0.8149    1.1542 H   0  0  0  0  0  0  0  0  0  0  0  0
  1 15  1  0  0  0  0
  1 16  1  0  0  0  0
  2  4  1  0  0  0  0
  2  8  1  0  0  0  0
  2  3  1  1  0  0  0
  2  1  1  0  0  0  0
  4  5  1  0  0  0  0
  4 17  1  0  0  0  0
  4 18  1  0  0  0  0
  5  6  1  0  0  0  0
  5 19  1  0  0  0  0
  5 20  1  0  0  0  0
  6  7  2  0  0  0  0
  6 14  1  0  0  0  0
  7  8  1  0  0  0  0
  7 11  1  0  0  0  0
  8 10  1  0  0  0  0
  8  9  1  1  0  0  0
 10 21  1  0  0  0  0
 11 12  2  0  0  0  0
 11 22  1  0  0  0  0
 12 13  1  0  0  0  0
 12 23  1  0  0  0  0
 13 14  2  0  0  0  0
 13 24  1  0  0  0  0
 14 25  1  0  0  0  0
M  END
$$$$
