CTN
 OpenBabel04121316103D

 30 31  0  0  1  0  0  0  0  0999 V2000
    0.9879    0.0933   -0.1042 O   0  0  0  0  0  0  0  0  0  0  0  0
    2.4025    0.1089   -0.0441 C   0  0  0  0  0  0  0  0  0  0  0  0
    3.0315    1.5051   -0.2217 C   0  0  1  0  0  0  0  0  0  0  0  0
    3.3894    1.5868   -1.2592 H   0  0  0  0  0  0  0  0  0  0  0  0
    2.1901    2.6354    0.0510 O   0  0  0  0  0  0  0  0  0  0  0  0
    3.0839    3.7578    0.2582 C   0  0  2  0  0  0  0  0  0  0  0  0
    3.4834    4.0993   -0.7098 H   0  0  0  0  0  0  0  0  0  0  0  0
    4.2219    3.1502    1.1034 C   0  0  1  0  0  0  0  0  0  0  0  0
    4.0014    3.2618    2.1698 H   0  0  0  0  0  0  0  0  0  0  0  0
    4.1566    1.6563    0.7898 C   0  0  2  0  0  0  0  0  0  0  0  0
    3.8763    1.1609    1.7261 H   0  0  0  0  0  0  0  0  0  0  0  0
    5.3617    1.0603    0.3452 O   0  0  0  0  0  0  0  0  0  0  0  0
    5.5278    3.6746    0.8789 O   0  0  0  0  0  0  0  0  0  0  0  0
    2.3280    4.8779    0.8329 N   0  0  0  0  0  0  0  0  0  0  0  0
    2.7973    5.6655    1.8735 C   0  0  0  0  0  0  0  0  0  0  0  0
    2.2118    6.8242    2.1816 C   0  0  0  0  0  0  0  0  0  0  0  0
    0.9017    7.0603    1.5517 C   0  0  0  0  0  0  0  0  0  0  0  0
    0.4649    6.3479    0.5630 N   0  0  0  0  0  0  0  0  0  0  0  0
    1.2571    5.3491    0.0498 C   0  0  0  0  0  0  0  0  0  0  0  0
    1.0334    4.9042   -1.0791 O   0  0  0  0  0  0  0  0  0  0  0  0
    0.0939    8.0498    2.0264 N   0  0  0  0  0  0  0  0  0  0  0  0
    0.7120   -0.8166    0.1017 H   0  0  0  0  0  0  0  0  0  0  0  0
    2.7929   -0.5646   -0.8166 H   0  0  0  0  0  0  0  0  0  0  0  0
    2.6934   -0.3397    0.9124 H   0  0  0  0  0  0  0  0  0  0  0  0
    6.0545    1.3826    0.9505 H   0  0  0  0  0  0  0  0  0  0  0  0
    5.4905    4.6417    0.9697 H   0  0  0  0  0  0  0  0  0  0  0  0
    3.6822    5.3618    2.4196 H   0  0  0  0  0  0  0  0  0  0  0  0
    2.5920    7.5337    2.9028 H   0  0  0  0  0  0  0  0  0  0  0  0
    0.2924    8.5507    2.8804 H   0  0  0  0  0  0  0  0  0  0  0  0
   -0.8687    8.0373    1.7064 H   0  0  0  0  0  0  0  0  0  0  0  0
  1  2  1  0  0  0  0
  1 22  1  0  0  0  0
  2  3  1  0  0  0  0
  2 23  1  0  0  0  0
  2 24  1  0  0  0  0
  3  4  1  6  0  0  0
  3  5  1  0  0  0  0
  3 10  1  0  0  0  0
  5  6  1  0  0  0  0
  6  8  1  0  0  0  0
  6 14  1  0  0  0  0
  6  7  1  6  0  0  0
  8  9  1  1  0  0  0
  8 10  1  0  0  0  0
  8 13  1  0  0  0  0
 10 11  1  1  0  0  0
 10 12  1  0  0  0  0
 12 25  1  0  0  0  0
 13 26  1  0  0  0  0
 14 15  1  0  0  0  0
 14 19  1  0  0  0  0
 15 16  2  0  0  0  0
 15 27  1  0  0  0  0
 16 17  1  0  0  0  0
 16 28  1  0  0  0  0
 17 18  2  0  0  0  0
 17 21  1  0  0  0  0
 18 19  1  0  0  0  0
 19 20  2  0  0  0  0
 21 29  1  0  0  0  0
 21 30  1  0  0  0  0
M  END
$$$$
