CTP
 OpenBabel04121316103D

 45 46  0  0  1  0  0  0  0  0999 V2000
    2.8707    0.3239   -1.3644 O   0  0  0  0  0  0  0  0  0  0  0  0
    2.3916    0.0586   -0.0335 C   0  0  2  0  0  0  0  0  0  0  0  0
    1.3383   -0.1237   -0.1825 H   0  0  0  0  0  0  0  0  0  0  0  0
    2.8378    1.1620    0.9690 C   0  0  1  0  0  0  0  0  0  0  0  0
    2.9388    2.1236    0.4481 H   0  0  0  0  0  0  0  0  0  0  0  0
    2.1351    1.3741    2.4121 C   0  0  0  0  0  0  0  0  0  0  0  0
    1.1183    2.3766    2.5644 O   0  0  0  0  0  0  0  0  0  0  0  0
   -0.4171    2.4310    3.0718 P   0  0  1  0  0  0  0  0  0  0  0  0
   -0.8172    3.8797    3.1005 O   0  0  0  0  0  0  0  0  0  0  0  0
   -1.5976    1.5572    2.2797 O   0  0  0  0  0  0  0  0  0  0  0  0
   -1.1543    1.1744    0.6518 P   0  0  1  0  0  0  0  0  0  0  0  0
    0.3067    1.2669    0.8268 O   0  0  0  0  0  0  0  0  0  0  0  0
   -1.7904   -0.4217    0.8540 O   0  0  0  0  0  0  0  0  0  0  0  0
   -2.4204   -0.5927    2.4561 P   0  0  0  0  0  0  0  0  0  0  0  0
   -1.0529   -0.4534    3.1018 O   0  0  0  0  0  0  0  0  0  0  0  0
   -3.5864    0.5060    2.2224 O   0  0  0  0  0  0  0  0  0  0  0  0
   -3.0504   -0.7638    4.0582 O   0  0  0  0  0  0  0  0  0  0  0  0
   -0.7110    0.7915   -0.9760 O   0  0  0  0  0  0  0  0  0  0  0  0
   -0.4278    1.9139    4.5928 O   0  0  0  0  0  0  0  0  0  0  0  0
    4.1822    0.6787    1.2561 O   0  0  0  0  0  0  0  0  0  0  0  0
    4.1005   -0.7489    1.4617 C   0  0  2  0  0  0  0  0  0  0  0  0
    5.0467   -1.1923    1.1282 H   0  0  0  0  0  0  0  0  0  0  0  0
    2.9366   -1.2172    0.5692 C   0  0  2  0  0  0  0  0  0  0  0  0
    2.0991   -1.6325    1.1293 H   0  0  0  0  0  0  0  0  0  0  0  0
    3.3041   -2.1976   -0.3984 O   0  0  0  0  0  0  0  0  0  0  0  0
    3.9686   -1.0586    2.8998 N   0  0  0  0  0  0  0  0  0  0  0  0
    3.2123   -2.1335    3.3291 C   0  0  0  0  0  0  0  0  0  0  0  0
    3.3688   -2.6637    4.5369 C   0  0  0  0  0  0  0  0  0  0  0  0
    4.1475   -1.8521    5.4775 C   0  0  0  0  0  0  0  0  0  0  0  0
    4.8366   -0.8236    5.1147 N   0  0  0  0  0  0  0  0  0  0  0  0
    4.9157   -0.4799    3.7756 C   0  0  0  0  0  0  0  0  0  0  0  0
    5.7739    0.2885    3.3905 O   0  0  0  0  0  0  0  0  0  0  0  0
    4.1127   -2.1956    6.7950 N   0  0  0  0  0  0  0  0  0  0  0  0
    3.8248    0.1426   -1.3816 H   0  0  0  0  0  0  0  0  0  0  0  0
    2.9467    1.8053    3.0081 H   0  0  0  0  0  0  0  0  0  0  0  0
    1.8676    0.4200    2.8673 H   0  0  0  0  0  0  0  0  0  0  0  0
   -3.6428    0.9024    1.3429 H   0  0  0  0  0  0  0  0  0  0  0  0
   -2.3916   -1.2798    4.5583 H   0  0  0  0  0  0  0  0  0  0  0  0
   -0.0462    1.4463   -1.2712 H   0  0  0  0  0  0  0  0  0  0  0  0
   -0.6007    2.6749    5.1798 H   0  0  0  0  0  0  0  0  0  0  0  0
    3.5998   -2.9916    0.0792 H   0  0  0  0  0  0  0  0  0  0  0  0
    2.4970   -2.6065    2.6725 H   0  0  0  0  0  0  0  0  0  0  0  0
    2.8891   -3.5757    4.8535 H   0  0  0  0  0  0  0  0  0  0  0  0
    3.4752   -2.8968    7.1453 H   0  0  0  0  0  0  0  0  0  0  0  0
    4.4830   -1.5246    7.4567 H   0  0  0  0  0  0  0  0  0  0  0  0
  1 34  1  0  0  0  0
  2  4  1  0  0  0  0
  2 23  1  0  0  0  0
  2  3  1  6  0  0  0
  2  1  1  0  0  0  0
  4  5  1  6  0  0  0
  4  6  1  0  0  0  0
  4 20  1  0  0  0  0
  6  7  1  0  0  0  0
  6 35  1  0  0  0  0
  6 36  1  0  0  0  0
  8  7  1  6  0  0  0
  8  9  2  0  0  0  0
  8 10  1  0  0  0  0
  8 19  1  0  0  0  0
 11 10  1  1  0  0  0
 11 12  2  0  0  0  0
 11 13  1  0  0  0  0
 11 18  1  0  0  0  0
 13 14  1  0  0  0  0
 14 15  2  0  0  0  0
 14 16  1  0  0  0  0
 14 17  1  0  0  0  0
 16 37  1  0  0  0  0
 17 38  1  0  0  0  0
 18 39  1  0  0  0  0
 19 40  1  0  0  0  0
 20 21  1  0  0  0  0
 21 23  1  0  0  0  0
 21 26  1  0  0  0  0
 21 22  1  6  0  0  0
 23 24  1  1  0  0  0
 23 25  1  0  0  0  0
 25 41  1  0  0  0  0
 26 27  1  0  0  0  0
 26 31  1  0  0  0  0
 27 28  2  0  0  0  0
 27 42  1  0  0  0  0
 28 29  1  0  0  0  0
 28 43  1  0  0  0  0
 29 30  2  0  0  0  0
 29 33  1  0  0  0  0
 30 31  1  0  0  0  0
 31 32  2  0  0  0  0
 33 44  1  0  0  0  0
 33 45  1  0  0  0  0
M  END
$$$$
