CX1
 OpenBabel04121316103D

 80 83  0  0  1  0  0  0  0  0999 V2000
   -8.1150   -1.8057    3.6285 O   0  0  0  0  0  0  0  0  0  0  0  0
   -6.9244   -1.5269    3.9582 C   0  0  0  0  0  0  0  0  0  0  0  0
   -6.1123   -1.5743    2.8193 N   0  0  0  0  0  0  0  0  0  0  0  0
   -6.3988   -0.7394    1.7863 C   0  0  2  0  0  0  0  0  0  0  0  0
   -5.8810   -1.2655    0.9928 H   0  0  0  0  0  0  0  0  0  0  0  0
   -5.8034    0.6633    1.9052 C   0  0  0  0  0  0  0  0  0  0  0  0
   -6.4355    1.6304    1.4709 O   0  0  0  0  0  0  0  0  0  0  0  0
   -4.4555    0.8321    2.2741 N   0  0  0  0  0  0  0  0  0  0  0  0
   -3.4857   -0.2518    2.7014 C   0  0  2  0  0  0  0  0  0  0  0  0
   -2.4753    0.1394    2.5925 H   0  0  0  0  0  0  0  0  0  0  0  0
   -3.4645   -1.5730    1.8352 C   0  0  0  0  0  0  0  0  0  0  0  0
   -3.4546   -2.6914    2.3589 O   0  0  0  0  0  0  0  0  0  0  0  0
   -3.5231   -1.5955    0.4854 N   0  0  0  0  0  0  0  0  0  0  0  0
   -3.4814   -0.5357   -0.5067 C   0  0  2  0  0  0  0  0  0  0  0  0
   -2.5290   -0.7676   -1.0072 H   0  0  0  0  0  0  0  0  0  0  0  0
   -3.2341    0.9009   -0.1178 C   0  0  0  0  0  0  0  0  0  0  0  0
   -3.9302    1.8452   -0.4693 O   0  0  0  0  0  0  0  0  0  0  0  0
   -2.0873    1.0760    0.5875 O   0  0  0  0  0  0  0  0  0  0  0  0
   -4.5421   -0.6008   -1.6215 C   0  0  0  0  0  0  0  0  0  0  0  0
   -6.0317   -0.5851   -1.3675 C   0  0  0  0  0  0  0  0  0  0  0  0
   -6.7282   -1.7997   -1.2088 C   0  0  0  0  0  0  0  0  0  0  0  0
   -8.1310   -1.8183   -1.1197 C   0  0  0  0  0  0  0  0  0  0  0  0
   -8.8545   -0.6080   -1.1253 C   0  0  0  0  0  0  0  0  0  0  0  0
   -8.1576    0.6214   -1.1035 C   0  0  0  0  0  0  0  0  0  0  0  0
   -6.7556    0.6247   -1.2673 C   0  0  0  0  0  0  0  0  0  0  0  0
  -10.1571   -0.6198   -0.6895 O   0  0  0  0  0  0  0  0  0  0  0  0
   -3.5090   -0.5493    4.2018 C   0  0  0  0  0  0  0  0  0  0  0  0
   -4.8112   -1.0685    4.6447 C   0  0  0  0  0  0  0  0  0  0  0  0
   -5.3550   -2.8941    4.5135 C   0  0  0  0  0  0  0  0  0  0  0  0
   -7.0653   -3.3037    5.0576 C   0  0  0  0  0  0  0  0  0  0  0  0
   -8.1704   -2.0065    5.7339 C   0  0  0  0  0  0  0  0  0  0  0  0
   -7.6007   -0.2780    5.7806 C   0  0  0  0  0  0  0  0  0  0  0  0
   -5.9754    0.1610    5.2054 C   0  0  0  0  0  0  0  0  0  0  0  0
   -4.0797    2.2666    2.3751 C   0  0  0  0  0  0  0  0  0  0  0  0
   -7.8627   -0.7922    1.5688 C   0  0  0  0  0  0  0  0  0  0  0  0
   -8.7547    0.1195    2.3036 C   0  0  0  0  0  0  0  0  0  0  0  0
  -10.1156    0.2420    2.2074 C   0  0  0  0  0  0  0  0  0  0  0  0
  -10.4546    1.0785    3.2195 N   0  0  0  0  0  0  0  0  0  0  0  0
  -11.3830    1.3687    3.4632 H   0  0  0  0  0  0  0  0  0  0  0  0
   -9.3262    1.3939    3.8963 C   0  0  0  0  0  0  0  0  0  0  0  0
   -8.2692    0.9105    3.3079 N   0  0  0  0  0  0  0  0  0  0  0  0
   -6.3266   -1.7018    5.7036 O   0  0  0  0  0  0  0  0  0  0  0  0
   -5.2750   -2.3035    6.6592 C   0  0  0  0  0  0  0  0  0  0  0  0
   -5.9381   -2.6227    7.9008 C   0  0  0  0  0  0  0  0  0  0  0  0
   -7.0085   -3.5106    8.0617 C   0  0  0  0  0  0  0  0  0  0  0  0
   -7.4037   -3.7680    9.3402 C   0  0  0  0  0  0  0  0  0  0  0  0
   -6.6055   -3.2823   10.3800 C   0  0  0  0  0  0  0  0  0  0  0  0
   -5.4531   -2.5247   10.1660 C   0  0  0  0  0  0  0  0  0  0  0  0
   -5.1787   -2.1047    8.9192 C   0  0  0  0  0  0  0  0  0  0  0  0
   -5.1785   -1.9095    2.8434 H   0  0  0  0  0  0  0  0  0  0  0  0
   -3.6814   -2.5415    0.1392 H   0  0  0  0  0  0  0  0  0  0  0  0
   -1.6591    0.2523    0.8836 H   0  0  0  0  0  0  0  0  0  0  0  0
   -4.3375   -1.4959   -2.2179 H   0  0  0  0  0  0  0  0  0  0  0  0
   -4.3530    0.2448   -2.2923 H   0  0  0  0  0  0  0  0  0  0  0  0
   -6.1745   -2.7079   -0.9616 H   0  0  0  0  0  0  0  0  0  0  0  0
   -8.6056   -2.7306   -0.7524 H   0  0  0  0  0  0  0  0  0  0  0  0
   -8.5903    1.4784   -0.5556 H   0  0  0  0  0  0  0  0  0  0  0  0
   -6.2340    1.5737   -1.1167 H   0  0  0  0  0  0  0  0  0  0  0  0
  -10.2871   -1.4170   -0.1410 H   0  0  0  0  0  0  0  0  0  0  0  0
   -3.3058    0.3997    4.7296 H   0  0  0  0  0  0  0  0  0  0  0  0
   -2.7216   -1.2408    4.5167 H   0  0  0  0  0  0  0  0  0  0  0  0
   -4.6621   -3.6099    4.1440 H   0  0  0  0  0  0  0  0  0  0  0  0
   -7.5105   -4.2278    4.6487 H   0  0  0  0  0  0  0  0  0  0  0  0
   -9.2708   -2.0983    5.6465 H   0  0  0  0  0  0  0  0  0  0  0  0
   -8.2498    0.5484    6.0517 H   0  0  0  0  0  0  0  0  0  0  0  0
   -5.7254    1.2246    5.0568 H   0  0  0  0  0  0  0  0  0  0  0  0
   -4.8990    2.9303    2.0728 H   0  0  0  0  0  0  0  0  0  0  0  0
   -3.2723    2.5499    1.7055 H   0  0  0  0  0  0  0  0  0  0  0  0
   -3.7753    2.5252    3.3847 H   0  0  0  0  0  0  0  0  0  0  0  0
   -8.2153   -1.8401    1.4910 H   0  0  0  0  0  0  0  0  0  0  0  0
   -7.8448   -0.3791    0.6403 H   0  0  0  0  0  0  0  0  0  0  0  0
  -10.8453   -0.2053    1.5594 H   0  0  0  0  0  0  0  0  0  0  0  0
   -9.3212    1.9272    4.8312 H   0  0  0  0  0  0  0  0  0  0  0  0
   -4.4915   -1.5516    6.7615 H   0  0  0  0  0  0  0  0  0  0  0  0
   -4.8287   -3.2723    6.3916 H   0  0  0  0  0  0  0  0  0  0  0  0
   -7.5302   -4.0000    7.2400 H   0  0  0  0  0  0  0  0  0  0  0  0
   -8.2925   -4.3641    9.5100 H   0  0  0  0  0  0  0  0  0  0  0  0
   -6.8799   -3.4987   11.3956 H   0  0  0  0  0  0  0  0  0  0  0  0
   -4.7468   -2.2324   10.9231 H   0  0  0  0  0  0  0  0  0  0  0  0
   -4.3265   -1.4711    8.6836 H   0  0  0  0  0  0  0  0  0  0  0  0
  1  2  2  0  0  0  0
  2  3  1  0  0  0  0
  2 42  1  0  0  0  0
  3 50  1  0  0  0  0
  4  6  1  0  0  0  0
  4 35  1  0  0  0  0
  4  5  1  6  0  0  0
  4  3  1  0  0  0  0
  6  7  2  0  0  0  0
  6  8  1  0  0  0  0
  8 34  1  0  0  0  0
  9 11  1  0  0  0  0
  9 27  1  0  0  0  0
  9 10  1  6  0  0  0
  9  8  1  0  0  0  0
 11 12  2  0  0  0  0
 11 13  1  0  0  0  0
 13 51  1  0  0  0  0
 14 16  1  0  0  0  0
 14 19  1  0  0  0  0
 14 15  1  6  0  0  0
 14 13  1  0  0  0  0
 16 17  2  0  0  0  0
 16 18  1  0  0  0  0
 18 52  1  0  0  0  0
 19 20  1  0  0  0  0
 19 53  1  0  0  0  0
 19 54  1  0  0  0  0
 20 21  2  0  0  0  0
 20 25  1  0  0  0  0
 21 22  1  0  0  0  0
 21 55  1  0  0  0  0
 22 23  2  0  0  0  0
 22 56  1  0  0  0  0
 23 24  1  0  0  0  0
 23 26  1  0  0  0  0
 24 25  2  0  0  0  0
 24 57  1  0  0  0  0
 25 58  1  0  0  0  0
 26 59  1  0  0  0  0
 27 28  1  0  0  0  0
 27 60  1  0  0  0  0
 27 61  1  0  0  0  0
 28 29  2  0  0  0  0
 28 33  1  0  0  0  0
 29 30  1  0  0  0  0
 29 62  1  0  0  0  0
 30 31  2  0  0  0  0
 30 63  1  0  0  0  0
 31 32  1  0  0  0  0
 31 64  1  0  0  0  0
 32 33  2  0  0  0  0
 32 65  1  0  0  0  0
 33 66  1  0  0  0  0
 34 67  1  0  0  0  0
 34 68  1  0  0  0  0
 34 69  1  0  0  0  0
 35 36  1  0  0  0  0
 35 70  1  0  0  0  0
 35 71  1  0  0  0  0
 36 37  2  0  0  0  0
 36 41  1  0  0  0  0
 37 38  1  0  0  0  0
 37 72  1  0  0  0  0
 38 39  1  0  0  0  0
 38 40  1  0  0  0  0
 40 41  2  0  0  0  0
 40 73  1  0  0  0  0
 42 43  1  0  0  0  0
 43 44  1  0  0  0  0
 43 74  1  0  0  0  0
 43 75  1  0  0  0  0
 44 45  2  0  0  0  0
 44 49  1  0  0  0  0
 45 46  1  0  0  0  0
 45 76  1  0  0  0  0
 46 47  2  0  0  0  0
 46 77  1  0  0  0  0
 47 48  1  0  0  0  0
 47 78  1  0  0  0  0
 48 49  2  0  0  0  0
 48 79  1  0  0  0  0
 49 80  1  0  0  0  0
M  END
$$$$
