CX9
 OpenBabel04121316103D

 46 49  0  0  0  0  0  0  0  0999 V2000
    1.0204   -0.1982    0.0849 O   0  0  0  0  0  0  0  0  0  0  0  0
    2.2256   -0.0125    0.0793 C   0  0  0  0  0  0  0  0  0  0  0  0
    2.9255    1.1936    0.0767 N   0  0  0  0  0  0  0  0  0  0  0  0
    2.2161    2.4880    0.0666 C   0  0  0  0  0  0  0  0  0  0  0  0
    0.7248    2.3350    0.0524 C   0  0  0  0  0  0  0  0  0  0  0  0
   -0.1437    3.5552    0.0370 C   0  0  0  0  0  0  0  0  0  0  0  0
   -1.5815    3.2391    0.0290 N   0  0  0  0  0  0  0  0  0  0  0  0
   -2.0494    1.9172    0.0232 C   0  0  0  0  0  0  0  0  0  0  0  0
   -1.3670    0.9043    0.0124 O   0  0  0  0  0  0  0  0  0  0  0  0
   -3.4496    1.7913    0.0283 C   0  0  0  0  0  0  0  0  0  0  0  0
   -4.2376    0.6791    0.0333 N   0  0  0  0  0  0  0  0  0  0  0  0
   -3.8265   -0.7045    0.0377 C   0  0  0  0  0  0  0  0  0  0  0  0
   -5.5304    1.1328    0.0338 C   0  0  0  0  0  0  0  0  0  0  0  0
   -5.5873    2.4535    0.0301 N   0  0  0  0  0  0  0  0  0  0  0  0
   -4.2872    2.8567    0.0270 C   0  0  0  0  0  0  0  0  0  0  0  0
   -3.7956    4.1403    0.0213 N   0  0  0  0  0  0  0  0  0  0  0  0
   -2.4203    4.3614    0.0202 C   0  0  0  0  0  0  0  0  0  0  0  0
   -1.9447    5.5016    0.0120 O   0  0  0  0  0  0  0  0  0  0  0  0
   -4.6528    5.2981    0.0178 C   0  0  0  0  0  0  0  0  0  0  0  0
    4.3222    1.2876    0.0887 C   0  0  0  0  0  0  0  0  0  0  0  0
    4.9103    2.3657    0.0943 O   0  0  0  0  0  0  0  0  0  0  0  0
    5.0113    0.0161    0.0944 C   0  0  0  0  0  0  0  0  0  0  0  0
    4.3286   -1.1657    0.0875 C   0  0  0  0  0  0  0  0  0  0  0  0
    2.9695   -1.2264    0.0769 N   0  0  0  0  0  0  0  0  0  0  0  0
    2.1784   -2.4631    0.0656 C   0  0  0  0  0  0  0  0  0  0  0  0
    5.2565   -2.1559    0.0950 N   0  0  0  0  0  0  0  0  0  0  0  0
    5.0863   -3.1510    0.0942 H   0  0  0  0  0  0  0  0  0  0  0  0
    6.4771   -1.5403    0.1058 C   0  0  0  0  0  0  0  0  0  0  0  0
    6.3634   -0.2282    0.1056 N   0  0  0  0  0  0  0  0  0  0  0  0
    2.5361    3.0519   -0.8176 H   0  0  0  0  0  0  0  0  0  0  0  0
    2.5205    3.0595    0.9511 H   0  0  0  0  0  0  0  0  0  0  0  0
    0.4618    1.7849    0.9658 H   0  0  0  0  0  0  0  0  0  0  0  0
    0.4835    1.7753   -0.8610 H   0  0  0  0  0  0  0  0  0  0  0  0
    0.0823    4.1588   -0.8496 H   0  0  0  0  0  0  0  0  0  0  0  0
    0.0682    4.1687    0.9204 H   0  0  0  0  0  0  0  0  0  0  0  0
   -2.7420   -0.8077    0.0375 H   0  0  0  0  0  0  0  0  0  0  0  0
   -4.2138   -1.1891   -0.8610 H   0  0  0  0  0  0  0  0  0  0  0  0
   -4.2120   -1.1828    0.9406 H   0  0  0  0  0  0  0  0  0  0  0  0
   -6.3799    0.4623    0.0369 H   0  0  0  0  0  0  0  0  0  0  0  0
   -5.7069    5.0181    0.0202 H   0  0  0  0  0  0  0  0  0  0  0  0
   -4.4280    5.8938   -0.8730 H   0  0  0  0  0  0  0  0  0  0  0  0
   -4.4259    5.9002    0.9038 H   0  0  0  0  0  0  0  0  0  0  0  0
    2.8211   -3.3432    0.0660 H   0  0  0  0  0  0  0  0  0  0  0  0
    1.5515   -2.4840   -0.8335 H   0  0  0  0  0  0  0  0  0  0  0  0
    1.5380   -2.4930    0.9549 H   0  0  0  0  0  0  0  0  0  0  0  0
    7.4020   -2.1008    0.1134 H   0  0  0  0  0  0  0  0  0  0  0  0
  1  2  2  0  0  0  0
  2  3  1  0  0  0  0
  2 24  1  0  0  0  0
  3  4  1  0  0  0  0
  3 20  1  0  0  0  0
  4  5  1  0  0  0  0
  4 30  1  0  0  0  0
  4 31  1  0  0  0  0
  5  6  1  0  0  0  0
  5 32  1  0  0  0  0
  5 33  1  0  0  0  0
  6  7  1  0  0  0  0
  6 34  1  0  0  0  0
  6 35  1  0  0  0  0
  7  8  1  0  0  0  0
  7 17  1  0  0  0  0
  8  9  2  0  0  0  0
  8 10  1  0  0  0  0
 10 11  1  0  0  0  0
 10 15  2  0  0  0  0
 11 12  1  0  0  0  0
 11 13  1  0  0  0  0
 12 36  1  0  0  0  0
 12 37  1  0  0  0  0
 12 38  1  0  0  0  0
 13 14  2  0  0  0  0
 13 39  1  0  0  0  0
 14 15  1  0  0  0  0
 15 16  1  0  0  0  0
 16 17  1  0  0  0  0
 16 19  1  0  0  0  0
 17 18  2  0  0  0  0
 19 40  1  0  0  0  0
 19 41  1  0  0  0  0
 19 42  1  0  0  0  0
 20 21  2  0  0  0  0
 20 22  1  0  0  0  0
 22 23  2  0  0  0  0
 22 29  1  0  0  0  0
 23 24  1  0  0  0  0
 23 26  1  0  0  0  0
 24 25  1  0  0  0  0
 25 43  1  0  0  0  0
 25 44  1  0  0  0  0
 25 45  1  0  0  0  0
 26 27  1  0  0  0  0
 26 28  1  0  0  0  0
 28 29  2  0  0  0  0
 28 46  1  0  0  0  0
M  END
$$$$
