CXB
 OpenBabel04121316103D

 28 28  0  0  0  0  0  0  0  0999 V2000
    1.0648   -0.0495    0.0579 C   0  0  0  0  0  0  0  0  0  0  0  0
    2.4518   -0.0495    0.0579 O   0  0  0  0  0  0  0  0  0  0  0  0
    3.1025   -0.9180   -0.6606 N   0  0  0  0  0  0  0  0  0  0  0  0
    4.3733   -0.9180   -0.6606 C   0  0  0  0  0  0  0  0  0  0  0  0
    5.0953   -1.8823   -1.4568 C   0  0  0  0  0  0  0  0  0  0  0  0
    4.8387   -3.2118   -1.4010 C   0  0  0  0  0  0  0  0  0  0  0  0
    5.5922   -3.7779   -2.3748 S   0  0  0  0  0  0  0  0  0  0  0  0
    6.2570   -2.8192   -2.9597 C   0  0  0  0  0  0  0  0  0  0  0  0
    5.9649   -1.6932   -2.4114 N   0  0  0  0  0  0  0  0  0  0  0  0
    7.1498   -2.9901   -4.0198 N   0  0  0  0  0  0  0  0  0  0  0  0
    5.0953    0.0463    0.1356 C   0  0  0  0  0  0  0  0  0  0  0  0
    4.4816    0.8661    0.8125 O   0  0  0  0  0  0  0  0  0  0  0  0
    6.4918    0.0463    0.1356 N   0  0  0  0  0  0  0  0  0  0  0  0
    7.2091    1.0043    0.9266 C   0  0  0  0  0  0  0  0  0  0  0  0
    8.7409    0.7848    0.7453 B   0  0  0  0  0  0  0  0  0  0  0  0
    9.2269   -0.2752   -0.1299 O   0  0  0  0  0  0  0  0  0  0  0  0
    9.6883    1.6393    1.4509 O   0  0  0  0  0  0  0  0  0  0  0  0
    0.7081    0.7278    0.7009 H   0  0  0  0  0  0  0  0  0  0  0  0
    0.7081   -0.9951    0.4095 H   0  0  0  0  0  0  0  0  0  0  0  0
    0.7081    0.1187   -0.9368 H   0  0  0  0  0  0  0  0  0  0  0  0
    4.1998   -3.6946   -0.7500 H   0  0  0  0  0  0  0  0  0  0  0  0
    7.3174   -3.8900   -4.3821 H   0  0  0  0  0  0  0  0  0  0  0  0
    7.6118   -2.2106   -4.4049 H   0  0  0  0  0  0  0  0  0  0  0  0
    6.9841   -0.6111   -0.4072 H   0  0  0  0  0  0  0  0  0  0  0  0
    6.9506    0.8808    1.9575 H   0  0  0  0  0  0  0  0  0  0  0  0
    6.9506    1.9932    0.6101 H   0  0  0  0  0  0  0  0  0  0  0  0
    8.4724   -0.7454   -0.5180 H   0  0  0  0  0  0  0  0  0  0  0  0
    9.2033    2.2871    1.9857 H   0  0  0  0  0  0  0  0  0  0  0  0
  1  2  1  0  0  0  0
  1 18  1  0  0  0  0
  1 19  1  0  0  0  0
  1 20  1  0  0  0  0
  2  3  1  0  0  0  0
  3  4  2  0  0  0  0
  4  5  1  0  0  0  0
  4 11  1  0  0  0  0
  5  6  2  0  0  0  0
  5  9  1  0  0  0  0
  6  7  1  0  0  0  0
  6 21  1  0  0  0  0
  7  8  1  0  0  0  0
  8  9  2  0  0  0  0
  8 10  1  0  0  0  0
 10 22  1  0  0  0  0
 10 23  1  0  0  0  0
 11 12  2  0  0  0  0
 11 13  1  0  0  0  0
 13 14  1  0  0  0  0
 13 24  1  0  0  0  0
 14 15  1  0  0  0  0
 14 25  1  0  0  0  0
 14 26  1  0  0  0  0
 15 16  1  0  0  0  0
 15 17  1  0  0  0  0
 16 27  1  0  0  0  0
 17 28  1  0  0  0  0
M  END
$$$$
