CXS
 OpenBabel04121316103D

 33 33  0  0  0  0  0  0  0  0999 V2000
    1.2416    0.0056   -0.0477 O   0  0  0  0  0  0  0  0  0  0  0  0
    2.8359   -0.1288    0.1465 S   0  0  0  0  0  0  0  0  0  0  0  0
    3.1660    0.5516    1.3721 O   0  0  0  0  0  0  0  0  0  0  0  0
    3.1642   -1.5210   -0.0805 O   0  0  0  0  0  0  0  0  0  0  0  0
    3.3958    0.8372   -1.2440 C   0  0  0  0  0  0  0  0  0  0  0  0
    4.9289    0.7950   -1.2372 C   0  0  0  0  0  0  0  0  0  0  0  0
    5.4512    1.6341   -2.3669 C   0  0  0  0  0  0  0  0  0  0  0  0
    6.8948    1.6754   -2.5285 N   0  0  0  0  0  0  0  0  0  0  0  0
    7.3460    2.5382   -3.6477 C   0  0  0  0  0  0  0  0  0  0  0  0
    6.3201    2.8248   -4.7742 C   0  0  0  0  0  0  0  0  0  0  0  0
    5.1734    3.7648   -4.3710 C   0  0  0  0  0  0  0  0  0  0  0  0
    5.6914    5.0208   -3.6756 C   0  0  0  0  0  0  0  0  0  0  0  0
    6.7394    4.7626   -2.5867 C   0  0  0  0  0  0  0  0  0  0  0  0
    7.8710    3.8763   -3.0993 C   0  0  0  0  0  0  0  0  0  0  0  0
    0.8195   -0.5007    0.6810 H   0  0  0  0  0  0  0  0  0  0  0  0
    3.0111    1.8597   -1.1372 H   0  0  0  0  0  0  0  0  0  0  0  0
    2.9827    0.4084   -2.1651 H   0  0  0  0  0  0  0  0  0  0  0  0
    5.2836   -0.2345   -1.3326 H   0  0  0  0  0  0  0  0  0  0  0  0
    5.3008    1.2021   -0.2906 H   0  0  0  0  0  0  0  0  0  0  0  0
    5.1066    2.6329   -2.1074 H   0  0  0  0  0  0  0  0  0  0  0  0
    4.9821    1.2678   -3.2855 H   0  0  0  0  0  0  0  0  0  0  0  0
    7.2586    0.7316   -2.6567 H   0  0  0  0  0  0  0  0  0  0  0  0
    8.2013    2.0220   -4.1060 H   0  0  0  0  0  0  0  0  0  0  0  0
    5.9262    1.8839   -5.1768 H   0  0  0  0  0  0  0  0  0  0  0  0
    6.8508    3.3029   -5.6079 H   0  0  0  0  0  0  0  0  0  0  0  0
    4.4296    3.2862   -3.7325 H   0  0  0  0  0  0  0  0  0  0  0  0
    4.5766    4.0213   -5.2514 H   0  0  0  0  0  0  0  0  0  0  0  0
    4.8470    5.5675   -3.2423 H   0  0  0  0  0  0  0  0  0  0  0  0
    6.1370    5.6613   -4.4435 H   0  0  0  0  0  0  0  0  0  0  0  0
    6.2820    4.3042   -1.7035 H   0  0  0  0  0  0  0  0  0  0  0  0
    7.1458    5.7187   -2.2393 H   0  0  0  0  0  0  0  0  0  0  0  0
    8.6118    3.7082   -2.3072 H   0  0  0  0  0  0  0  0  0  0  0  0
    8.4015    4.4112   -3.8995 H   0  0  0  0  0  0  0  0  0  0  0  0
  1  2  1  0  0  0  0
  1 15  1  0  0  0  0
  2  3  2  0  0  0  0
  2  4  2  0  0  0  0
  2  5  1  0  0  0  0
  5  6  1  0  0  0  0
  5 16  1  0  0  0  0
  5 17  1  0  0  0  0
  6  7  1  0  0  0  0
  6 18  1  0  0  0  0
  6 19  1  0  0  0  0
  7  8  1  0  0  0  0
  7 20  1  0  0  0  0
  7 21  1  0  0  0  0
  8  9  1  0  0  0  0
  8 22  1  0  0  0  0
  9 10  1  0  0  0  0
  9 14  1  0  0  0  0
  9 23  1  0  0  0  0
 10 11  1  0  0  0  0
 10 24  1  0  0  0  0
 10 25  1  0  0  0  0
 11 12  1  0  0  0  0
 11 26  1  0  0  0  0
 11 27  1  0  0  0  0
 12 13  1  0  0  0  0
 12 28  1  0  0  0  0
 12 29  1  0  0  0  0
 13 14  1  0  0  0  0
 13 30  1  0  0  0  0
 13 31  1  0  0  0  0
 14 32  1  0  0  0  0
 14 33  1  0  0  0  0
M  END
$$$$
