CXV
 OpenBabel04121316103D

 49 51  0  0  1  0  0  0  0  0999 V2000
   -0.1239   -2.1798    2.7441 O   0  0  0  0  0  0  0  0  0  0  0  0
    0.0871   -0.9789    2.5790 C   0  0  0  0  0  0  0  0  0  0  0  0
    1.3171   -0.2122    3.1155 C   0  0  1  0  0  0  0  0  0  0  0  0
    1.3955   -0.4628    4.1784 H   0  0  0  0  0  0  0  0  0  0  0  0
    2.5796   -0.7208    2.3041 C   0  0  2  0  0  0  0  0  0  0  0  0
    2.8031   -0.0661    1.4654 H   0  0  0  0  0  0  0  0  0  0  0  0
    2.5640   -2.1020    1.7620 N   0  0  0  0  0  0  0  0  0  0  0  0
    2.8560   -2.9962    2.9309 C   0  0  2  0  0  0  0  0  0  0  0  0
    1.9486   -3.0485    3.5461 H   0  0  0  0  0  0  0  0  0  0  0  0
    4.0298   -2.4011    3.7348 C   0  0  0  0  0  0  0  0  0  0  0  0
    4.0828   -0.6459    3.2924 S   0  0  0  0  0  0  0  0  0  0  0  0
    5.3956   -2.9283    3.3205 C   0  0  0  0  0  0  0  0  0  0  0  0
    3.7901   -2.4670    5.2380 C   0  0  0  0  0  0  0  0  0  0  0  0
    3.1372   -4.4585    2.5513 C   0  0  0  0  0  0  0  0  0  0  0  0
    2.9906   -5.3895    3.3333 O   0  0  0  0  0  0  0  0  0  0  0  0
    3.7051   -4.6535    1.3389 O   0  0  0  0  0  0  0  0  0  0  0  0
    1.0549    1.2723    3.0437 N   0  0  0  0  0  0  0  0  0  0  0  0
    2.0050    2.2587    3.2803 C   0  0  0  0  0  0  0  0  0  0  0  0
    3.0542    2.0589    3.8530 O   0  0  0  0  0  0  0  0  0  0  0  0
    1.7075    3.5878    2.7547 C   0  0  0  0  0  0  0  0  0  0  0  0
    1.3391    4.6736    3.5334 C   0  0  0  0  0  0  0  0  0  0  0  0
    1.0291    4.8762    4.9728 C   0  0  0  0  0  0  0  0  0  0  0  0
    1.3000    5.7839    2.7518 O   0  0  0  0  0  0  0  0  0  0  0  0
    1.6656    5.4655    1.4600 N   0  0  0  0  0  0  0  0  0  0  0  0
    1.9370    4.1452    1.4346 C   0  0  0  0  0  0  0  0  0  0  0  0
    2.4161    3.4992    0.1783 C   0  0  0  0  0  0  0  0  0  0  0  0
    2.8866    4.2391   -0.9193 C   0  0  0  0  0  0  0  0  0  0  0  0
    3.1115    3.6082   -2.1635 C   0  0  0  0  0  0  0  0  0  0  0  0
    3.1123    2.2203   -2.2730 C   0  0  0  0  0  0  0  0  0  0  0  0
    2.8790    1.4675   -1.1468 C   0  0  0  0  0  0  0  0  0  0  0  0
    2.3023    2.1209   -0.0567 C   0  0  0  0  0  0  0  0  0  0  0  0
    0.8057    1.3210    0.3230 Cl  0  0  0  0  0  0  0  0  0  0  0  0
   -0.5945   -0.4261    1.9166 H   0  0  0  0  0  0  0  0  0  0  0  0
    3.2980   -2.1285    1.0664 H   0  0  0  0  0  0  0  0  0  0  0  0
    5.5431   -2.8418    2.2357 H   0  0  0  0  0  0  0  0  0  0  0  0
    5.4994   -3.9816    3.5922 H   0  0  0  0  0  0  0  0  0  0  0  0
    6.2040   -2.3812    3.8151 H   0  0  0  0  0  0  0  0  0  0  0  0
    2.8236   -2.0257    5.5179 H   0  0  0  0  0  0  0  0  0  0  0  0
    4.5686   -1.9241    5.7859 H   0  0  0  0  0  0  0  0  0  0  0  0
    3.7911   -3.5032    5.5849 H   0  0  0  0  0  0  0  0  0  0  0  0
    3.8106   -3.8418    0.8193 H   0  0  0  0  0  0  0  0  0  0  0  0
    0.3111    1.5614    2.4179 H   0  0  0  0  0  0  0  0  0  0  0  0
    1.1253    3.9377    5.5266 H   0  0  0  0  0  0  0  0  0  0  0  0
    0.0042    5.2391    5.1129 H   0  0  0  0  0  0  0  0  0  0  0  0
    1.7026    5.6047    5.4404 H   0  0  0  0  0  0  0  0  0  0  0  0
    2.9922    5.3217   -0.8670 H   0  0  0  0  0  0  0  0  0  0  0  0
    3.2671    4.1996   -3.0627 H   0  0  0  0  0  0  0  0  0  0  0  0
    3.2055    1.7168   -3.2323 H   0  0  0  0  0  0  0  0  0  0  0  0
    2.8467    0.3826   -1.2115 H   0  0  0  0  0  0  0  0  0  0  0  0
  1  2  2  0  0  0  0
  2  3  1  0  0  0  0
  2 33  1  0  0  0  0
  3  4  1  1  0  0  0
  3 17  1  0  0  0  0
  5  7  1  0  0  0  0
  5 11  1  0  0  0  0
  5  6  1  6  0  0  0
  5  3  1  0  0  0  0
  7  8  1  0  0  0  0
  7 34  1  0  0  0  0
  8 10  1  0  0  0  0
  8 14  1  0  0  0  0
  8  9  1  1  0  0  0
 10 11  1  0  0  0  0
 10 12  1  0  0  0  0
 10 13  1  0  0  0  0
 12 35  1  0  0  0  0
 12 36  1  0  0  0  0
 12 37  1  0  0  0  0
 13 38  1  0  0  0  0
 13 39  1  0  0  0  0
 13 40  1  0  0  0  0
 14 15  2  0  0  0  0
 14 16  1  0  0  0  0
 16 41  1  0  0  0  0
 17 18  1  0  0  0  0
 17 42  1  0  0  0  0
 18 19  2  0  0  0  0
 18 20  1  0  0  0  0
 20 21  2  0  0  0  0
 20 25  1  0  0  0  0
 21 22  1  0  0  0  0
 21 23  1  0  0  0  0
 22 43  1  0  0  0  0
 22 44  1  0  0  0  0
 22 45  1  0  0  0  0
 23 24  1  0  0  0  0
 24 25  2  0  0  0  0
 25 26  1  0  0  0  0
 26 27  2  0  0  0  0
 26 31  1  0  0  0  0
 27 28  1  0  0  0  0
 27 46  1  0  0  0  0
 28 29  2  0  0  0  0
 28 47  1  0  0  0  0
 29 30  1  0  0  0  0
 29 48  1  0  0  0  0
 30 31  2  0  0  0  0
 30 49  1  0  0  0  0
 31 32  1  0  0  0  0
M  END
$$$$
