CY3
 OpenBabel04121316103D

 15 14  0  0  1  0  0  0  0  0999 V2000
    3.0340    1.0986    0.9136 N   0  0  0  0  0  0  0  0  0  0  0  0
    2.6114    0.0423   -0.0388 C   0  0  2  0  0  0  0  0  0  0  0  0
    1.5128    0.0313   -0.0579 H   0  0  0  0  0  0  0  0  0  0  0  0
    3.0622   -1.3520    0.4425 C   0  0  0  0  0  0  0  0  0  0  0  0
    3.6642   -2.1723   -0.2458 O   0  0  0  0  0  0  0  0  0  0  0  0
    2.7277   -1.6863    1.7233 N   0  0  0  0  0  0  0  0  0  0  0  0
    3.1162    0.3341   -1.4640 C   0  0  0  0  0  0  0  0  0  0  0  0
    4.9409    0.4297   -1.6504 S   0  0  0  0  0  0  0  0  0  0  0  0
    4.0525    1.0868    0.9642 H   0  0  0  0  0  0  0  0  0  0  0  0
    2.7130    0.8729    1.8516 H   0  0  0  0  0  0  0  0  0  0  0  0
    2.0894   -1.1553    2.2958 H   0  0  0  0  0  0  0  0  0  0  0  0
    2.9973   -2.6157    2.0229 H   0  0  0  0  0  0  0  0  0  0  0  0
    2.7107    1.2918   -1.8087 H   0  0  0  0  0  0  0  0  0  0  0  0
    2.7520   -0.4380   -2.1506 H   0  0  0  0  0  0  0  0  0  0  0  0
    5.1748    1.3186   -0.6779 H   0  0  0  0  0  0  0  0  0  0  0  0
  1  9  1  0  0  0  0
  1 10  1  0  0  0  0
  2  4  1  0  0  0  0
  2  7  1  0  0  0  0
  2  3  1  6  0  0  0
  2  1  1  0  0  0  0
  4  5  2  0  0  0  0
  4  6  1  0  0  0  0
  6 11  1  0  0  0  0
  6 12  1  0  0  0  0
  7  8  1  0  0  0  0
  7 13  1  0  0  0  0
  7 14  1  0  0  0  0
  8 15  1  0  0  0  0
M  END
$$$$
