CY6
 OpenBabel04121316103D

 82 83  0  0  1  0  0  0  0  0999 V2000
   14.8512    0.7421    1.1785 C   0  0  0  0  0  0  0  0  0  0  0  0
   14.0085    1.1196   -0.0604 C   0  0  0  0  0  0  0  0  0  0  0  0
   12.7385    1.7697    0.2377 O   0  0  0  0  0  0  0  0  0  0  0  0
   12.0726    2.1929   -0.8771 C   0  0  0  0  0  0  0  0  0  0  0  0
   12.4408    1.9874   -2.0255 O   0  0  0  0  0  0  0  0  0  0  0  0
   10.7654    2.8149   -0.5495 C   0  0  0  0  0  0  0  0  0  0  0  0
   10.0296    3.2053   -1.6026 C   0  0  0  0  0  0  0  0  0  0  0  0
    8.5353    3.1827   -1.6625 C   0  0  2  0  0  0  0  0  0  0  0  0
    8.1630    2.4197   -0.9649 H   0  0  0  0  0  0  0  0  0  0  0  0
    8.0521    2.8383   -3.0772 C   0  0  0  0  0  0  0  0  0  0  0  0
    6.5266    2.7134   -3.1499 C   0  0  2  0  0  0  0  0  0  0  0  0
    6.1067    2.2861   -2.2346 H   0  0  0  0  0  0  0  0  0  0  0  0
    6.1275    1.8813   -4.3715 C   0  0  0  0  0  0  0  0  0  0  0  0
    6.1054    2.8938   -5.5032 C   0  0  0  0  0  0  0  0  0  0  0  0
    5.6509    4.0811   -4.8542 N   0  0  0  0  0  0  0  0  0  0  0  0
    5.8236    4.0201   -3.4894 C   0  0  0  0  0  0  0  0  0  0  0  0
    5.4468    4.8764   -2.7113 O   0  0  0  0  0  0  0  0  0  0  0  0
    8.0131    4.4245   -1.2286 N   0  0  0  0  0  0  0  0  0  0  0  0
    8.2033    5.5824   -1.9383 C   0  0  0  0  0  0  0  0  0  0  0  0
    8.9790    5.6656   -2.8873 O   0  0  0  0  0  0  0  0  0  0  0  0
    7.4011    6.7577   -1.4273 C   0  0  1  0  0  0  0  0  0  0  0  0
    6.3241    6.6217   -1.5138 H   0  0  0  0  0  0  0  0  0  0  0  0
    7.7803    6.9691    0.0039 C   0  0  0  0  0  0  0  0  0  0  0  0
    7.2439    5.9735    1.0192 C   0  0  0  0  0  0  0  0  0  0  0  0
    6.4988    5.0379    0.7065 O   0  0  0  0  0  0  0  0  0  0  0  0
    7.7288    6.0905    2.4612 C   0  0  2  0  0  0  0  0  0  0  0  0
    6.9095    5.6531    3.0505 H   0  0  0  0  0  0  0  0  0  0  0  0
    7.9213    7.5416    2.9565 C   0  0  0  0  0  0  0  0  0  0  0  0
    9.1516    8.2966    2.4223 C   0  0  0  0  0  0  0  0  0  0  0  0
    6.6353    8.3504    2.7287 C   0  0  0  0  0  0  0  0  0  0  0  0
    8.8463    5.2001    2.7058 N   0  0  0  0  0  0  0  0  0  0  0  0
   10.0304    5.3852    2.0753 C   0  0  0  0  0  0  0  0  0  0  0  0
   10.1893    6.0943    1.0733 O   0  0  0  0  0  0  0  0  0  0  0  0
   11.1839    4.7304    2.5673 C   0  0  0  0  0  0  0  0  0  0  0  0
   11.4272    4.3696    3.8354 N   0  0  0  0  0  0  0  0  0  0  0  0
   12.7546    3.9295    3.8108 O   0  0  0  0  0  0  0  0  0  0  0  0
   13.2264    4.0787    2.5526 C   0  0  0  0  0  0  0  0  0  0  0  0
   12.2652    4.5240    1.7192 C   0  0  0  0  0  0  0  0  0  0  0  0
   14.5113    3.5572    2.1867 C   0  0  0  0  0  0  0  0  0  0  0  0
    7.8599    7.9665   -2.2351 C   0  0  0  0  0  0  0  0  0  0  0  0
    7.2460    9.2607   -1.8046 C   0  0  0  0  0  0  0  0  0  0  0  0
    7.5568   10.4259   -2.3875 C   0  0  0  0  0  0  0  0  0  0  0  0
    8.5124   10.5128   -3.5434 C   0  0  0  0  0  0  0  0  0  0  0  0
    6.9253   11.6943   -1.9081 C   0  0  0  0  0  0  0  0  0  0  0  0
   15.6065   -0.0070    0.9440 H   0  0  0  0  0  0  0  0  0  0  0  0
   14.2245    0.4366    2.0224 H   0  0  0  0  0  0  0  0  0  0  0  0
   15.4944    1.5545    1.5333 H   0  0  0  0  0  0  0  0  0  0  0  0
   13.7763    0.1964   -0.5899 H   0  0  0  0  0  0  0  0  0  0  0  0
   14.6016    1.7924   -0.6931 H   0  0  0  0  0  0  0  0  0  0  0  0
   10.3607    2.7507    0.4505 H   0  0  0  0  0  0  0  0  0  0  0  0
   10.5112    3.3737   -2.5655 H   0  0  0  0  0  0  0  0  0  0  0  0
    8.5314    1.9003   -3.3794 H   0  0  0  0  0  0  0  0  0  0  0  0
    8.3985    3.5926   -3.7950 H   0  0  0  0  0  0  0  0  0  0  0  0
    5.1179    1.4862   -4.2055 H   0  0  0  0  0  0  0  0  0  0  0  0
    6.7942    1.0375   -4.5647 H   0  0  0  0  0  0  0  0  0  0  0  0
    5.4193    2.6143   -6.3042 H   0  0  0  0  0  0  0  0  0  0  0  0
    7.1026    3.0860   -5.9110 H   0  0  0  0  0  0  0  0  0  0  0  0
    5.2292    4.8902   -5.2944 H   0  0  0  0  0  0  0  0  0  0  0  0
    7.1912    4.3785   -0.6215 H   0  0  0  0  0  0  0  0  0  0  0  0
    7.4535    7.9502    0.3073 H   0  0  0  0  0  0  0  0  0  0  0  0
    8.8577    7.0056   -0.0176 H   0  0  0  0  0  0  0  0  0  0  0  0
    8.0724    7.4774    4.0413 H   0  0  0  0  0  0  0  0  0  0  0  0
    9.1817    8.4033    1.3401 H   0  0  0  0  0  0  0  0  0  0  0  0
   10.0791    7.8074    2.7293 H   0  0  0  0  0  0  0  0  0  0  0  0
    9.2001    9.3174    2.7987 H   0  0  0  0  0  0  0  0  0  0  0  0
    6.2988    8.3858    1.6916 H   0  0  0  0  0  0  0  0  0  0  0  0
    6.7776    9.3863    3.0387 H   0  0  0  0  0  0  0  0  0  0  0  0
    5.8016    7.9105    3.2819 H   0  0  0  0  0  0  0  0  0  0  0  0
    8.8000    4.4881    3.4295 H   0  0  0  0  0  0  0  0  0  0  0  0
   12.3145    4.6673    0.6467 H   0  0  0  0  0  0  0  0  0  0  0  0
   15.0489    3.0703    2.9940 H   0  0  0  0  0  0  0  0  0  0  0  0
   15.1302    4.1860    1.5465 H   0  0  0  0  0  0  0  0  0  0  0  0
   14.1650    2.8124    1.5029 H   0  0  0  0  0  0  0  0  0  0  0  0
    7.6294    7.7887   -3.2906 H   0  0  0  0  0  0  0  0  0  0  0  0
    8.9552    8.0607   -2.1393 H   0  0  0  0  0  0  0  0  0  0  0  0
    6.5358    9.2564   -0.9815 H   0  0  0  0  0  0  0  0  0  0  0  0
    8.9459    9.5456   -3.8199 H   0  0  0  0  0  0  0  0  0  0  0  0
    9.3508   11.1690   -3.3004 H   0  0  0  0  0  0  0  0  0  0  0  0
    7.9891   10.8813   -4.4287 H   0  0  0  0  0  0  0  0  0  0  0  0
    6.2661   11.5201   -1.0486 H   0  0  0  0  0  0  0  0  0  0  0  0
    6.3202   12.1320   -2.7057 H   0  0  0  0  0  0  0  0  0  0  0  0
    7.6918   12.4077   -1.5944 H   0  0  0  0  0  0  0  0  0  0  0  0
  1  2  1  0  0  0  0
  1 45  1  0  0  0  0
  1 46  1  0  0  0  0
  1 47  1  0  0  0  0
  2  3  1  0  0  0  0
  2 48  1  0  0  0  0
  2 49  1  0  0  0  0
  3  4  1  0  0  0  0
  4  5  2  0  0  0  0
  4  6  1  0  0  0  0
  6  7  2  0  0  0  0
  6 50  1  0  0  0  0
  7 51  1  0  0  0  0
  8 10  1  0  0  0  0
  8 18  1  0  0  0  0
  8  9  1  1  0  0  0
  8  7  1  0  0  0  0
 10 52  1  0  0  0  0
 10 53  1  0  0  0  0
 11 13  1  0  0  0  0
 11 16  1  0  0  0  0
 11 12  1  1  0  0  0
 11 10  1  0  0  0  0
 13 14  1  0  0  0  0
 13 54  1  0  0  0  0
 13 55  1  0  0  0  0
 14 15  1  0  0  0  0
 14 56  1  0  0  0  0
 14 57  1  0  0  0  0
 15 16  1  0  0  0  0
 15 58  1  0  0  0  0
 16 17  2  0  0  0  0
 18 19  1  0  0  0  0
 18 59  1  0  0  0  0
 19 20  2  0  0  0  0
 19 21  1  0  0  0  0
 21 22  1  6  0  0  0
 21 23  1  0  0  0  0
 21 40  1  0  0  0  0
 23 24  1  0  0  0  0
 23 60  1  0  0  0  0
 23 61  1  0  0  0  0
 24 25  2  0  0  0  0
 26 28  1  0  0  0  0
 26 31  1  0  0  0  0
 26 27  1  1  0  0  0
 26 24  1  0  0  0  0
 28 29  1  0  0  0  0
 28 30  1  0  0  0  0
 28 62  1  0  0  0  0
 29 63  1  0  0  0  0
 29 64  1  0  0  0  0
 29 65  1  0  0  0  0
 30 66  1  0  0  0  0
 30 67  1  0  0  0  0
 30 68  1  0  0  0  0
 31 32  1  0  0  0  0
 31 69  1  0  0  0  0
 32 33  2  0  0  0  0
 32 34  1  0  0  0  0
 34 35  2  0  0  0  0
 34 38  1  0  0  0  0
 35 36  1  0  0  0  0
 36 37  1  0  0  0  0
 37 38  2  0  0  0  0
 37 39  1  0  0  0  0
 38 70  1  0  0  0  0
 39 71  1  0  0  0  0
 39 72  1  0  0  0  0
 39 73  1  0  0  0  0
 40 41  1  0  0  0  0
 40 74  1  0  0  0  0
 40 75  1  0  0  0  0
 41 42  2  0  0  0  0
 41 76  1  0  0  0  0
 42 43  1  0  0  0  0
 42 44  1  0  0  0  0
 43 77  1  0  0  0  0
 43 78  1  0  0  0  0
 43 79  1  0  0  0  0
 44 80  1  0  0  0  0
 44 81  1  0  0  0  0
 44 82  1  0  0  0  0
M  END
$$$$
