CYC
 OpenBabel04121316103D

 83 86  0  0  1  0  0  0  0  0999 V2000
    1.0041    0.0693    0.1789 C   0  0  0  0  0  0  0  0  0  0  0  0
    2.5257   -0.0039    0.1240 C   0  0  0  0  0  0  0  0  0  0  0  0
    3.0080   -0.8929   -1.0347 C   0  0  1  0  0  0  0  0  0  0  0  0
    2.6956   -0.4226   -1.9766 H   0  0  0  0  0  0  0  0  0  0  0  0
    4.4952   -1.1515   -1.1545 C   0  0  0  0  0  0  0  0  0  0  0  0
    5.4853   -0.3635   -0.7141 C   0  0  0  0  0  0  0  0  0  0  0  0
    6.8225   -0.7950   -0.5400 C   0  0  0  0  0  0  0  0  0  0  0  0
    7.7457   -0.7578   -1.5373 N   0  0  0  0  0  0  0  0  0  0  0  0
    7.6103   -0.4748   -2.4898 H   0  0  0  0  0  0  0  0  0  0  0  0
    8.9902   -1.0938   -1.0680 C   0  0  0  0  0  0  0  0  0  0  0  0
    8.8565   -1.3749    0.2735 C   0  0  0  0  0  0  0  0  0  0  0  0
    7.4725   -1.2006    0.6101 C   0  0  0  0  0  0  0  0  0  0  0  0
    6.7468   -1.3630    1.8960 C   0  0  0  0  0  0  0  0  0  0  0  0
   10.0245   -1.7583    1.1148 C   0  0  0  0  0  0  0  0  0  0  0  0
    9.6290   -2.0180    2.5374 C   0  0  0  0  0  0  0  0  0  0  0  0
   10.7605   -2.4182    3.4109 C   0  0  0  0  0  0  0  0  0  0  0  0
   11.9136   -2.5325    3.0539 O   0  0  0  0  0  0  0  0  0  0  0  0
   10.3381   -2.6404    4.6815 O   0  0  0  0  0  0  0  0  0  0  0  0
   10.1397   -1.0746   -1.9062 C   0  0  0  0  0  0  0  0  0  0  0  0
   10.1011   -0.7119   -3.1905 C   0  0  0  0  0  0  0  0  0  0  0  0
    8.9431   -0.3595   -3.8300 N   0  0  0  0  0  0  0  0  0  0  0  0
    9.3033    0.0166   -5.0131 C   0  0  0  0  0  0  0  0  0  0  0  0
   10.7484   -0.0842   -5.2808 C   0  0  0  0  0  0  0  0  0  0  0  0
   11.2144   -0.5523   -4.1072 C   0  0  0  0  0  0  0  0  0  0  0  0
   12.6372   -0.8469   -3.6824 C   0  0  0  0  0  0  0  0  0  0  0  0
   13.6851   -0.5661   -4.7565 C   0  0  0  0  0  0  0  0  0  0  0  0
   15.0913   -0.8545   -4.3397 C   0  0  0  0  0  0  0  0  0  0  0  0
   15.4250   -1.2758   -3.2421 O   0  0  0  0  0  0  0  0  0  0  0  0
   15.9792   -0.5919   -5.3283 O   0  0  0  0  0  0  0  0  0  0  0  0
   11.4630    0.2768   -6.5222 C   0  0  0  0  0  0  0  0  0  0  0  0
    8.3621    0.5239   -6.0134 C   0  0  0  0  0  0  0  0  0  0  0  0
    7.0376    0.5453   -5.8287 C   0  0  0  0  0  0  0  0  0  0  0  0
    6.3270    0.1170   -4.7551 N   0  0  0  0  0  0  0  0  0  0  0  0
    5.0098   -0.0765   -5.0636 C   0  0  0  0  0  0  0  0  0  0  0  0
    4.1661   -0.6769   -4.4143 O   0  0  0  0  0  0  0  0  0  0  0  0
    4.8173    0.5840   -6.3792 C   0  0  0  0  0  0  0  0  0  0  0  0
    6.0478    0.9556   -6.7898 C   0  0  0  0  0  0  0  0  0  0  0  0
    6.4906    1.7530   -7.9674 C   0  0  0  0  0  0  0  0  0  0  0  0
    3.4536    0.7959   -6.9326 C   0  0  0  0  0  0  0  0  0  0  0  0
    3.4655    1.6084   -8.2116 C   0  0  0  0  0  0  0  0  0  0  0  0
    4.6502   -2.4086   -1.6654 N   0  0  0  0  0  0  0  0  0  0  0  0
    3.5376   -3.2002   -1.4938 C   0  0  0  0  0  0  0  0  0  0  0  0
    3.4806   -4.4081   -1.6567 O   0  0  0  0  0  0  0  0  0  0  0  0
    2.4282   -2.3240   -0.9515 C   0  0  2  0  0  0  0  0  0  0  0  0
    2.2479   -2.6126    0.0939 H   0  0  0  0  0  0  0  0  0  0  0  0
    1.1728   -2.4924   -1.7943 C   0  0  0  0  0  0  0  0  0  0  0  0
    0.6633    0.7430    0.9667 H   0  0  0  0  0  0  0  0  0  0  0  0
    0.5708   -0.9112    0.3994 H   0  0  0  0  0  0  0  0  0  0  0  0
    0.6038    0.4226   -0.7782 H   0  0  0  0  0  0  0  0  0  0  0  0
    2.9032   -0.3766    1.0839 H   0  0  0  0  0  0  0  0  0  0  0  0
    2.9145    1.0134   -0.0033 H   0  0  0  0  0  0  0  0  0  0  0  0
    5.2176    0.5473   -0.1839 H   0  0  0  0  0  0  0  0  0  0  0  0
    7.3369   -1.6733    2.7458 H   0  0  0  0  0  0  0  0  0  0  0  0
    5.9822   -2.1345    1.7796 H   0  0  0  0  0  0  0  0  0  0  0  0
    6.2976   -0.4109    2.1883 H   0  0  0  0  0  0  0  0  0  0  0  0
   10.7715   -0.9542    1.0703 H   0  0  0  0  0  0  0  0  0  0  0  0
   10.4883   -2.6524    0.6791 H   0  0  0  0  0  0  0  0  0  0  0  0
    8.9106   -2.8464    2.5477 H   0  0  0  0  0  0  0  0  0  0  0  0
    9.2159   -1.0918    2.9555 H   0  0  0  0  0  0  0  0  0  0  0  0
    9.3771   -2.5095    4.8107 H   0  0  0  0  0  0  0  0  0  0  0  0
   11.0914   -1.3270   -1.4489 H   0  0  0  0  0  0  0  0  0  0  0  0
   12.7149   -1.8988   -3.3768 H   0  0  0  0  0  0  0  0  0  0  0  0
   12.8798   -0.2459   -2.7953 H   0  0  0  0  0  0  0  0  0  0  0  0
   13.6573    0.4960   -5.0182 H   0  0  0  0  0  0  0  0  0  0  0  0
   13.4887   -1.1995   -5.6264 H   0  0  0  0  0  0  0  0  0  0  0  0
   15.5875   -0.2591   -6.1599 H   0  0  0  0  0  0  0  0  0  0  0  0
   10.8176    0.6282   -7.3229 H   0  0  0  0  0  0  0  0  0  0  0  0
   11.9971   -0.5925   -6.9167 H   0  0  0  0  0  0  0  0  0  0  0  0
   12.1737    1.0846   -6.3240 H   0  0  0  0  0  0  0  0  0  0  0  0
    8.7738    0.8229   -6.9643 H   0  0  0  0  0  0  0  0  0  0  0  0
    6.7310   -0.1935   -3.8958 H   0  0  0  0  0  0  0  0  0  0  0  0
    5.7099    2.1024   -8.6268 H   0  0  0  0  0  0  0  0  0  0  0  0
    7.1527    1.1601   -8.6012 H   0  0  0  0  0  0  0  0  0  0  0  0
    6.9910    2.6643   -7.6258 H   0  0  0  0  0  0  0  0  0  0  0  0
    2.8420    1.3222   -6.1911 H   0  0  0  0  0  0  0  0  0  0  0  0
    2.9833   -0.1730   -7.1304 H   0  0  0  0  0  0  0  0  0  0  0  0
    3.8909    2.6006   -8.0117 H   0  0  0  0  0  0  0  0  0  0  0  0
    2.4759    1.7713   -8.6322 H   0  0  0  0  0  0  0  0  0  0  0  0
    4.0508    1.0797   -8.9746 H   0  0  0  0  0  0  0  0  0  0  0  0
    5.5181   -2.7885   -2.0159 H   0  0  0  0  0  0  0  0  0  0  0  0
    0.7632   -3.4993   -1.6798 H   0  0  0  0  0  0  0  0  0  0  0  0
    1.3954   -2.3297   -2.8534 H   0  0  0  0  0  0  0  0  0  0  0  0
    0.3837   -1.7890   -1.5226 H   0  0  0  0  0  0  0  0  0  0  0  0
  1  2  1  0  0  0  0
  1 47  1  0  0  0  0
  1 48  1  0  0  0  0
  1 49  1  0  0  0  0
  2  3  1  0  0  0  0
  2 50  1  0  0  0  0
  2 51  1  0  0  0  0
  3  4  1  6  0  0  0
  3  5  1  0  0  0  0
  3 44  1  0  0  0  0
  5  6  2  0  0  0  0
  5 41  1  0  0  0  0
  6  7  1  0  0  0  0
  6 52  1  0  0  0  0
  7  8  1  0  0  0  0
  7 12  2  0  0  0  0
  8  9  1  0  0  0  0
  8 10  1  0  0  0  0
 10 11  2  0  0  0  0
 10 19  1  0  0  0  0
 11 12  1  0  0  0  0
 11 14  1  0  0  0  0
 12 13  1  0  0  0  0
 13 53  1  0  0  0  0
 13 54  1  0  0  0  0
 13 55  1  0  0  0  0
 14 15  1  0  0  0  0
 14 56  1  0  0  0  0
 14 57  1  0  0  0  0
 15 16  1  0  0  0  0
 15 58  1  0  0  0  0
 15 59  1  0  0  0  0
 16 17  2  0  0  0  0
 16 18  1  0  0  0  0
 18 60  1  0  0  0  0
 19 20  2  0  0  0  0
 19 61  1  0  0  0  0
 20 21  1  0  0  0  0
 20 24  1  0  0  0  0
 21 22  2  0  0  0  0
 22 23  1  0  0  0  0
 22 31  1  0  0  0  0
 23 24  2  0  0  0  0
 23 30  1  0  0  0  0
 24 25  1  0  0  0  0
 25 26  1  0  0  0  0
 25 62  1  0  0  0  0
 25 63  1  0  0  0  0
 26 27  1  0  0  0  0
 26 64  1  0  0  0  0
 26 65  1  0  0  0  0
 27 28  2  0  0  0  0
 27 29  1  0  0  0  0
 29 66  1  0  0  0  0
 30 67  1  0  0  0  0
 30 68  1  0  0  0  0
 30 69  1  0  0  0  0
 31 32  2  0  0  0  0
 31 70  1  0  0  0  0
 32 33  1  0  0  0  0
 32 37  1  0  0  0  0
 33 34  1  0  0  0  0
 33 71  1  0  0  0  0
 34 35  2  0  0  0  0
 34 36  1  0  0  0  0
 36 37  2  0  0  0  0
 36 39  1  0  0  0  0
 37 38  1  0  0  0  0
 38 72  1  0  0  0  0
 38 73  1  0  0  0  0
 38 74  1  0  0  0  0
 39 40  1  0  0  0  0
 39 75  1  0  0  0  0
 39 76  1  0  0  0  0
 40 77  1  0  0  0  0
 40 78  1  0  0  0  0
 40 79  1  0  0  0  0
 41 42  1  0  0  0  0
 41 80  1  0  0  0  0
 42 43  2  0  0  0  0
 42 44  1  0  0  0  0
 44 45  1  1  0  0  0
 44 46  1  0  0  0  0
 46 81  1  0  0  0  0
 46 82  1  0  0  0  0
 46 83  1  0  0  0  0
M  END
$$$$
