CZ8
 OpenBabel04121316103D

 55 56  0  0  1  0  0  0  0  0999 V2000
    1.0429    0.0835    0.0346 C   0  0  0  0  0  0  0  0  0  0  0  0
    2.5629    0.0835    0.0346 C   0  0  0  0  0  0  0  0  0  0  0  0
    3.0411   -1.2678    0.0906 N   0  0  0  0  0  0  0  0  0  0  0  0
    2.9531   -2.4257    1.0875 C   0  0  0  0  0  0  0  0  0  0  0  0
    2.8231   -3.6580    0.3753 C   0  0  0  0  0  0  0  0  0  0  0  0
    3.9254   -3.9536   -0.4843 N   0  0  0  0  0  0  0  0  0  0  0  0
    4.0527   -2.8575   -1.5449 C   0  0  0  0  0  0  0  0  0  0  0  0
    4.0199   -3.0349   -2.7591 O   0  0  0  0  0  0  0  0  0  0  0  0
    4.2276   -1.5036   -0.8497 C   0  0  0  0  0  0  0  0  0  0  0  0
    5.1672   -0.7319   -1.0188 O   0  0  0  0  0  0  0  0  0  0  0  0
    4.7576   -5.0696   -0.3740 C   0  0  0  0  0  0  0  0  0  0  0  0
    4.5668   -5.8918    0.5175 O   0  0  0  0  0  0  0  0  0  0  0  0
    5.8068   -5.2504   -1.2777 N   0  0  0  0  0  0  0  0  0  0  0  0
    6.6616   -6.3968   -1.1644 C   0  0  1  0  0  0  0  0  0  0  0  0
    7.1421   -6.3902   -0.2084 H   0  0  0  0  0  0  0  0  0  0  0  0
    5.8533   -7.6313   -1.3025 C   0  0  0  0  0  0  0  0  0  0  0  0
    6.0941   -8.4244   -2.2080 O   0  0  0  0  0  0  0  0  0  0  0  0
    4.8178   -7.8923   -0.4026 N   0  0  0  0  0  0  0  0  0  0  0  0
    4.0355   -9.0872   -0.5363 C   0  0  0  0  0  0  0  0  0  0  0  0
    2.9571   -9.1304    0.5873 B   0  0  0  0  0  0  0  0  0  0  0  0
    2.8739   -8.0473    1.5599 O   0  0  0  0  0  0  0  0  0  0  0  0
    2.0311  -10.2538    0.6663 O   0  0  0  0  0  0  0  0  0  0  0  0
    7.7137   -6.3547   -2.2606 C   0  0  0  0  0  0  0  0  0  0  0  0
    8.6194   -7.5694   -2.1405 C   0  0  0  0  0  0  0  0  0  0  0  0
    9.6452   -7.5284   -3.2093 C   0  0  0  0  0  0  0  0  0  0  0  0
   10.1709   -6.2857   -3.6606 C   0  0  0  0  0  0  0  0  0  0  0  0
   10.9045   -6.2419   -4.8574 C   0  0  0  0  0  0  0  0  0  0  0  0
   11.3320   -7.3442   -5.3994 C   0  0  0  0  0  0  0  0  0  0  0  0
   11.0707   -8.5762   -4.7852 C   0  0  0  0  0  0  0  0  0  0  0  0
   10.0914   -8.6560   -3.7654 C   0  0  0  0  0  0  0  0  0  0  0  0
   12.0277   -7.3014   -6.5544 O   0  0  0  0  0  0  0  0  0  0  0  0
    0.6862    1.0914   -0.0072 H   0  0  0  0  0  0  0  0  0  0  0  0
    0.6862   -0.3843    0.9283 H   0  0  0  0  0  0  0  0  0  0  0  0
    0.6862   -0.4567   -0.8175 H   0  0  0  0  0  0  0  0  0  0  0  0
    2.9196    0.6236    0.8866 H   0  0  0  0  0  0  0  0  0  0  0  0
    2.9196    0.5513   -0.8592 H   0  0  0  0  0  0  0  0  0  0  0  0
    2.1013   -2.2878    1.7202 H   0  0  0  0  0  0  0  0  0  0  0  0
    3.8405   -2.4506    1.6848 H   0  0  0  0  0  0  0  0  0  0  0  0
    1.9357   -3.6098   -0.2206 H   0  0  0  0  0  0  0  0  0  0  0  0
    2.7864   -4.4361    1.1089 H   0  0  0  0  0  0  0  0  0  0  0  0
    5.9597   -4.5911   -1.9926 H   0  0  0  0  0  0  0  0  0  0  0  0
    4.6248   -7.2562    0.3236 H   0  0  0  0  0  0  0  0  0  0  0  0
    4.6731   -9.9423   -0.4518 H   0  0  0  0  0  0  0  0  0  0  0  0
    3.5549   -9.0938   -1.4923 H   0  0  0  0  0  0  0  0  0  0  0  0
    3.5563   -7.3857    1.3662 H   0  0  0  0  0  0  0  0  0  0  0  0
    2.2213  -10.8805   -0.0492 H   0  0  0  0  0  0  0  0  0  0  0  0
    8.2972   -5.4634   -2.1608 H   0  0  0  0  0  0  0  0  0  0  0  0
    7.2331   -6.3612   -3.2166 H   0  0  0  0  0  0  0  0  0  0  0  0
    8.0359   -8.4607   -2.2402 H   0  0  0  0  0  0  0  0  0  0  0  0
    9.1000   -7.5628   -1.1845 H   0  0  0  0  0  0  0  0  0  0  0  0
   10.0145   -5.4246   -3.1137 H   0  0  0  0  0  0  0  0  0  0  0  0
   11.1045   -5.3347   -5.3069 H   0  0  0  0  0  0  0  0  0  0  0  0
   11.5890   -9.4205   -5.0743 H   0  0  0  0  0  0  0  0  0  0  0  0
    9.7287   -9.5717   -3.4573 H   0  0  0  0  0  0  0  0  0  0  0  0
   12.2027   -6.4778   -6.9656 H   0  0  0  0  0  0  0  0  0  0  0  0
  1  2  1  0  0  0  0
  1 32  1  0  0  0  0
  1 33  1  0  0  0  0
  1 34  1  0  0  0  0
  2  3  1  0  0  0  0
  2 35  1  0  0  0  0
  2 36  1  0  0  0  0
  3  4  1  0  0  0  0
  3  9  1  0  0  0  0
  4  5  1  0  0  0  0
  4 37  1  0  0  0  0
  4 38  1  0  0  0  0
  5  6  1  0  0  0  0
  5 39  1  0  0  0  0
  5 40  1  0  0  0  0
  6  7  1  0  0  0  0
  6 11  1  0  0  0  0
  7  8  2  0  0  0  0
  7  9  1  0  0  0  0
  9 10  2  0  0  0  0
 11 12  2  0  0  0  0
 11 13  1  0  0  0  0
 13 14  1  0  0  0  0
 13 41  1  0  0  0  0
 14 15  1  1  0  0  0
 14 16  1  0  0  0  0
 14 23  1  0  0  0  0
 16 17  2  0  0  0  0
 16 18  1  0  0  0  0
 18 19  1  0  0  0  0
 18 42  1  0  0  0  0
 19 20  1  0  0  0  0
 19 43  1  0  0  0  0
 19 44  1  0  0  0  0
 20 21  1  0  0  0  0
 20 22  1  0  0  0  0
 21 45  1  0  0  0  0
 22 46  1  0  0  0  0
 23 24  1  0  0  0  0
 23 47  1  0  0  0  0
 23 48  1  0  0  0  0
 24 25  1  0  0  0  0
 24 49  1  0  0  0  0
 24 50  1  0  0  0  0
 25 26  2  0  0  0  0
 25 30  1  0  0  0  0
 26 27  1  0  0  0  0
 26 51  1  0  0  0  0
 27 28  2  0  0  0  0
 27 52  1  0  0  0  0
 28 29  1  0  0  0  0
 28 31  1  0  0  0  0
 29 30  2  0  0  0  0
 29 53  1  0  0  0  0
 30 54  1  0  0  0  0
 31 55  1  0  0  0  0
M  END
$$$$
