CZ9
 OpenBabel04121316103D

 52 53  0  0  1  0  0  0  0  0999 V2000
    0.9578    0.0874   -0.0241 C   0  0  0  0  0  0  0  0  0  0  0  0
    2.4778    0.0874   -0.0241 C   0  0  0  0  0  0  0  0  0  0  0  0
    2.9560    0.4935   -1.3142 N   0  0  0  0  0  0  0  0  0  0  0  0
    2.9342   -0.3817   -2.5696 C   0  0  0  0  0  0  0  0  0  0  0  0
    2.1373    0.2482   -3.5749 C   0  0  0  0  0  0  0  0  0  0  0  0
    2.6230    1.5270   -3.9875 N   0  0  0  0  0  0  0  0  0  0  0  0
    2.6321    2.4793   -2.7895 C   0  0  0  0  0  0  0  0  0  0  0  0
    2.0396    3.5528   -2.7292 O   0  0  0  0  0  0  0  0  0  0  0  0
    3.4985    1.8796   -1.6775 C   0  0  0  0  0  0  0  0  0  0  0  0
    4.4708    2.4223   -1.1607 O   0  0  0  0  0  0  0  0  0  0  0  0
    3.0267    1.8567   -5.2831 C   0  0  0  0  0  0  0  0  0  0  0  0
    2.9789    1.0137   -6.1742 O   0  0  0  0  0  0  0  0  0  0  0  0
    3.4848    3.1455   -5.5650 N   0  0  0  0  0  0  0  0  0  0  0  0
    3.8995    3.4842   -6.8958 C   0  0  1  0  0  0  0  0  0  0  0  0
    4.7113    2.8516   -7.1883 H   0  0  0  0  0  0  0  0  0  0  0  0
    2.7646    3.2953   -7.8300 C   0  0  0  0  0  0  0  0  0  0  0  0
    2.3407    4.2459   -8.4809 O   0  0  0  0  0  0  0  0  0  0  0  0
    2.1775    2.0360   -7.9698 N   0  0  0  0  0  0  0  0  0  0  0  0
    1.0791    1.8531   -8.8741 C   0  0  0  0  0  0  0  0  0  0  0  0
    0.6177    0.3655   -8.8367 B   0  0  0  0  0  0  0  0  0  0  0  0
    1.2952   -0.5862   -7.9643 O   0  0  0  0  0  0  0  0  0  0  0  0
   -0.4915   -0.0751   -9.6742 O   0  0  0  0  0  0  0  0  0  0  0  0
    4.3495    4.9356   -6.9322 C   0  0  0  0  0  0  0  0  0  0  0  0
    4.7780    5.2856   -8.3071 C   0  0  0  0  0  0  0  0  0  0  0  0
    4.8941    6.6482   -8.6994 C   0  0  0  0  0  0  0  0  0  0  0  0
    4.9216    6.9719  -10.0658 C   0  0  0  0  0  0  0  0  0  0  0  0
    5.1154    6.0395  -10.9516 C   0  0  0  0  0  0  0  0  0  0  0  0
    5.3076    4.7126  -10.5442 C   0  0  0  0  0  0  0  0  0  0  0  0
    4.9831    4.3336   -9.2189 C   0  0  0  0  0  0  0  0  0  0  0  0
    5.1314    6.3502  -12.2642 O   0  0  0  0  0  0  0  0  0  0  0  0
    0.6012   -0.2155    0.9381 H   0  0  0  0  0  0  0  0  0  0  0  0
    0.6012   -0.5945   -0.7676 H   0  0  0  0  0  0  0  0  0  0  0  0
    0.6012    1.0722   -0.2429 H   0  0  0  0  0  0  0  0  0  0  0  0
    2.8345   -0.8974    0.1947 H   0  0  0  0  0  0  0  0  0  0  0  0
    2.8345    0.7693    0.7193 H   0  0  0  0  0  0  0  0  0  0  0  0
    2.5173   -1.3377   -2.3308 H   0  0  0  0  0  0  0  0  0  0  0  0
    3.9325   -0.5090   -2.9332 H   0  0  0  0  0  0  0  0  0  0  0  0
    1.1470    0.3732   -3.1894 H   0  0  0  0  0  0  0  0  0  0  0  0
    2.1684   -0.3863   -4.4359 H   0  0  0  0  0  0  0  0  0  0  0  0
    3.5231    3.8216   -4.8503 H   0  0  0  0  0  0  0  0  0  0  0  0
    2.5175    1.2737   -7.4478 H   0  0  0  0  0  0  0  0  0  0  0  0
    1.3884    2.1058   -9.8668 H   0  0  0  0  0  0  0  0  0  0  0  0
    0.2672    2.4858   -8.5816 H   0  0  0  0  0  0  0  0  0  0  0  0
    2.0035   -0.1335   -7.4802 H   0  0  0  0  0  0  0  0  0  0  0  0
   -0.8265    0.6760  -10.1885 H   0  0  0  0  0  0  0  0  0  0  0  0
    5.1689    5.0720   -6.2577 H   0  0  0  0  0  0  0  0  0  0  0  0
    3.5377    5.5683   -6.6397 H   0  0  0  0  0  0  0  0  0  0  0  0
    4.9575    7.3918   -7.9866 H   0  0  0  0  0  0  0  0  0  0  0  0
    4.7880    7.9499  -10.3671 H   0  0  0  0  0  0  0  0  0  0  0  0
    5.6835    4.0158  -11.2061 H   0  0  0  0  0  0  0  0  0  0  0  0
    4.9065    3.3368   -8.9626 H   0  0  0  0  0  0  0  0  0  0  0  0
    5.0029    7.2373  -12.5373 H   0  0  0  0  0  0  0  0  0  0  0  0
  1  2  1  0  0  0  0
  1 31  1  0  0  0  0
  1 32  1  0  0  0  0
  1 33  1  0  0  0  0
  2  3  1  0  0  0  0
  2 34  1  0  0  0  0
  2 35  1  0  0  0  0
  3  4  1  0  0  0  0
  3  9  1  0  0  0  0
  4  5  1  0  0  0  0
  4 36  1  0  0  0  0
  4 37  1  0  0  0  0
  5  6  1  0  0  0  0
  5 38  1  0  0  0  0
  5 39  1  0  0  0  0
  6  7  1  0  0  0  0
  6 11  1  0  0  0  0
  7  8  2  0  0  0  0
  7  9  1  0  0  0  0
  9 10  2  0  0  0  0
 11 12  2  0  0  0  0
 11 13  1  0  0  0  0
 13 14  1  0  0  0  0
 13 40  1  0  0  0  0
 14 15  1  6  0  0  0
 14 16  1  0  0  0  0
 14 23  1  0  0  0  0
 16 17  2  0  0  0  0
 16 18  1  0  0  0  0
 18 19  1  0  0  0  0
 18 41  1  0  0  0  0
 19 20  1  0  0  0  0
 19 42  1  0  0  0  0
 19 43  1  0  0  0  0
 20 21  1  0  0  0  0
 20 22  1  0  0  0  0
 21 44  1  0  0  0  0
 22 45  1  0  0  0  0
 23 24  1  0  0  0  0
 23 46  1  0  0  0  0
 23 47  1  0  0  0  0
 24 25  2  0  0  0  0
 24 29  1  0  0  0  0
 25 26  1  0  0  0  0
 25 48  1  0  0  0  0
 26 27  2  0  0  0  0
 26 49  1  0  0  0  0
 27 28  1  0  0  0  0
 27 30  1  0  0  0  0
 28 29  2  0  0  0  0
 28 50  1  0  0  0  0
 29 51  1  0  0  0  0
 30 52  1  0  0  0  0
M  END
$$$$
