CZB
 OpenBabel04121316103D

 56 60  0  0  1  0  0  0  0  0999 V2000
    5.0525   -0.6743    0.3873 O   0  0  0  0  0  0  0  0  0  0  0  0
    4.3968   -0.3013    1.6113 O   0  0  0  0  0  0  0  0  0  0  0  0
    2.9761   -0.4017    1.4989 C   0  0  2  0  0  0  0  0  0  0  0  0
    2.3264   -0.0965    0.0890 C   0  0  0  0  0  0  0  0  0  0  0  0
    0.8282   -0.3840   -0.1484 C   0  0  0  0  0  0  0  0  0  0  0  0
   -0.0019   -0.9464    0.8268 C   0  0  0  0  0  0  0  0  0  0  0  0
   -1.2281   -1.5314    0.5475 C   0  0  0  0  0  0  0  0  0  0  0  0
   -1.7775   -1.3485   -0.6994 C   0  0  0  0  0  0  0  0  0  0  0  0
   -1.0921   -0.5898   -1.6459 C   0  0  0  0  0  0  0  0  0  0  0  0
    0.2315   -0.1693   -1.3993 C   0  0  0  0  0  0  0  0  0  0  0  0
   -3.4525   -2.1289   -1.0730 Br  0  0  0  0  0  0  0  0  0  0  0  0
    2.4256    0.5434    2.4923 N   0  0  0  0  0  0  0  0  0  0  0  0
    1.9277   -0.1238    3.4719 C   0  0  0  0  0  0  0  0  0  0  0  0
    1.9915   -1.4576    3.2970 N   0  0  0  0  0  0  0  0  0  0  0  0
    2.5091   -1.7499    2.0585 C   0  0  0  0  0  0  0  0  0  0  0  0
    2.4716   -2.8395    1.4770 O   0  0  0  0  0  0  0  0  0  0  0  0
    1.4902   -2.3390    4.1912 C   0  0  0  0  0  0  0  0  0  0  0  0
    1.1863   -1.9287    5.4358 C   0  0  0  0  0  0  0  0  0  0  0  0
    1.1743   -0.5669    5.7668 N   0  0  0  0  0  0  0  0  0  0  0  0
    1.1027    0.4574    4.6795 C   0  0  1  0  0  0  0  0  0  0  0  0
    0.0438    0.4698    4.3723 H   0  0  0  0  0  0  0  0  0  0  0  0
    1.4042    1.9514    5.0687 C   0  0  0  0  0  0  0  0  0  0  0  0
    1.4899    2.9429    3.8927 C   0  0  0  0  0  0  0  0  0  0  0  0
    1.0099    2.6013    2.6253 C   0  0  0  0  0  0  0  0  0  0  0  0
    1.6187    3.1235    1.4825 C   0  0  0  0  0  0  0  0  0  0  0  0
    2.4259    4.2348    1.5723 C   0  0  0  0  0  0  0  0  0  0  0  0
    2.5573    4.8444    2.8125 C   0  0  0  0  0  0  0  0  0  0  0  0
    2.1593    4.1677    3.9811 C   0  0  0  0  0  0  0  0  0  0  0  0
    0.9578   -3.0195    6.4067 C   0  0  0  0  0  0  0  0  0  0  0  0
    1.6261   -4.2554    6.2149 C   0  0  0  0  0  0  0  0  0  0  0  0
    1.2887   -5.3935    6.9338 C   0  0  0  0  0  0  0  0  0  0  0  0
    0.3930   -5.2659    7.9777 C   0  0  0  0  0  0  0  0  0  0  0  0
   -0.1684   -4.0290    8.2897 C   0  0  0  0  0  0  0  0  0  0  0  0
    0.0626   -2.9179    7.4684 C   0  0  0  0  0  0  0  0  0  0  0  0
    0.0360   -6.3483    8.7232 O   0  0  0  0  0  0  0  0  0  0  0  0
    5.9492   -0.4460    0.7048 H   0  0  0  0  0  0  0  0  0  0  0  0
    2.5201    0.9492   -0.1759 H   0  0  0  0  0  0  0  0  0  0  0  0
    2.8705   -0.6628   -0.6798 H   0  0  0  0  0  0  0  0  0  0  0  0
    0.2604   -0.9912    1.8616 H   0  0  0  0  0  0  0  0  0  0  0  0
   -1.7180   -2.1112    1.3254 H   0  0  0  0  0  0  0  0  0  0  0  0
   -1.5726   -0.3475   -2.5889 H   0  0  0  0  0  0  0  0  0  0  0  0
    0.7825    0.3145   -2.2035 H   0  0  0  0  0  0  0  0  0  0  0  0
    1.4748   -3.3682    3.8480 H   0  0  0  0  0  0  0  0  0  0  0  0
    1.1403   -0.2999    6.7450 H   0  0  0  0  0  0  0  0  0  0  0  0
    0.6300    2.3347    5.7499 H   0  0  0  0  0  0  0  0  0  0  0  0
    2.3459    1.9788    5.6345 H   0  0  0  0  0  0  0  0  0  0  0  0
    0.3716    1.7346    2.4789 H   0  0  0  0  0  0  0  0  0  0  0  0
    1.5146    2.6017    0.5383 H   0  0  0  0  0  0  0  0  0  0  0  0
    2.9078    4.6215    0.6797 H   0  0  0  0  0  0  0  0  0  0  0  0
    3.0168    5.8254    2.8642 H   0  0  0  0  0  0  0  0  0  0  0  0
    2.4133    4.5984    4.9447 H   0  0  0  0  0  0  0  0  0  0  0  0
    2.4036   -4.3621    5.4589 H   0  0  0  0  0  0  0  0  0  0  0  0
    1.7377   -6.3431    6.6613 H   0  0  0  0  0  0  0  0  0  0  0  0
   -0.8098   -3.9380    9.1603 H   0  0  0  0  0  0  0  0  0  0  0  0
   -0.4832   -1.9967    7.6487 H   0  0  0  0  0  0  0  0  0  0  0  0
    0.4192   -7.1422    8.3128 H   0  0  0  0  0  0  0  0  0  0  0  0
  1  2  1  0  0  0  0
  1 36  1  0  0  0  0
  3 12  1  0  0  0  0
  3 15  1  0  0  0  0
  3  4  1  6  0  0  0
  3  2  1  0  0  0  0
  4  5  1  0  0  0  0
  4 37  1  0  0  0  0
  4 38  1  0  0  0  0
  5  6  2  0  0  0  0
  5 10  1  0  0  0  0
  6  7  1  0  0  0  0
  6 39  1  0  0  0  0
  7  8  2  0  0  0  0
  7 40  1  0  0  0  0
  8  9  1  0  0  0  0
  8 11  1  0  0  0  0
  9 10  2  0  0  0  0
  9 41  1  0  0  0  0
 10 42  1  0  0  0  0
 12 13  2  0  0  0  0
 13 14  1  0  0  0  0
 13 20  1  0  0  0  0
 14 15  1  0  0  0  0
 14 17  1  0  0  0  0
 15 16  2  0  0  0  0
 17 18  2  0  0  0  0
 17 43  1  0  0  0  0
 18 19  1  0  0  0  0
 18 29  1  0  0  0  0
 19 20  1  0  0  0  0
 19 44  1  0  0  0  0
 20 22  1  0  0  0  0
 20 21  1  6  0  0  0
 22 23  1  0  0  0  0
 22 45  1  0  0  0  0
 22 46  1  0  0  0  0
 23 24  2  0  0  0  0
 23 28  1  0  0  0  0
 24 25  1  0  0  0  0
 24 47  1  0  0  0  0
 25 26  2  0  0  0  0
 25 48  1  0  0  0  0
 26 27  1  0  0  0  0
 26 49  1  0  0  0  0
 27 28  2  0  0  0  0
 27 50  1  0  0  0  0
 28 51  1  0  0  0  0
 29 30  2  0  0  0  0
 29 34  1  0  0  0  0
 30 31  1  0  0  0  0
 30 52  1  0  0  0  0
 31 32  2  0  0  0  0
 31 53  1  0  0  0  0
 32 33  1  0  0  0  0
 32 35  1  0  0  0  0
 33 34  2  0  0  0  0
 33 54  1  0  0  0  0
 34 55  1  0  0  0  0
 35 56  1  0  0  0  0
M  END
$$$$
