CZI
 OpenBabel04121316103D

 56 60  0  0  1  0  0  0  0  0999 V2000
    2.0489    1.2223   -2.7173 O   0  0  0  0  0  0  0  0  0  0  0  0
    2.0626   -0.2144   -2.4769 O   0  0  0  0  0  0  0  0  0  0  0  0
    2.8486   -0.4563   -1.2940 C   0  0  2  0  0  0  0  0  0  0  0  0
    2.2532    0.1110    0.0268 C   0  0  0  0  0  0  0  0  0  0  0  0
    0.7367    0.1395    0.2172 C   0  0  0  0  0  0  0  0  0  0  0  0
   -0.1583   -0.2402   -0.7896 C   0  0  0  0  0  0  0  0  0  0  0  0
   -1.4937    0.1458   -0.7586 C   0  0  0  0  0  0  0  0  0  0  0  0
   -2.0075    0.7259    0.3889 C   0  0  0  0  0  0  0  0  0  0  0  0
   -1.1904    0.8994    1.5036 C   0  0  0  0  0  0  0  0  0  0  0  0
    0.1888    0.6661    1.3984 C   0  0  0  0  0  0  0  0  0  0  0  0
   -3.9838    1.3506    0.4055 I   0  0  0  0  0  0  0  0  0  0  0  0
    4.2918   -0.0696   -1.4884 N   0  0  0  0  0  0  0  0  0  0  0  0
    4.8754   -1.1829   -1.8283 C   0  0  0  0  0  0  0  0  0  0  0  0
    4.1173   -2.2994   -1.7371 N   0  0  0  0  0  0  0  0  0  0  0  0
    2.9141   -1.9773   -1.1974 C   0  0  0  0  0  0  0  0  0  0  0  0
    2.0718   -2.7492   -0.7440 O   0  0  0  0  0  0  0  0  0  0  0  0
    4.5058   -3.5385   -2.1452 C   0  0  0  0  0  0  0  0  0  0  0  0
    5.6729   -3.6977   -2.7920 C   0  0  0  0  0  0  0  0  0  0  0  0
    6.4958   -2.6073   -3.0219 N   0  0  0  0  0  0  0  0  0  0  0  0
    6.3641   -1.3484   -2.2299 C   0  0  2  0  0  0  0  0  0  0  0  0
    6.6553   -0.4950   -2.8542 H   0  0  0  0  0  0  0  0  0  0  0  0
    7.3045   -1.4347   -0.9905 C   0  0  0  0  0  0  0  0  0  0  0  0
    7.3264   -0.1874   -0.1295 C   0  0  0  0  0  0  0  0  0  0  0  0
    6.2354    0.1167    0.6951 C   0  0  0  0  0  0  0  0  0  0  0  0
    6.1145    1.3738    1.2837 C   0  0  0  0  0  0  0  0  0  0  0  0
    7.1696    2.2745    1.2101 C   0  0  0  0  0  0  0  0  0  0  0  0
    8.3411    1.9113    0.5493 C   0  0  0  0  0  0  0  0  0  0  0  0
    8.3990    0.7121   -0.1681 C   0  0  0  0  0  0  0  0  0  0  0  0
    5.9853   -5.0589   -3.2761 C   0  0  0  0  0  0  0  0  0  0  0  0
    6.3478   -5.3399   -4.5986 C   0  0  0  0  0  0  0  0  0  0  0  0
    6.3609   -6.6675   -5.0582 C   0  0  0  0  0  0  0  0  0  0  0  0
    6.1258   -7.7136   -4.1690 C   0  0  0  0  0  0  0  0  0  0  0  0
    5.9068   -7.4604   -2.8261 C   0  0  0  0  0  0  0  0  0  0  0  0
    5.7954   -6.1416   -2.3937 C   0  0  0  0  0  0  0  0  0  0  0  0
    6.0864   -9.0138   -4.5750 O   0  0  0  0  0  0  0  0  0  0  0  0
    1.2580    1.2252   -3.2879 H   0  0  0  0  0  0  0  0  0  0  0  0
    2.6932   -0.4180    0.8860 H   0  0  0  0  0  0  0  0  0  0  0  0
    2.5875    1.1543    0.1179 H   0  0  0  0  0  0  0  0  0  0  0  0
    0.1530   -0.8134   -1.6535 H   0  0  0  0  0  0  0  0  0  0  0  0
   -2.1000   -0.0121   -1.6460 H   0  0  0  0  0  0  0  0  0  0  0  0
   -1.6059    1.2527    2.4430 H   0  0  0  0  0  0  0  0  0  0  0  0
    0.8293    0.9243    2.2399 H   0  0  0  0  0  0  0  0  0  0  0  0
    3.7897   -4.3393   -1.9835 H   0  0  0  0  0  0  0  0  0  0  0  0
    7.2273   -2.6819   -3.7204 H   0  0  0  0  0  0  0  0  0  0  0  0
    8.3291   -1.6379   -1.3352 H   0  0  0  0  0  0  0  0  0  0  0  0
    7.0383   -2.2920   -0.3585 H   0  0  0  0  0  0  0  0  0  0  0  0
    5.4297   -0.5995    0.8295 H   0  0  0  0  0  0  0  0  0  0  0  0
    5.1916    1.6499    1.7861 H   0  0  0  0  0  0  0  0  0  0  0  0
    7.0798    3.2530    1.6734 H   0  0  0  0  0  0  0  0  0  0  0  0
    9.1995    2.5772    0.5720 H   0  0  0  0  0  0  0  0  0  0  0  0
    9.2861    0.4969   -0.7587 H   0  0  0  0  0  0  0  0  0  0  0  0
    6.5694   -4.5374   -5.2967 H   0  0  0  0  0  0  0  0  0  0  0  0
    6.5403   -6.8658   -6.1105 H   0  0  0  0  0  0  0  0  0  0  0  0
    5.7865   -8.2773   -2.1211 H   0  0  0  0  0  0  0  0  0  0  0  0
    5.5162   -5.9649   -1.3564 H   0  0  0  0  0  0  0  0  0  0  0  0
    6.1285   -9.0429   -5.5444 H   0  0  0  0  0  0  0  0  0  0  0  0
  1  2  1  0  0  0  0
  1 36  1  0  0  0  0
  3 12  1  0  0  0  0
  3 15  1  0  0  0  0
  3  4  1  1  0  0  0
  3  2  1  0  0  0  0
  4  5  1  0  0  0  0
  4 37  1  0  0  0  0
  4 38  1  0  0  0  0
  5  6  2  0  0  0  0
  5 10  1  0  0  0  0
  6  7  1  0  0  0  0
  6 39  1  0  0  0  0
  7  8  2  0  0  0  0
  7 40  1  0  0  0  0
  8  9  1  0  0  0  0
  8 11  1  0  0  0  0
  9 10  2  0  0  0  0
  9 41  1  0  0  0  0
 10 42  1  0  0  0  0
 12 13  2  0  0  0  0
 13 14  1  0  0  0  0
 13 20  1  0  0  0  0
 14 15  1  0  0  0  0
 14 17  1  0  0  0  0
 15 16  2  0  0  0  0
 17 18  2  0  0  0  0
 17 43  1  0  0  0  0
 18 19  1  0  0  0  0
 18 29  1  0  0  0  0
 19 20  1  0  0  0  0
 19 44  1  0  0  0  0
 20 21  1  6  0  0  0
 20 22  1  0  0  0  0
 22 23  1  0  0  0  0
 22 45  1  0  0  0  0
 22 46  1  0  0  0  0
 23 24  2  0  0  0  0
 23 28  1  0  0  0  0
 24 25  1  0  0  0  0
 24 47  1  0  0  0  0
 25 26  2  0  0  0  0
 25 48  1  0  0  0  0
 26 27  1  0  0  0  0
 26 49  1  0  0  0  0
 27 28  2  0  0  0  0
 27 50  1  0  0  0  0
 28 51  1  0  0  0  0
 29 30  2  0  0  0  0
 29 34  1  0  0  0  0
 30 31  1  0  0  0  0
 30 52  1  0  0  0  0
 31 32  2  0  0  0  0
 31 53  1  0  0  0  0
 32 33  1  0  0  0  0
 32 35  1  0  0  0  0
 33 34  2  0  0  0  0
 33 54  1  0  0  0  0
 34 55  1  0  0  0  0
 35 56  1  0  0  0  0
M  END
$$$$
