CZN
 OpenBabel04121316103D

 62 67  0  0  1  0  0  0  0  0999 V2000
    1.6430   -1.7507   -2.7062 O   0  0  0  0  0  0  0  0  0  0  0  0
    2.2321   -0.4335   -2.4903 O   0  0  0  0  0  0  0  0  0  0  0  0
    3.0177   -0.4542   -1.2950 C   0  0  2  0  0  0  0  0  0  0  0  0
    2.3513   -0.0547    0.0510 C   0  0  0  0  0  0  0  0  0  0  0  0
    0.8725    0.2540    0.0876 C   0  0  0  0  0  0  0  0  0  0  0  0
    0.0571    0.1797   -1.0440 C   0  0  0  0  0  0  0  0  0  0  0  0
   -1.2988    0.3818   -1.0385 C   0  0  0  0  0  0  0  0  0  0  0  0
   -1.9056    0.6534    0.1513 C   0  0  0  0  0  0  0  0  0  0  0  0
   -1.1402    0.7922    1.3352 C   0  0  0  0  0  0  0  0  0  0  0  0
    0.2553    0.6054    1.2932 C   0  0  0  0  0  0  0  0  0  0  0  0
   -1.8265    1.0561    2.5180 C   0  0  0  0  0  0  0  0  0  0  0  0
   -3.2224    0.9864    2.5309 C   0  0  0  0  0  0  0  0  0  0  0  0
   -3.9429    0.7480    1.3589 C   0  0  0  0  0  0  0  0  0  0  0  0
   -3.2862    0.6979    0.1470 C   0  0  0  0  0  0  0  0  0  0  0  0
    4.1579    0.4362   -1.5574 N   0  0  0  0  0  0  0  0  0  0  0  0
    5.0627   -0.3218   -2.0791 C   0  0  0  0  0  0  0  0  0  0  0  0
    4.7873   -1.6306   -1.9913 N   0  0  0  0  0  0  0  0  0  0  0  0
    3.6867   -1.8071   -1.2267 C   0  0  0  0  0  0  0  0  0  0  0  0
    3.2880   -2.8507   -0.6955 O   0  0  0  0  0  0  0  0  0  0  0  0
    5.4585   -2.5950   -2.6441 C   0  0  0  0  0  0  0  0  0  0  0  0
    6.4897   -2.2914   -3.4450 C   0  0  0  0  0  0  0  0  0  0  0  0
    6.8494   -0.9418   -3.6291 N   0  0  0  0  0  0  0  0  0  0  0  0
    6.4362    0.0995   -2.6274 C   0  0  1  0  0  0  0  0  0  0  0  0
    7.1386   -0.0006   -1.7904 H   0  0  0  0  0  0  0  0  0  0  0  0
    6.5392    1.5893   -3.0833 C   0  0  0  0  0  0  0  0  0  0  0  0
    5.9769    2.6685   -2.1382 C   0  0  0  0  0  0  0  0  0  0  0  0
    5.5597    2.3907   -0.8280 C   0  0  0  0  0  0  0  0  0  0  0  0
    4.6199    3.1945   -0.1805 C   0  0  0  0  0  0  0  0  0  0  0  0
    4.3792    4.4669   -0.6528 C   0  0  0  0  0  0  0  0  0  0  0  0
    5.0551    4.8945   -1.7917 C   0  0  0  0  0  0  0  0  0  0  0  0
    5.7772    3.9804   -2.5783 C   0  0  0  0  0  0  0  0  0  0  0  0
    7.1258   -3.4444   -4.1388 C   0  0  0  0  0  0  0  0  0  0  0  0
    8.0233   -3.3019   -5.1967 C   0  0  0  0  0  0  0  0  0  0  0  0
    8.4520   -4.4280   -5.9184 C   0  0  0  0  0  0  0  0  0  0  0  0
    8.0615   -5.7068   -5.5268 C   0  0  0  0  0  0  0  0  0  0  0  0
    7.2942   -5.8907   -4.4002 C   0  0  0  0  0  0  0  0  0  0  0  0
    6.8209   -4.7715   -3.7325 C   0  0  0  0  0  0  0  0  0  0  0  0
    8.4086   -6.8214   -6.2240 O   0  0  0  0  0  0  0  0  0  0  0  0
    1.9213   -1.8339   -3.6334 H   0  0  0  0  0  0  0  0  0  0  0  0
    2.5490   -0.8398    0.7988 H   0  0  0  0  0  0  0  0  0  0  0  0
    2.8664    0.8222    0.4725 H   0  0  0  0  0  0  0  0  0  0  0  0
    0.3820   -0.0742   -2.0283 H   0  0  0  0  0  0  0  0  0  0  0  0
   -1.8383    0.2417   -1.9698 H   0  0  0  0  0  0  0  0  0  0  0  0
    0.8400    0.6727    2.2101 H   0  0  0  0  0  0  0  0  0  0  0  0
   -1.2841    1.2564    3.4370 H   0  0  0  0  0  0  0  0  0  0  0  0
   -3.7559    1.1019    3.4669 H   0  0  0  0  0  0  0  0  0  0  0  0
   -5.0143    0.5873    1.3800 H   0  0  0  0  0  0  0  0  0  0  0  0
   -3.8397    0.6215   -0.7857 H   0  0  0  0  0  0  0  0  0  0  0  0
    5.0024   -3.5660   -2.5102 H   0  0  0  0  0  0  0  0  0  0  0  0
    7.4904   -0.6977   -4.3734 H   0  0  0  0  0  0  0  0  0  0  0  0
    7.5977    1.8365   -3.2394 H   0  0  0  0  0  0  0  0  0  0  0  0
    6.0555    1.6953   -4.0664 H   0  0  0  0  0  0  0  0  0  0  0  0
    5.7876    1.4429   -0.3496 H   0  0  0  0  0  0  0  0  0  0  0  0
    4.0629    2.8032    0.6678 H   0  0  0  0  0  0  0  0  0  0  0  0
    3.6917    5.1164   -0.1196 H   0  0  0  0  0  0  0  0  0  0  0  0
    4.9820    5.9358   -2.0874 H   0  0  0  0  0  0  0  0  0  0  0  0
    6.1655    4.3075   -3.5385 H   0  0  0  0  0  0  0  0  0  0  0  0
    8.3930   -2.3247   -5.4882 H   0  0  0  0  0  0  0  0  0  0  0  0
    9.0883   -4.2865   -6.7849 H   0  0  0  0  0  0  0  0  0  0  0  0
    7.0358   -6.8832   -4.0432 H   0  0  0  0  0  0  0  0  0  0  0  0
    6.1889   -4.9962   -2.8778 H   0  0  0  0  0  0  0  0  0  0  0  0
    8.8221   -6.5454   -7.0561 H   0  0  0  0  0  0  0  0  0  0  0  0
  1  2  1  0  0  0  0
  1 39  1  0  0  0  0
  3 15  1  0  0  0  0
  3 18  1  0  0  0  0
  3  4  1  1  0  0  0
  3  2  1  0  0  0  0
  4  5  1  0  0  0  0
  4 40  1  0  0  0  0
  4 41  1  0  0  0  0
  5  6  2  0  0  0  0
  5 10  1  0  0  0  0
  6  7  1  0  0  0  0
  6 42  1  0  0  0  0
  7  8  2  0  0  0  0
  7 43  1  0  0  0  0
  8  9  1  0  0  0  0
  8 14  1  0  0  0  0
  9 10  2  0  0  0  0
  9 11  1  0  0  0  0
 10 44  1  0  0  0  0
 11 12  2  0  0  0  0
 11 45  1  0  0  0  0
 12 13  1  0  0  0  0
 12 46  1  0  0  0  0
 13 14  2  0  0  0  0
 13 47  1  0  0  0  0
 14 48  1  0  0  0  0
 15 16  2  0  0  0  0
 16 17  1  0  0  0  0
 16 23  1  0  0  0  0
 17 18  1  0  0  0  0
 17 20  1  0  0  0  0
 18 19  2  0  0  0  0
 20 21  2  0  0  0  0
 20 49  1  0  0  0  0
 21 22  1  0  0  0  0
 21 32  1  0  0  0  0
 22 23  1  0  0  0  0
 22 50  1  0  0  0  0
 23 25  1  0  0  0  0
 23 24  1  1  0  0  0
 25 26  1  0  0  0  0
 25 51  1  0  0  0  0
 25 52  1  0  0  0  0
 26 27  2  0  0  0  0
 26 31  1  0  0  0  0
 27 28  1  0  0  0  0
 27 53  1  0  0  0  0
 28 29  2  0  0  0  0
 28 54  1  0  0  0  0
 29 30  1  0  0  0  0
 29 55  1  0  0  0  0
 30 31  2  0  0  0  0
 30 56  1  0  0  0  0
 31 57  1  0  0  0  0
 32 33  2  0  0  0  0
 32 37  1  0  0  0  0
 33 34  1  0  0  0  0
 33 58  1  0  0  0  0
 34 35  2  0  0  0  0
 34 59  1  0  0  0  0
 35 36  1  0  0  0  0
 35 38  1  0  0  0  0
 36 37  2  0  0  0  0
 36 60  1  0  0  0  0
 37 61  1  0  0  0  0
 38 62  1  0  0  0  0
M  END
$$$$
