D09
 OpenBabel04121316103D

 38 40  0  0  0  0  0  0  0  0999 V2000
    0.8363    0.3500    0.1809 C   0  0  0  0  0  0  0  0  0  0  0  0
    2.2616    0.4252    0.1278 O   0  0  0  0  0  0  0  0  0  0  0  0
    2.9083   -0.2261    1.1457 C   0  0  0  0  0  0  0  0  0  0  0  0
    3.7040    0.6276    1.9184 C   0  0  0  0  0  0  0  0  0  0  0  0
    4.5196    0.1311    2.9281 C   0  0  0  0  0  0  0  0  0  0  0  0
    4.4708   -1.2159    3.2384 C   0  0  0  0  0  0  0  0  0  0  0  0
    3.6433   -2.0659    2.4971 C   0  0  0  0  0  0  0  0  0  0  0  0
    2.9213   -1.6173    1.3581 C   0  0  0  0  0  0  0  0  0  0  0  0
    2.2961   -2.6015    0.4091 C   0  0  0  0  0  0  0  0  0  0  0  0
    2.1994   -3.9067    0.6925 C   0  0  0  0  0  0  0  0  0  0  0  0
    1.5908   -4.9482   -0.0836 C   0  0  0  0  0  0  0  0  0  0  0  0
    0.9101   -4.8455   -1.2813 C   0  0  0  0  0  0  0  0  0  0  0  0
    0.5085   -6.0482   -1.7295 O   0  0  0  0  0  0  0  0  0  0  0  0
    0.9018   -6.9465   -0.8026 C   0  0  0  0  0  0  0  0  0  0  0  0
    1.5571   -6.3233    0.2501 C   0  0  0  0  0  0  0  0  0  0  0  0
    1.9883   -7.1619    1.2819 C   0  0  0  0  0  0  0  0  0  0  0  0
    2.6521   -6.7370    2.4124 N   0  0  0  0  0  0  0  0  0  0  0  0
    1.7438   -8.4811    1.1634 N   0  0  0  0  0  0  0  0  0  0  0  0
    1.1055   -8.9467    0.0735 C   0  0  0  0  0  0  0  0  0  0  0  0
    0.6511   -8.2367   -0.9504 N   0  0  0  0  0  0  0  0  0  0  0  0
    0.8879  -10.2830   -0.0134 N   0  0  0  0  0  0  0  0  0  0  0  0
    1.7906   -2.1595   -0.9348 C   0  0  0  0  0  0  0  0  0  0  0  0
    0.4716    0.5860   -0.8269 H   0  0  0  0  0  0  0  0  0  0  0  0
    0.4483    1.0772    0.8893 H   0  0  0  0  0  0  0  0  0  0  0  0
    0.4415   -0.6343    0.4476 H   0  0  0  0  0  0  0  0  0  0  0  0
    3.6942    1.6917    1.7029 H   0  0  0  0  0  0  0  0  0  0  0  0
    5.1794    0.7979    3.4734 H   0  0  0  0  0  0  0  0  0  0  0  0
    5.0870   -1.6178    4.0401 H   0  0  0  0  0  0  0  0  0  0  0  0
    3.6232   -3.0951    2.8416 H   0  0  0  0  0  0  0  0  0  0  0  0
    2.6403   -4.2478    1.6139 H   0  0  0  0  0  0  0  0  0  0  0  0
    0.6339   -4.0491   -1.9536 H   0  0  0  0  0  0  0  0  0  0  0  0
    2.7939   -5.7720    2.6382 H   0  0  0  0  0  0  0  0  0  0  0  0
    2.8791   -7.4332    3.1056 H   0  0  0  0  0  0  0  0  0  0  0  0
    1.1985  -10.8652    0.7411 H   0  0  0  0  0  0  0  0  0  0  0  0
    0.4014  -10.6065   -0.8329 H   0  0  0  0  0  0  0  0  0  0  0  0
    2.0334   -1.1689   -1.2836 H   0  0  0  0  0  0  0  0  0  0  0  0
    0.6950   -2.2538   -0.9305 H   0  0  0  0  0  0  0  0  0  0  0  0
    2.2443   -2.7720   -1.7169 H   0  0  0  0  0  0  0  0  0  0  0  0
  1  2  1  0  0  0  0
  1 23  1  0  0  0  0
  1 24  1  0  0  0  0
  1 25  1  0  0  0  0
  2  3  1  0  0  0  0
  3  4  2  0  0  0  0
  3  8  1  0  0  0  0
  4  5  1  0  0  0  0
  4 26  1  0  0  0  0
  5  6  2  0  0  0  0
  5 27  1  0  0  0  0
  6  7  1  0  0  0  0
  6 28  1  0  0  0  0
  7  8  2  0  0  0  0
  7 29  1  0  0  0  0
  8  9  1  0  0  0  0
  9 10  2  0  0  0  0
  9 22  1  0  0  0  0
 10 11  1  0  0  0  0
 10 30  1  0  0  0  0
 11 12  2  0  0  0  0
 11 15  1  0  0  0  0
 12 13  1  0  0  0  0
 12 31  1  0  0  0  0
 13 14  1  0  0  0  0
 14 15  2  0  0  0  0
 14 20  1  0  0  0  0
 15 16  1  0  0  0  0
 16 17  1  0  0  0  0
 16 18  2  0  0  0  0
 17 32  1  0  0  0  0
 17 33  1  0  0  0  0
 18 19  1  0  0  0  0
 19 20  2  0  0  0  0
 19 21  1  0  0  0  0
 21 34  1  0  0  0  0
 21 35  1  0  0  0  0
 22 36  1  0  0  0  0
 22 37  1  0  0  0  0
 22 38  1  0  0  0  0
M  END
$$$$
