D12
 OpenBabel04121316103D

 38 37  0  0  0  0  0  0  0  0999 V2000
    0.9985    0.0375    0.0475 C   0  0  0  0  0  0  0  0  0  0  0  0
    2.5165    0.0416    0.0573 C   0  0  0  0  0  0  0  0  0  0  0  0
    3.0461    0.5959    1.3751 C   0  0  0  0  0  0  0  0  0  0  0  0
    4.5699    0.6007    1.3865 C   0  0  0  0  0  0  0  0  0  0  0  0
    5.0880    1.1562    2.7070 C   0  0  0  0  0  0  0  0  0  0  0  0
    6.6104    1.1611    2.7184 C   0  0  0  0  0  0  0  0  0  0  0  0
    7.1259    1.7165    4.0389 C   0  0  0  0  0  0  0  0  0  0  0  0
    8.6482    1.7214    4.0504 C   0  0  0  0  0  0  0  0  0  0  0  0
    9.1664    2.2769    5.3708 C   0  0  0  0  0  0  0  0  0  0  0  0
   10.6902    2.2817    5.3823 C   0  0  0  0  0  0  0  0  0  0  0  0
   11.2198    2.8360    6.7000 C   0  0  0  0  0  0  0  0  0  0  0  0
   12.7378    2.8402    6.7098 C   0  0  0  0  0  0  0  0  0  0  0  0
    0.6272   -0.3615   -0.9010 H   0  0  0  0  0  0  0  0  0  0  0  0
    0.6060    1.0516    0.1707 H   0  0  0  0  0  0  0  0  0  0  0  0
    0.6060   -0.5837    0.8586 H   0  0  0  0  0  0  0  0  0  0  0  0
    2.8856    0.6480   -0.7776 H   0  0  0  0  0  0  0  0  0  0  0  0
    2.8856   -0.9793   -0.0930 H   0  0  0  0  0  0  0  0  0  0  0  0
    2.6740   -0.0103    2.2095 H   0  0  0  0  0  0  0  0  0  0  0  0
    2.6740    1.6164    1.5252 H   0  0  0  0  0  0  0  0  0  0  0  0
    4.9470    1.2091    0.5561 H   0  0  0  0  0  0  0  0  0  0  0  0
    4.9470   -0.4183    1.2407 H   0  0  0  0  0  0  0  0  0  0  0  0
    4.7133    0.5488    3.5391 H   0  0  0  0  0  0  0  0  0  0  0  0
    4.7133    2.1759    2.8547 H   0  0  0  0  0  0  0  0  0  0  0  0
    6.9866    1.7691    1.8875 H   0  0  0  0  0  0  0  0  0  0  0  0
    6.9866    0.1419    2.5721 H   0  0  0  0  0  0  0  0  0  0  0  0
    6.7497    1.1085    4.8698 H   0  0  0  0  0  0  0  0  0  0  0  0
    6.7497    2.7357    4.1853 H   0  0  0  0  0  0  0  0  0  0  0  0
    9.0230    2.3288    3.2182 H   0  0  0  0  0  0  0  0  0  0  0  0
    9.0230    0.7018    3.9026 H   0  0  0  0  0  0  0  0  0  0  0  0
    8.7893    1.6685    6.2012 H   0  0  0  0  0  0  0  0  0  0  0  0
    8.7893    3.2959    5.5166 H   0  0  0  0  0  0  0  0  0  0  0  0
   11.0622    2.8879    4.5478 H   0  0  0  0  0  0  0  0  0  0  0  0
   11.0622    1.2612    5.2321 H   0  0  0  0  0  0  0  0  0  0  0  0
   10.8507    2.2296    7.5349 H   0  0  0  0  0  0  0  0  0  0  0  0
   10.8507    3.8569    6.8504 H   0  0  0  0  0  0  0  0  0  0  0  0
   13.1302    1.8260    6.5866 H   0  0  0  0  0  0  0  0  0  0  0  0
   13.1090    3.2392    7.6583 H   0  0  0  0  0  0  0  0  0  0  0  0
   13.1302    3.4613    5.8987 H   0  0  0  0  0  0  0  0  0  0  0  0
  1  2  1  0  0  0  0
  1 13  1  0  0  0  0
  1 14  1  0  0  0  0
  1 15  1  0  0  0  0
  2  3  1  0  0  0  0
  2 16  1  0  0  0  0
  2 17  1  0  0  0  0
  3  4  1  0  0  0  0
  3 18  1  0  0  0  0
  3 19  1  0  0  0  0
  4  5  1  0  0  0  0
  4 20  1  0  0  0  0
  4 21  1  0  0  0  0
  5  6  1  0  0  0  0
  5 22  1  0  0  0  0
  5 23  1  0  0  0  0
  6  7  1  0  0  0  0
  6 24  1  0  0  0  0
  6 25  1  0  0  0  0
  7  8  1  0  0  0  0
  7 26  1  0  0  0  0
  7 27  1  0  0  0  0
  8  9  1  0  0  0  0
  8 28  1  0  0  0  0
  8 29  1  0  0  0  0
  9 10  1  0  0  0  0
  9 30  1  0  0  0  0
  9 31  1  0  0  0  0
 10 11  1  0  0  0  0
 10 32  1  0  0  0  0
 10 33  1  0  0  0  0
 11 12  1  0  0  0  0
 11 34  1  0  0  0  0
 11 35  1  0  0  0  0
 12 36  1  0  0  0  0
 12 37  1  0  0  0  0
 12 38  1  0  0  0  0
M  END
$$$$
