D19
 OpenBabel04121316103D

 57 61  0  0  1  0  0  0  0  0999 V2000
    3.0039   -0.0413    1.4446 N   0  0  0  0  0  0  0  0  0  0  0  0
    2.5538    0.0212    0.0680 C   0  0  2  0  0  0  0  0  0  0  0  0
    1.4609    0.1185    0.0705 H   0  0  0  0  0  0  0  0  0  0  0  0
    2.8476   -1.2140   -0.7540 C   0  0  0  0  0  0  0  0  0  0  0  0
    3.1026   -1.0532   -2.1246 C   0  0  0  0  0  0  0  0  0  0  0  0
    3.4516   -2.1112   -2.9250 C   0  0  0  0  0  0  0  0  0  0  0  0
    3.3949   -3.3931   -2.4038 C   0  0  0  0  0  0  0  0  0  0  0  0
    3.0718   -3.6045   -1.0597 C   0  0  0  0  0  0  0  0  0  0  0  0
    2.7992   -2.5148   -0.2357 C   0  0  0  0  0  0  0  0  0  0  0  0
    3.5692   -4.4570   -3.3392 C   0  0  0  0  0  0  0  0  0  0  0  0
    4.3964   -4.6178   -4.4317 C   0  0  0  0  0  0  0  0  0  0  0  0
    3.9856   -5.7953   -5.0623 C   0  0  0  0  0  0  0  0  0  0  0  0
    2.8771   -6.2159   -4.3513 C   0  0  0  0  0  0  0  0  0  0  0  0
    2.6416   -5.4398   -3.2788 O   0  0  0  0  0  0  0  0  0  0  0  0
    2.0920   -7.3781   -4.4737 C   0  0  0  0  0  0  0  0  0  0  0  0
    2.6156   -8.5146   -3.9062 C   0  0  0  0  0  0  0  0  0  0  0  0
    2.0294   -9.7007   -4.2229 C   0  0  0  0  0  0  0  0  0  0  0  0
    0.9717   -9.8531   -5.1358 C   0  0  0  0  0  0  0  0  0  0  0  0
    0.3570   -8.6674   -5.5524 C   0  0  0  0  0  0  0  0  0  0  0  0
    0.9243   -7.4364   -5.2366 C   0  0  0  0  0  0  0  0  0  0  0  0
    0.6207  -11.2293   -5.6917 C   0  0  1  0  0  0  0  0  0  0  0  0
    1.3836  -11.5391   -6.4164 H   0  0  0  0  0  0  0  0  0  0  0  0
    0.4738  -12.2530   -4.6798 N   0  0  0  0  0  0  0  0  0  0  0  0
    1.7046  -12.6558   -3.9626 C   0  0  0  0  0  0  0  0  0  0  0  0
    2.5939  -13.7535   -4.4736 C   0  0  0  0  0  0  0  0  0  0  0  0
    3.1154  -12.3736   -4.4963 C   0  0  0  0  0  0  0  0  0  0  0  0
   -0.6223  -11.2498   -6.4408 N   0  0  0  0  0  0  0  0  0  0  0  0
    3.1285    1.2398   -0.5080 N   0  0  0  0  0  0  0  0  0  0  0  0
    4.6057    1.3153   -0.5386 C   0  0  0  0  0  0  0  0  0  0  0  0
    5.4711    0.6393   -1.5821 C   0  0  0  0  0  0  0  0  0  0  0  0
    5.2911    2.1229   -1.6008 C   0  0  0  0  0  0  0  0  0  0  0  0
    4.0091   -0.1897    1.4254 H   0  0  0  0  0  0  0  0  0  0  0  0
    2.6206   -0.8742    1.8812 H   0  0  0  0  0  0  0  0  0  0  0  0
    3.0918   -0.0648   -2.5789 H   0  0  0  0  0  0  0  0  0  0  0  0
    3.7190   -1.9295   -3.9624 H   0  0  0  0  0  0  0  0  0  0  0  0
    3.0185   -4.6139   -0.6586 H   0  0  0  0  0  0  0  0  0  0  0  0
    2.5167   -2.7010    0.7959 H   0  0  0  0  0  0  0  0  0  0  0  0
    5.1853   -3.9462   -4.7314 H   0  0  0  0  0  0  0  0  0  0  0  0
    4.4037   -6.2973   -5.9161 H   0  0  0  0  0  0  0  0  0  0  0  0
    3.4982   -8.4964   -3.2702 H   0  0  0  0  0  0  0  0  0  0  0  0
    2.4784  -10.5102   -3.6891 H   0  0  0  0  0  0  0  0  0  0  0  0
   -0.5572   -8.6782   -6.1371 H   0  0  0  0  0  0  0  0  0  0  0  0
    0.4900   -6.5208   -5.6262 H   0  0  0  0  0  0  0  0  0  0  0  0
    0.0123  -13.0489   -5.1132 H   0  0  0  0  0  0  0  0  0  0  0  0
    1.5812  -12.5748   -2.8808 H   0  0  0  0  0  0  0  0  0  0  0  0
    2.3957  -14.1789   -5.4453 H   0  0  0  0  0  0  0  0  0  0  0  0
    3.0944  -14.3943   -3.7608 H   0  0  0  0  0  0  0  0  0  0  0  0
    3.2503  -11.8769   -5.4511 H   0  0  0  0  0  0  0  0  0  0  0  0
    3.8661  -12.0670   -3.7702 H   0  0  0  0  0  0  0  0  0  0  0  0
   -0.5082  -10.6171   -7.2327 H   0  0  0  0  0  0  0  0  0  0  0  0
   -1.3364  -10.8372   -5.8460 H   0  0  0  0  0  0  0  0  0  0  0  0
    2.7482    2.0073    0.0428 H   0  0  0  0  0  0  0  0  0  0  0  0
    5.0476    1.4111    0.4506 H   0  0  0  0  0  0  0  0  0  0  0  0
    5.1683    0.1956   -2.5210 H   0  0  0  0  0  0  0  0  0  0  0  0
    6.3490    0.1415   -1.1886 H   0  0  0  0  0  0  0  0  0  0  0  0
    4.6799    2.5311   -2.3996 H   0  0  0  0  0  0  0  0  0  0  0  0
    6.1606    2.7124   -1.3511 H   0  0  0  0  0  0  0  0  0  0  0  0
  1 32  1  0  0  0  0
  1 33  1  0  0  0  0
  2  4  1  0  0  0  0
  2 28  1  0  0  0  0
  2  3  1  1  0  0  0
  2  1  1  0  0  0  0
  4  5  2  0  0  0  0
  4  9  1  0  0  0  0
  5  6  1  0  0  0  0
  5 34  1  0  0  0  0
  6  7  2  0  0  0  0
  6 35  1  0  0  0  0
  7  8  1  0  0  0  0
  7 10  1  0  0  0  0
  8  9  2  0  0  0  0
  8 36  1  0  0  0  0
  9 37  1  0  0  0  0
 10 11  2  0  0  0  0
 10 14  1  0  0  0  0
 11 12  1  0  0  0  0
 11 38  1  0  0  0  0
 12 13  2  0  0  0  0
 12 39  1  0  0  0  0
 13 14  1  0  0  0  0
 13 15  1  0  0  0  0
 15 16  2  0  0  0  0
 15 20  1  0  0  0  0
 16 17  1  0  0  0  0
 16 40  1  0  0  0  0
 17 18  2  0  0  0  0
 17 41  1  0  0  0  0
 18 19  1  0  0  0  0
 18 21  1  0  0  0  0
 19 20  2  0  0  0  0
 19 42  1  0  0  0  0
 20 43  1  0  0  0  0
 21 22  1  6  0  0  0
 21 23  1  0  0  0  0
 21 27  1  0  0  0  0
 23 24  1  0  0  0  0
 23 44  1  0  0  0  0
 24 25  1  0  0  0  0
 24 26  1  0  0  0  0
 24 45  1  0  0  0  0
 25 26  1  0  0  0  0
 25 46  1  0  0  0  0
 25 47  1  0  0  0  0
 26 48  1  0  0  0  0
 26 49  1  0  0  0  0
 27 50  1  0  0  0  0
 27 51  1  0  0  0  0
 28 29  1  0  0  0  0
 28 52  1  0  0  0  0
 29 30  1  0  0  0  0
 29 31  1  0  0  0  0
 29 53  1  0  0  0  0
 30 31  1  0  0  0  0
 30 54  1  0  0  0  0
 30 55  1  0  0  0  0
 31 56  1  0  0  0  0
 31 57  1  0  0  0  0
M  END
$$$$
