D1A
 OpenBabel04121316103D

 45 47  0  0  0  0  0  0  0  0999 V2000
    1.0537    0.0737   -0.0581 N   0  0  0  0  0  0  0  0  0  0  0  0
    2.4013    0.0503   -0.1465 C   0  0  0  0  0  0  0  0  0  0  0  0
    2.9953   -0.3497   -1.2182 N   0  0  0  0  0  0  0  0  0  0  0  0
    3.0595    0.4857    0.9697 N   0  0  0  0  0  0  0  0  0  0  0  0
    4.4183    0.5610    1.0350 N   0  0  0  0  0  0  0  0  0  0  0  0
    5.0088    0.9557    2.1176 C   0  0  0  0  0  0  0  0  0  0  0  0
    6.4959    0.9625    2.1253 C   0  0  0  0  0  0  0  0  0  0  0  0
    7.2377    1.8365    1.3274 C   0  0  0  0  0  0  0  0  0  0  0  0
    8.6460    1.7053    1.2551 C   0  0  0  0  0  0  0  0  0  0  0  0
    9.3286    0.7678    2.0544 C   0  0  0  0  0  0  0  0  0  0  0  0
    8.5537   -0.0008    2.9317 C   0  0  0  0  0  0  0  0  0  0  0  0
    7.1556    0.0373    2.9203 C   0  0  0  0  0  0  0  0  0  0  0  0
   10.7525    0.6048    1.9406 N   0  0  0  0  0  0  0  0  0  0  0  0
   11.5332   -0.3001    2.6728 C   0  0  0  0  0  0  0  0  0  0  0  0
   11.0796   -1.0517    3.5390 O   0  0  0  0  0  0  0  0  0  0  0  0
   12.9603   -0.4064    2.3749 C   0  0  0  0  0  0  0  0  0  0  0  0
   13.7976    0.1842    1.4448 C   0  0  0  0  0  0  0  0  0  0  0  0
   14.9913   -0.6016    1.3691 C   0  0  0  0  0  0  0  0  0  0  0  0
   14.9598   -1.5226    2.4152 C   0  0  0  0  0  0  0  0  0  0  0  0
   13.7825   -1.2732    3.0948 N   0  0  0  0  0  0  0  0  0  0  0  0
   13.4901   -1.7648    3.9353 H   0  0  0  0  0  0  0  0  0  0  0  0
   15.9939   -2.4710    2.6135 C   0  0  0  0  0  0  0  0  0  0  0  0
   17.0542   -2.4912    1.6840 C   0  0  0  0  0  0  0  0  0  0  0  0
   17.0907   -1.5875    0.6258 C   0  0  0  0  0  0  0  0  0  0  0  0
   16.0791   -0.6322    0.4724 C   0  0  0  0  0  0  0  0  0  0  0  0
   16.0122   -3.4446    3.7131 N   0  3  0  0  0  0  0  0  0  0  0  0
   15.0785   -3.3978    4.5267 O   0  0  0  0  0  0  0  0  0  0  0  0
   16.9573   -4.2456    3.7697 O   0  5  0  0  0  0  0  0  0  0  0  0
    4.3347    1.3846    3.3959 C   0  0  0  0  0  0  0  0  0  0  0  0
    0.4941   -0.2197   -0.8450 H   0  0  0  0  0  0  0  0  0  0  0  0
    0.5579    0.3841    0.7628 H   0  0  0  0  0  0  0  0  0  0  0  0
    2.3202   -0.6235   -1.9229 H   0  0  0  0  0  0  0  0  0  0  0  0
    2.4821    0.7533    1.7505 H   0  0  0  0  0  0  0  0  0  0  0  0
    6.7230    2.6049    0.7531 H   0  0  0  0  0  0  0  0  0  0  0  0
    9.1778    2.3511    0.5597 H   0  0  0  0  0  0  0  0  0  0  0  0
    8.9966   -0.6795    3.6482 H   0  0  0  0  0  0  0  0  0  0  0  0
    6.6040   -0.6803    3.5213 H   0  0  0  0  0  0  0  0  0  0  0  0
   11.2098    1.1474    1.2192 H   0  0  0  0  0  0  0  0  0  0  0  0
   13.5488    0.9933    0.7745 H   0  0  0  0  0  0  0  0  0  0  0  0
   17.8630   -3.2179    1.7711 H   0  0  0  0  0  0  0  0  0  0  0  0
   17.9077   -1.6274   -0.0925 H   0  0  0  0  0  0  0  0  0  0  0  0
   16.1109    0.0561   -0.3671 H   0  0  0  0  0  0  0  0  0  0  0  0
    3.2473    1.3619    3.3404 H   0  0  0  0  0  0  0  0  0  0  0  0
    4.6316    2.4125    3.6187 H   0  0  0  0  0  0  0  0  0  0  0  0
    4.6336    0.7265    4.2156 H   0  0  0  0  0  0  0  0  0  0  0  0
  1  2  1  0  0  0  0
  1 30  1  0  0  0  0
  1 31  1  0  0  0  0
  2  3  2  0  0  0  0
  2  4  1  0  0  0  0
  3 32  1  0  0  0  0
  4  5  1  0  0  0  0
  4 33  1  0  0  0  0
  5  6  2  0  0  0  0
  6  7  1  0  0  0  0
  6 29  1  0  0  0  0
  7  8  2  0  0  0  0
  7 12  1  0  0  0  0
  8  9  1  0  0  0  0
  8 34  1  0  0  0  0
  9 10  2  0  0  0  0
  9 35  1  0  0  0  0
 10 11  1  0  0  0  0
 10 13  1  0  0  0  0
 11 12  2  0  0  0  0
 11 36  1  0  0  0  0
 12 37  1  0  0  0  0
 13 14  1  0  0  0  0
 13 38  1  0  0  0  0
 14 15  2  0  0  0  0
 14 16  1  0  0  0  0
 16 17  2  0  0  0  0
 16 20  1  0  0  0  0
 17 18  1  0  0  0  0
 17 39  1  0  0  0  0
 18 19  2  0  0  0  0
 18 25  1  0  0  0  0
 19 20  1  0  0  0  0
 19 22  1  0  0  0  0
 20 21  1  0  0  0  0
 22 23  2  0  0  0  0
 22 26  1  0  0  0  0
 23 24  1  0  0  0  0
 23 40  1  0  0  0  0
 24 25  2  0  0  0  0
 24 41  1  0  0  0  0
 25 42  1  0  0  0  0
 26 27  2  0  0  0  0
 26 28  1  0  0  0  0
 29 43  1  0  0  0  0
 29 44  1  0  0  0  0
 29 45  1  0  0  0  0
M  CHG  2  26   1  28  -1
M  END
$$$$
