D1B
 OpenBabel04121316103D

 42 45  0  0  0  0  0  0  0  0999 V2000
    1.0037    0.0426    0.1948 N   0  0  0  0  0  0  0  0  0  0  0  0
    2.3562   -0.0166    0.2010 C   0  0  0  0  0  0  0  0  0  0  0  0
    3.0473   -0.5120    1.1726 N   0  0  0  0  0  0  0  0  0  0  0  0
    3.0690    0.5194   -0.9537 C   0  0  0  0  0  0  0  0  0  0  0  0
    3.0679    1.8998   -1.1480 C   0  0  0  0  0  0  0  0  0  0  0  0
    3.5159    2.4077   -2.3532 C   0  0  0  0  0  0  0  0  0  0  0  0
    4.0482    1.5446   -3.3125 C   0  0  0  0  0  0  0  0  0  0  0  0
    4.1757    0.1679   -3.0176 C   0  0  0  0  0  0  0  0  0  0  0  0
    3.6288   -0.3603   -1.8662 C   0  0  0  0  0  0  0  0  0  0  0  0
    4.3652    2.0656   -4.6353 C   0  0  0  0  0  0  0  0  0  0  0  0
    4.2822    3.3480   -5.1516 C   0  0  0  0  0  0  0  0  0  0  0  0
    4.5719    3.3882   -6.5452 C   0  0  0  0  0  0  0  0  0  0  0  0
    4.8517    2.1300   -7.0203 C   0  0  0  0  0  0  0  0  0  0  0  0
    4.8341    0.9528   -5.8255 S   0  0  0  0  0  0  0  0  0  0  0  0
    5.1425    1.6880   -8.3226 C   0  0  0  0  0  0  0  0  0  0  0  0
    5.0795    0.4323   -8.7091 N   0  0  0  0  0  0  0  0  0  0  0  0
    5.4138    0.4521  -10.0193 C   0  0  0  0  0  0  0  0  0  0  0  0
    5.7042    1.7446  -10.4276 C   0  0  0  0  0  0  0  0  0  0  0  0
    5.5459    2.5138   -9.3169 N   0  0  0  0  0  0  0  0  0  0  0  0
    5.6927    3.5085   -9.2366 H   0  0  0  0  0  0  0  0  0  0  0  0
    6.0628    2.0859  -11.7162 C   0  0  0  0  0  0  0  0  0  0  0  0
    6.1206    1.0342  -12.6374 C   0  0  0  0  0  0  0  0  0  0  0  0
    5.8288   -0.2883  -12.2419 C   0  0  0  0  0  0  0  0  0  0  0  0
    5.4770   -0.6003  -10.9269 C   0  0  0  0  0  0  0  0  0  0  0  0
    6.4954    1.3307  -14.0493 C   0  0  0  0  0  0  0  0  0  0  0  0
    6.7802    2.5189  -14.4872 N   0  0  0  0  0  0  0  0  0  0  0  0
    6.5593    0.3472  -14.9744 N   0  0  0  0  0  0  0  0  0  0  0  0
    0.4556   -0.4096    0.9109 H   0  0  0  0  0  0  0  0  0  0  0  0
    0.5159    0.2938   -0.6614 H   0  0  0  0  0  0  0  0  0  0  0  0
    2.4181   -0.8238    1.9076 H   0  0  0  0  0  0  0  0  0  0  0  0
    2.6956    2.5675   -0.3800 H   0  0  0  0  0  0  0  0  0  0  0  0
    3.4126    3.4707   -2.5450 H   0  0  0  0  0  0  0  0  0  0  0  0
    4.6522   -0.5313   -3.7025 H   0  0  0  0  0  0  0  0  0  0  0  0
    3.6200   -1.4338   -1.7063 H   0  0  0  0  0  0  0  0  0  0  0  0
    3.9916    4.2201   -4.5802 H   0  0  0  0  0  0  0  0  0  0  0  0
    4.5324    4.2863   -7.1480 H   0  0  0  0  0  0  0  0  0  0  0  0
    6.2662    3.1198  -11.9483 H   0  0  0  0  0  0  0  0  0  0  0  0
    5.8617   -1.1150  -12.9405 H   0  0  0  0  0  0  0  0  0  0  0  0
    5.2490   -1.6141  -10.6153 H   0  0  0  0  0  0  0  0  0  0  0  0
    6.7219    3.2354  -13.7672 H   0  0  0  0  0  0  0  0  0  0  0  0
    6.3870   -0.6273  -14.7945 H   0  0  0  0  0  0  0  0  0  0  0  0
    6.8377    0.6240  -15.9051 H   0  0  0  0  0  0  0  0  0  0  0  0
  1  2  1  0  0  0  0
  1 28  1  0  0  0  0
  1 29  1  0  0  0  0
  2  3  2  0  0  0  0
  2  4  1  0  0  0  0
  3 30  1  0  0  0  0
  4  5  2  0  0  0  0
  4  9  1  0  0  0  0
  5  6  1  0  0  0  0
  5 31  1  0  0  0  0
  6  7  2  0  0  0  0
  6 32  1  0  0  0  0
  7  8  1  0  0  0  0
  7 10  1  0  0  0  0
  8  9  2  0  0  0  0
  8 33  1  0  0  0  0
  9 34  1  0  0  0  0
 10 11  2  0  0  0  0
 10 14  1  0  0  0  0
 11 12  1  0  0  0  0
 11 35  1  0  0  0  0
 12 13  2  0  0  0  0
 12 36  1  0  0  0  0
 13 14  1  0  0  0  0
 13 15  1  0  0  0  0
 15 16  2  0  0  0  0
 15 19  1  0  0  0  0
 16 17  1  0  0  0  0
 17 18  2  0  0  0  0
 17 24  1  0  0  0  0
 18 19  1  0  0  0  0
 18 21  1  0  0  0  0
 19 20  1  0  0  0  0
 21 22  2  0  0  0  0
 21 37  1  0  0  0  0
 22 23  1  0  0  0  0
 22 25  1  0  0  0  0
 23 24  2  0  0  0  0
 23 38  1  0  0  0  0
 24 39  1  0  0  0  0
 25 26  2  0  0  0  0
 25 27  1  0  0  0  0
 26 40  1  0  0  0  0
 27 41  1  0  0  0  0
 27 42  1  0  0  0  0
M  END
$$$$
