D1D
 OpenBabel04121316103D

 16 16  0  0  1  0  0  0  0  0999 V2000
    2.8735    0.3958    1.2370 O   0  0  0  0  0  0  0  0  0  0  0  0
    2.4447    0.0278   -0.0856 C   0  0  2  0  0  0  0  0  0  0  0  0
    1.3484    0.0446   -0.0412 H   0  0  0  0  0  0  0  0  0  0  0  0
    2.9374   -1.4009   -0.3555 C   0  0  0  0  0  0  0  0  0  0  0  0
    2.3096   -2.0508   -1.9233 S   0  0  0  0  0  0  0  0  0  0  0  0
    3.1791   -0.7200   -3.2126 S   0  0  0  0  0  0  0  0  0  0  0  0
    2.4903    0.8223   -2.5627 C   0  0  0  0  0  0  0  0  0  0  0  0
    2.9255    1.0865   -1.1142 C   0  0  1  0  0  0  0  0  0  0  0  0
    4.0181    1.1670   -1.0597 H   0  0  0  0  0  0  0  0  0  0  0  0
    2.4383    2.3890   -0.7432 O   0  0  0  0  0  0  0  0  0  0  0  0
    3.8438    0.4978    1.2271 H   0  0  0  0  0  0  0  0  0  0  0  0
    2.6075   -2.0628    0.4527 H   0  0  0  0  0  0  0  0  0  0  0  0
    4.0331   -1.4402   -0.3469 H   0  0  0  0  0  0  0  0  0  0  0  0
    1.3969    0.8048   -2.6411 H   0  0  0  0  0  0  0  0  0  0  0  0
    2.8232    1.6472   -3.2022 H   0  0  0  0  0  0  0  0  0  0  0  0
    1.4699    2.3423   -0.6634 H   0  0  0  0  0  0  0  0  0  0  0  0
  1 11  1  0  0  0  0
  2  4  1  0  0  0  0
  2  8  1  0  0  0  0
  2  3  1  6  0  0  0
  2  1  1  0  0  0  0
  4  5  1  0  0  0  0
  4 12  1  0  0  0  0
  4 13  1  0  0  0  0
  5  6  1  0  0  0  0
  6  7  1  0  0  0  0
  7  8  1  0  0  0  0
  7 14  1  0  0  0  0
  7 15  1  0  0  0  0
  8 10  1  0  0  0  0
  8  9  1  1  0  0  0
 10 16  1  0  0  0  0
M  END
$$$$
