D1X
 OpenBabel04121316103D

 16 16  0  0  0  0  0  0  0  0999 V2000
    0.8943    0.0497    0.0274 O   0  0  0  0  0  0  0  0  0  0  0  0
    2.1205   -0.0377    0.0182 C   0  0  0  0  0  0  0  0  0  0  0  0
    2.8979    1.0858    0.0218 N   0  0  0  0  0  0  0  0  0  0  0  0
    4.2590    1.1462    0.0174 C   0  0  0  0  0  0  0  0  0  0  0  0
    4.8752    2.2046    0.0140 O   0  0  0  0  0  0  0  0  0  0  0  0
    4.9902   -0.1371    0.0230 C   0  0  0  0  0  0  0  0  0  0  0  0
    4.3264   -1.3016    0.0184 C   0  0  0  0  0  0  0  0  0  0  0  0
    2.8257   -1.3742   -0.0111 C   0  0  0  0  0  0  0  0  0  0  0  0
    4.9578   -2.6463    0.0312 C   0  0  0  0  0  0  0  0  0  0  0  0
    4.2841   -3.6670    0.0333 O   0  0  0  0  0  0  0  0  0  0  0  0
    6.2988   -2.6909    0.0385 O   0  0  0  0  0  0  0  0  0  0  0  0
    2.4033    1.9672    0.0265 H   0  0  0  0  0  0  0  0  0  0  0  0
    6.0653   -0.0238    0.0299 H   0  0  0  0  0  0  0  0  0  0  0  0
    2.4658   -1.9420    0.8546 H   0  0  0  0  0  0  0  0  0  0  0  0
    2.5106   -1.8746   -0.9340 H   0  0  0  0  0  0  0  0  0  0  0  0
    6.7915   -1.8558    0.0351 H   0  0  0  0  0  0  0  0  0  0  0  0
  1  2  2  0  0  0  0
  2  3  1  0  0  0  0
  2  8  1  0  0  0  0
  3  4  1  0  0  0  0
  3 12  1  0  0  0  0
  4  5  2  0  0  0  0
  4  6  1  0  0  0  0
  6  7  2  0  0  0  0
  6 13  1  0  0  0  0
  7  8  1  0  0  0  0
  7  9  1  0  0  0  0
  8 14  1  0  0  0  0
  8 15  1  0  0  0  0
  9 10  2  0  0  0  0
  9 11  1  0  0  0  0
 11 16  1  0  0  0  0
M  END
$$$$
