D20
 OpenBabel04121316103D

 36 35  0  0  1  0  0  0  0  0999 V2000
    0.9446   -0.0781   -0.0615 C   0  0  0  0  0  0  0  0  0  0  0  0
    2.3646   -0.0483   -0.0504 O   0  0  0  0  0  0  0  0  0  0  0  0
    2.8442    1.2045    0.4417 C   0  0  0  0  0  0  0  0  0  0  0  0
    4.3628    1.1840    0.4343 C   0  0  0  0  0  0  0  0  0  0  0  0
    4.9524    2.4192    0.9185 N   0  0  0  0  0  0  0  0  0  0  0  0
    6.2884    2.6058    0.9769 C   0  0  0  0  0  0  0  0  0  0  0  0
    7.1695    1.7298    0.6376 N   0  0  0  0  0  0  0  0  0  0  0  0
    6.6829    3.8201    1.4129 N   0  0  0  0  0  0  0  0  0  0  0  0
    8.1053    4.0928    1.5263 C   0  0  0  0  0  0  0  0  0  0  0  0
    8.3322    5.4688    2.1011 C   0  0  0  0  0  0  0  0  0  0  0  0
    9.8169    5.7948    2.2592 C   0  0  0  0  0  0  0  0  0  0  0  0
   10.0485    7.2034    2.8241 C   0  0  1  0  0  0  0  0  0  0  0  0
    9.5807    7.9601    2.1843 H   0  0  0  0  0  0  0  0  0  0  0  0
    9.5030    7.3767    4.2694 C   0  0  0  0  0  0  0  0  0  0  0  0
   10.2110    7.5277    5.2634 O   0  0  0  0  0  0  0  0  0  0  0  0
    8.1564    7.3548    4.3945 O   0  0  0  0  0  0  0  0  0  0  0  0
   11.5024    7.4753    2.8254 N   0  0  0  0  0  0  0  0  0  0  0  0
    0.6168   -1.0486   -0.4420 H   0  0  0  0  0  0  0  0  0  0  0  0
    0.5582    0.7078   -0.7170 H   0  0  0  0  0  0  0  0  0  0  0  0
    0.5587    0.0528    0.9536 H   0  0  0  0  0  0  0  0  0  0  0  0
    2.4763    1.3612    1.4616 H   0  0  0  0  0  0  0  0  0  0  0  0
    2.4768    2.0130   -0.1997 H   0  0  0  0  0  0  0  0  0  0  0  0
    4.7109    0.9881   -0.5876 H   0  0  0  0  0  0  0  0  0  0  0  0
    4.7111    0.3461    1.0510 H   0  0  0  0  0  0  0  0  0  0  0  0
    4.3300    3.1602    1.2076 H   0  0  0  0  0  0  0  0  0  0  0  0
    6.7133    0.8789    0.3232 H   0  0  0  0  0  0  0  0  0  0  0  0
    6.0159    4.4973    1.7484 H   0  0  0  0  0  0  0  0  0  0  0  0
    8.5781    4.0127    0.5422 H   0  0  0  0  0  0  0  0  0  0  0  0
    8.5669    3.3574    2.1973 H   0  0  0  0  0  0  0  0  0  0  0  0
    7.8483    5.4501    3.0785 H   0  0  0  0  0  0  0  0  0  0  0  0
    7.8427    6.2323    1.4842 H   0  0  0  0  0  0  0  0  0  0  0  0
   10.3025    5.7068    1.2760 H   0  0  0  0  0  0  0  0  0  0  0  0
   10.2868    5.0449    2.9087 H   0  0  0  0  0  0  0  0  0  0  0  0
    7.6467    7.2853    3.5685 H   0  0  0  0  0  0  0  0  0  0  0  0
   11.9255    7.2891    1.9203 H   0  0  0  0  0  0  0  0  0  0  0  0
   11.9503    6.8496    3.5012 H   0  0  0  0  0  0  0  0  0  0  0  0
  1  2  1  0  0  0  0
  1 18  1  0  0  0  0
  1 19  1  0  0  0  0
  1 20  1  0  0  0  0
  2  3  1  0  0  0  0
  3  4  1  0  0  0  0
  3 21  1  0  0  0  0
  3 22  1  0  0  0  0
  4  5  1  0  0  0  0
  4 23  1  0  0  0  0
  4 24  1  0  0  0  0
  5  6  1  0  0  0  0
  5 25  1  0  0  0  0
  6  7  2  0  0  0  0
  6  8  1  0  0  0  0
  7 26  1  0  0  0  0
  8  9  1  0  0  0  0
  8 27  1  0  0  0  0
  9 10  1  0  0  0  0
  9 28  1  0  0  0  0
  9 29  1  0  0  0  0
 10 11  1  0  0  0  0
 10 30  1  0  0  0  0
 10 31  1  0  0  0  0
 11 12  1  0  0  0  0
 11 32  1  0  0  0  0
 11 33  1  0  0  0  0
 12 13  1  6  0  0  0
 12 14  1  0  0  0  0
 12 17  1  0  0  0  0
 14 15  2  0  0  0  0
 14 16  1  0  0  0  0
 16 34  1  0  0  0  0
 17 35  1  0  0  0  0
 17 36  1  0  0  0  0
M  END
$$$$
