D25
 OpenBabel04121316103D

 25 27  0  0  0  0  0  0  0  0999 V2000
   -1.4392   -0.0650   -0.0083 C   0  0  0  0  0  0  0  0  0  0  0  0
   -0.8207    1.1831    0.0415 C   0  0  0  0  0  0  0  0  0  0  0  0
    0.5686    1.2762   -0.0078 C   0  0  0  0  0  0  0  0  0  0  0  0
    1.3515    0.1186   -0.0260 C   0  0  0  0  0  0  0  0  0  0  0  0
    0.7168   -1.1336    0.0436 C   0  0  0  0  0  0  0  0  0  0  0  0
   -0.6723   -1.2258   -0.0011 C   0  0  0  0  0  0  0  0  0  0  0  0
    2.7999    0.2126   -0.1699 C   0  0  0  0  0  0  0  0  0  0  0  0
    3.4601    1.3789   -0.2536 N   0  0  0  0  0  0  0  0  0  0  0  0
    4.7992    1.0544   -0.4215 O   0  0  0  0  0  0  0  0  0  0  0  0
    4.9376   -0.2968   -0.4393 C   0  0  0  0  0  0  0  0  0  0  0  0
    3.6964   -0.8667   -0.2950 C   0  0  0  0  0  0  0  0  0  0  0  0
    6.1885   -1.0718   -0.5827 C   0  0  0  0  0  0  0  0  0  0  0  0
    7.4001   -0.5197   -0.7166 N   0  0  0  0  0  0  0  0  0  0  0  0
    8.2247   -1.5768   -0.8039 N   0  0  0  0  0  0  0  0  0  0  0  0
    9.2174   -1.4023   -0.9129 H   0  0  0  0  0  0  0  0  0  0  0  0
    7.5835   -2.7782   -0.7305 C   0  0  0  0  0  0  0  0  0  0  0  0
    6.2557   -2.4842   -0.5865 C   0  0  0  0  0  0  0  0  0  0  0  0
   -2.5222   -0.1320   -0.0487 H   0  0  0  0  0  0  0  0  0  0  0  0
   -1.4155    2.0897    0.0980 H   0  0  0  0  0  0  0  0  0  0  0  0
    1.0371    2.2575   -0.0470 H   0  0  0  0  0  0  0  0  0  0  0  0
    1.2845   -2.0577    0.1124 H   0  0  0  0  0  0  0  0  0  0  0  0
   -1.1499   -2.2015   -0.0349 H   0  0  0  0  0  0  0  0  0  0  0  0
    3.4735   -1.9188   -0.2873 H   0  0  0  0  0  0  0  0  0  0  0  0
    8.1122   -3.7186   -0.7851 H   0  0  0  0  0  0  0  0  0  0  0  0
    5.4394   -3.1885   -0.4936 H   0  0  0  0  0  0  0  0  0  0  0  0
  1  2  2  0  0  0  0
  1  6  1  0  0  0  0
  1 18  1  0  0  0  0
  2  3  1  0  0  0  0
  2 19  1  0  0  0  0
  3  4  2  0  0  0  0
  3 20  1  0  0  0  0
  4  5  1  0  0  0  0
  4  7  1  0  0  0  0
  5  6  2  0  0  0  0
  5 21  1  0  0  0  0
  6 22  1  0  0  0  0
  7  8  2  0  0  0  0
  7 11  1  0  0  0  0
  8  9  1  0  0  0  0
  9 10  1  0  0  0  0
 10 11  2  0  0  0  0
 10 12  1  0  0  0  0
 11 23  1  0  0  0  0
 12 13  2  0  0  0  0
 12 17  1  0  0  0  0
 13 14  1  0  0  0  0
 14 15  1  0  0  0  0
 14 16  1  0  0  0  0
 16 17  2  0  0  0  0
 16 24  1  0  0  0  0
 17 25  1  0  0  0  0
M  END
$$$$
