D26
 OpenBabel04121316103D

 25 27  0  0  0  0  0  0  0  0999 V2000
   -1.5216   -0.0217   -0.0083 C   0  0  0  0  0  0  0  0  0  0  0  0
   -0.8956    1.2281    0.0443 C   0  0  0  0  0  0  0  0  0  0  0  0
    0.4934    1.3291    0.0036 C   0  0  0  0  0  0  0  0  0  0  0  0
    1.2619    0.1721    0.0023 C   0  0  0  0  0  0  0  0  0  0  0  0
    0.6058   -1.0818    0.0824 C   0  0  0  0  0  0  0  0  0  0  0  0
   -0.7709   -1.1847    0.0112 C   0  0  0  0  0  0  0  0  0  0  0  0
    2.7149    0.2602   -0.1494 C   0  0  0  0  0  0  0  0  0  0  0  0
    3.4800    1.3336   -0.2541 N   0  0  0  0  0  0  0  0  0  0  0  0
    4.8144    0.9377   -0.4420 C   0  0  0  0  0  0  0  0  0  0  0  0
    5.0001   -0.4216   -0.4698 C   0  0  0  0  0  0  0  0  0  0  0  0
    3.5289   -1.2160   -0.3020 S   0  0  0  0  0  0  0  0  0  0  0  0
    6.2081   -1.2592   -0.6161 C   0  0  0  0  0  0  0  0  0  0  0  0
    7.4497   -0.8214   -0.7651 N   0  0  0  0  0  0  0  0  0  0  0  0
    8.1718   -1.9604   -0.8517 N   0  0  0  0  0  0  0  0  0  0  0  0
    9.1706   -1.8852   -0.9753 H   0  0  0  0  0  0  0  0  0  0  0  0
    7.4300   -3.0976   -0.7583 C   0  0  0  0  0  0  0  0  0  0  0  0
    6.1383   -2.6817   -0.6018 C   0  0  0  0  0  0  0  0  0  0  0  0
   -2.6022   -0.0914   -0.0589 H   0  0  0  0  0  0  0  0  0  0  0  0
   -1.4917    2.1324    0.0955 H   0  0  0  0  0  0  0  0  0  0  0  0
    0.9770    2.3027   -0.0431 H   0  0  0  0  0  0  0  0  0  0  0  0
    1.1522   -2.0198    0.1663 H   0  0  0  0  0  0  0  0  0  0  0  0
   -1.2310   -2.1677   -0.0319 H   0  0  0  0  0  0  0  0  0  0  0  0
    5.5839    1.6957   -0.5449 H   0  0  0  0  0  0  0  0  0  0  0  0
    7.8480   -4.0897   -0.8073 H   0  0  0  0  0  0  0  0  0  0  0  0
    5.2680   -3.3118   -0.4929 H   0  0  0  0  0  0  0  0  0  0  0  0
  1  2  2  0  0  0  0
  1  6  1  0  0  0  0
  1 18  1  0  0  0  0
  2  3  1  0  0  0  0
  2 19  1  0  0  0  0
  3  4  2  0  0  0  0
  3 20  1  0  0  0  0
  4  5  1  0  0  0  0
  4  7  1  0  0  0  0
  5  6  2  0  0  0  0
  5 21  1  0  0  0  0
  6 22  1  0  0  0  0
  7  8  2  0  0  0  0
  7 11  1  0  0  0  0
  8  9  1  0  0  0  0
  9 10  2  0  0  0  0
  9 23  1  0  0  0  0
 10 11  1  0  0  0  0
 10 12  1  0  0  0  0
 12 13  2  0  0  0  0
 12 17  1  0  0  0  0
 13 14  1  0  0  0  0
 14 15  1  0  0  0  0
 14 16  1  0  0  0  0
 16 17  2  0  0  0  0
 16 24  1  0  0  0  0
 17 25  1  0  0  0  0
M  END
$$$$
