D27
 OpenBabel04121316103D

 41 42  0  0  0  0  0  0  0  0999 V2000
    0.9380    0.0766    0.1015 C   0  0  0  0  0  0  0  0  0  0  0  0
    2.3603    0.0475    0.2650 O   0  0  0  0  0  0  0  0  0  0  0  0
    2.9886    1.1461   -0.2598 C   0  0  0  0  0  0  0  0  0  0  0  0
    2.6082    2.3853    0.2221 C   0  0  0  0  0  0  0  0  0  0  0  0
    3.0622    3.5691   -0.3568 C   0  0  0  0  0  0  0  0  0  0  0  0
    2.3567    4.8229   -0.0909 C   0  0  0  0  0  0  0  0  0  0  0  0
    1.2450    4.8576    0.6629 C   0  0  0  0  0  0  0  0  0  0  0  0
    0.4545    6.0855    0.7062 C   0  0  0  0  0  0  0  0  0  0  0  0
    0.5414    6.9435   -0.1657 O   0  0  0  0  0  0  0  0  0  0  0  0
   -0.2358    6.2071    1.8997 N   0  0  0  0  0  0  0  0  0  0  0  0
   -0.7708    7.4576    2.2712 C   0  0  0  0  0  0  0  0  0  0  0  0
   -2.1111    7.4922    2.6986 C   0  0  0  0  0  0  0  0  0  0  0  0
   -2.7739    8.7179    2.8076 C   0  0  0  0  0  0  0  0  0  0  0  0
   -2.0673    9.9044    2.6505 C   0  0  0  0  0  0  0  0  0  0  0  0
   -0.6957    9.8658    2.4083 C   0  0  0  0  0  0  0  0  0  0  0  0
   -0.0306    8.6547    2.1666 C   0  0  0  0  0  0  0  0  0  0  0  0
    1.4374    8.8000    1.8586 C   0  0  0  0  0  0  0  0  0  0  0  0
    1.9198    9.8781    1.5430 O   0  0  0  0  0  0  0  0  0  0  0  0
    2.2360    7.7308    2.0685 O   0  0  0  0  0  0  0  0  0  0  0  0
    4.1000    3.5018   -1.2845 C   0  0  0  0  0  0  0  0  0  0  0  0
    4.6258    2.2537   -1.6415 C   0  0  0  0  0  0  0  0  0  0  0  0
    4.0303    1.0643   -1.1852 C   0  0  0  0  0  0  0  0  0  0  0  0
    4.5468   -0.0806   -1.7335 O   0  0  0  0  0  0  0  0  0  0  0  0
    3.8905   -1.2924   -1.3757 C   0  0  0  0  0  0  0  0  0  0  0  0
    0.5578   -0.9069    0.3907 H   0  0  0  0  0  0  0  0  0  0  0  0
    0.6483    0.2613   -0.9400 H   0  0  0  0  0  0  0  0  0  0  0  0
    0.4714    0.8128    0.7637 H   0  0  0  0  0  0  0  0  0  0  0  0
    1.9113    2.3907    1.0474 H   0  0  0  0  0  0  0  0  0  0  0  0
    2.6979    5.7081   -0.6295 H   0  0  0  0  0  0  0  0  0  0  0  0
    0.8740    4.0305    1.2461 H   0  0  0  0  0  0  0  0  0  0  0  0
   -0.6230    5.3680    2.3221 H   0  0  0  0  0  0  0  0  0  0  0  0
   -2.6863    6.5837    2.8641 H   0  0  0  0  0  0  0  0  0  0  0  0
   -3.8455    8.7558    2.9955 H   0  0  0  0  0  0  0  0  0  0  0  0
   -2.5721   10.8645    2.7231 H   0  0  0  0  0  0  0  0  0  0  0  0
   -0.1356   10.7988    2.3908 H   0  0  0  0  0  0  0  0  0  0  0  0
    1.7652    6.9069    2.2646 H   0  0  0  0  0  0  0  0  0  0  0  0
    4.4924    4.4039   -1.7518 H   0  0  0  0  0  0  0  0  0  0  0  0
    5.4845    2.2121   -2.3086 H   0  0  0  0  0  0  0  0  0  0  0  0
    4.3621   -2.1184   -1.9099 H   0  0  0  0  0  0  0  0  0  0  0  0
    2.8362   -1.2770   -1.6791 H   0  0  0  0  0  0  0  0  0  0  0  0
    4.0079   -1.4936   -0.3051 H   0  0  0  0  0  0  0  0  0  0  0  0
  1  2  1  0  0  0  0
  1 25  1  0  0  0  0
  1 26  1  0  0  0  0
  1 27  1  0  0  0  0
  2  3  1  0  0  0  0
  3  4  2  0  0  0  0
  3 22  1  0  0  0  0
  4  5  1  0  0  0  0
  4 28  1  0  0  0  0
  5  6  1  0  0  0  0
  5 20  2  0  0  0  0
  6  7  2  0  0  0  0
  6 29  1  0  0  0  0
  7  8  1  0  0  0  0
  7 30  1  0  0  0  0
  8  9  2  0  0  0  0
  8 10  1  0  0  0  0
 10 11  1  0  0  0  0
 10 31  1  0  0  0  0
 11 12  2  0  0  0  0
 11 16  1  0  0  0  0
 12 13  1  0  0  0  0
 12 32  1  0  0  0  0
 13 14  2  0  0  0  0
 13 33  1  0  0  0  0
 14 15  1  0  0  0  0
 14 34  1  0  0  0  0
 15 16  2  0  0  0  0
 15 35  1  0  0  0  0
 16 17  1  0  0  0  0
 17 18  2  0  0  0  0
 17 19  1  0  0  0  0
 19 36  1  0  0  0  0
 20 21  1  0  0  0  0
 20 37  1  0  0  0  0
 21 22  2  0  0  0  0
 21 38  1  0  0  0  0
 22 23  1  0  0  0  0
 23 24  1  0  0  0  0
 24 39  1  0  0  0  0
 24 40  1  0  0  0  0
 24 41  1  0  0  0  0
M  END
$$$$
