D28
 OpenBabel04121316103D

 37 39  0  0  0  0  0  0  0  0999 V2000
    0.9084    0.1084   -0.1338 O   0  0  0  0  0  0  0  0  0  0  0  0
    2.2344   -0.1070   -0.1288 C   0  0  0  0  0  0  0  0  0  0  0  0
    2.7529   -1.0170   -0.7590 O   0  0  0  0  0  0  0  0  0  0  0  0
    2.9046    0.9916    0.5680 C   0  0  0  0  0  0  0  0  0  0  0  0
    2.3692    2.2896    0.4658 C   0  0  0  0  0  0  0  0  0  0  0  0
    3.0839    3.3913    0.9265 C   0  0  0  0  0  0  0  0  0  0  0  0
    4.2803    3.1976    1.6089 C   0  0  0  0  0  0  0  0  0  0  0  0
    4.6985    1.8730    1.8396 C   0  0  0  0  0  0  0  0  0  0  0  0
    4.0868    0.7839    1.2501 C   0  0  0  0  0  0  0  0  0  0  0  0
    4.6594   -0.4472    1.3832 O   0  0  0  0  0  0  0  0  0  0  0  0
    5.0002    4.3158    2.0598 N   0  0  0  0  0  0  0  0  0  0  0  0
    6.1893    4.2609    2.6939 C   0  0  0  0  0  0  0  0  0  0  0  0
    7.0428    5.6902    3.1018 S   0  0  0  0  0  0  0  0  0  0  0  0
    8.2519    4.7291    3.8503 C   0  0  0  0  0  0  0  0  0  0  0  0
    7.9423    3.3899    3.7461 C   0  0  0  0  0  0  0  0  0  0  0  0
    6.7906    3.1565    3.0619 N   0  0  0  0  0  0  0  0  0  0  0  0
    8.7316    2.2736    4.2513 C   0  0  0  0  0  0  0  0  0  0  0  0
   10.0091    2.4952    4.7685 C   0  0  0  0  0  0  0  0  0  0  0  0
   10.7841    1.4339    5.2213 C   0  0  0  0  0  0  0  0  0  0  0  0
   10.3426    0.1319    5.0357 C   0  0  0  0  0  0  0  0  0  0  0  0
    9.0807   -0.1352    4.5076 C   0  0  0  0  0  0  0  0  0  0  0  0
    8.2463    0.9494    4.1905 C   0  0  0  0  0  0  0  0  0  0  0  0
    8.6481   -1.5450    4.2416 C   0  0  0  0  0  0  0  0  0  0  0  0
   11.1686   -0.8739    5.3532 F   0  0  0  0  0  0  0  0  0  0  0  0
    0.5751   -0.4594   -0.8545 H   0  0  0  0  0  0  0  0  0  0  0  0
    1.4039    2.4495   -0.0051 H   0  0  0  0  0  0  0  0  0  0  0  0
    2.6967    4.3904    0.7462 H   0  0  0  0  0  0  0  0  0  0  0  0
    5.5270    1.6476    2.4911 H   0  0  0  0  0  0  0  0  0  0  0  0
    5.5529   -0.3481    1.7584 H   0  0  0  0  0  0  0  0  0  0  0  0
    4.6648    5.2199    1.7554 H   0  0  0  0  0  0  0  0  0  0  0  0
    9.0978    5.2020    4.3165 H   0  0  0  0  0  0  0  0  0  0  0  0
   10.4263    3.4945    4.8147 H   0  0  0  0  0  0  0  0  0  0  0  0
   11.7439    1.6200    5.6880 H   0  0  0  0  0  0  0  0  0  0  0  0
    7.2240    0.7513    3.8713 H   0  0  0  0  0  0  0  0  0  0  0  0
    9.4406   -2.2610    4.4857 H   0  0  0  0  0  0  0  0  0  0  0  0
    8.4210   -1.6680    3.1766 H   0  0  0  0  0  0  0  0  0  0  0  0
    7.7655   -1.7992    4.8341 H   0  0  0  0  0  0  0  0  0  0  0  0
  1  2  1  0  0  0  0
  1 25  1  0  0  0  0
  2  3  2  0  0  0  0
  2  4  1  0  0  0  0
  4  5  2  0  0  0  0
  4  9  1  0  0  0  0
  5  6  1  0  0  0  0
  5 26  1  0  0  0  0
  6  7  2  0  0  0  0
  6 27  1  0  0  0  0
  7  8  1  0  0  0  0
  7 11  1  0  0  0  0
  8  9  2  0  0  0  0
  8 28  1  0  0  0  0
  9 10  1  0  0  0  0
 10 29  1  0  0  0  0
 11 12  1  0  0  0  0
 11 30  1  0  0  0  0
 12 13  1  0  0  0  0
 12 16  2  0  0  0  0
 13 14  1  0  0  0  0
 14 15  2  0  0  0  0
 14 31  1  0  0  0  0
 15 16  1  0  0  0  0
 15 17  1  0  0  0  0
 17 18  2  0  0  0  0
 17 22  1  0  0  0  0
 18 19  1  0  0  0  0
 18 32  1  0  0  0  0
 19 20  2  0  0  0  0
 19 33  1  0  0  0  0
 20 21  1  0  0  0  0
 20 24  1  0  0  0  0
 21 22  2  0  0  0  0
 21 23  1  0  0  0  0
 22 34  1  0  0  0  0
 23 35  1  0  0  0  0
 23 36  1  0  0  0  0
 23 37  1  0  0  0  0
M  END
$$$$
