D2H
 OpenBabel04121316103D

 47 49  0  0  1  0  0  0  0  0999 V2000
    1.3562   -3.1892   -0.9899 C   0  0  0  0  0  0  0  0  0  0  0  0
    2.5536   -2.5779   -0.3522 C   0  0  0  0  0  0  0  0  0  0  0  0
    2.9034   -1.1751   -0.9277 C   0  0  2  0  0  0  0  0  0  0  0  0
    2.3755   -0.4272   -0.3183 H   0  0  0  0  0  0  0  0  0  0  0  0
    2.5084   -0.8788   -2.4421 C   0  0  0  0  0  0  0  0  0  0  0  0
    3.3575   -0.6320   -3.4767 C   0  0  0  0  0  0  0  0  0  0  0  0
    4.7804   -0.6373   -3.4167 C   0  0  0  0  0  0  0  0  0  0  0  0
    5.6191    0.4329   -3.1818 C   0  0  0  0  0  0  0  0  0  0  0  0
    6.8748   -0.0155   -2.8769 O   0  0  0  0  0  0  0  0  0  0  0  0
    6.8333   -1.3827   -2.9281 C   0  0  0  0  0  0  0  0  0  0  0  0
    5.5780   -1.8030   -3.3045 C   0  0  0  0  0  0  0  0  0  0  0  0
    5.3195   -3.1715   -3.2709 C   0  0  0  0  0  0  0  0  0  0  0  0
    4.0651   -3.7054   -3.5165 N   0  0  0  0  0  0  0  0  0  0  0  0
    6.3207   -3.9911   -2.8926 N   0  0  0  0  0  0  0  0  0  0  0  0
    7.5125   -3.4604   -2.5733 C   0  0  0  0  0  0  0  0  0  0  0  0
    7.8605   -2.1743   -2.5614 N   0  0  0  0  0  0  0  0  0  0  0  0
    8.4847   -4.3731   -2.2019 N   0  0  0  0  0  0  0  0  0  0  0  0
    1.0422   -0.6447   -2.7860 C   0  0  0  0  0  0  0  0  0  0  0  0
    0.2112   -1.7351   -3.1873 C   0  0  0  0  0  0  0  0  0  0  0  0
   -1.1645   -1.6406   -3.4114 C   0  0  0  0  0  0  0  0  0  0  0  0
   -1.7503   -0.3985   -3.3907 C   0  0  0  0  0  0  0  0  0  0  0  0
   -0.9598    0.7135   -3.0840 C   0  0  0  0  0  0  0  0  0  0  0  0
    0.4252    0.6192   -2.7890 C   0  0  0  0  0  0  0  0  0  0  0  0
    0.9779    1.8556   -2.5559 O   0  0  0  0  0  0  0  0  0  0  0  0
    2.3810    1.9841   -2.4046 C   0  0  0  0  0  0  0  0  0  0  0  0
    4.3913   -1.0279   -0.5437 C   0  0  0  0  0  0  0  0  0  0  0  0
    1.0549   -4.1694   -0.6347 H   0  0  0  0  0  0  0  0  0  0  0  0
    1.6721   -3.3604   -2.0152 H   0  0  0  0  0  0  0  0  0  0  0  0
    0.5102   -2.5069   -0.8745 H   0  0  0  0  0  0  0  0  0  0  0  0
    3.3852   -3.2768   -0.5079 H   0  0  0  0  0  0  0  0  0  0  0  0
    2.3949   -2.5065    0.7297 H   0  0  0  0  0  0  0  0  0  0  0  0
    2.9420   -0.3723   -4.4518 H   0  0  0  0  0  0  0  0  0  0  0  0
    5.4750    1.5004   -3.0514 H   0  0  0  0  0  0  0  0  0  0  0  0
    3.2870   -3.0591   -3.4697 H   0  0  0  0  0  0  0  0  0  0  0  0
    3.9065   -4.6272   -3.1375 H   0  0  0  0  0  0  0  0  0  0  0  0
    8.2689   -5.3231   -2.4530 H   0  0  0  0  0  0  0  0  0  0  0  0
    9.4256   -4.0218   -2.2331 H   0  0  0  0  0  0  0  0  0  0  0  0
    0.5735   -2.7491   -3.2981 H   0  0  0  0  0  0  0  0  0  0  0  0
   -1.7496   -2.5410   -3.5970 H   0  0  0  0  0  0  0  0  0  0  0  0
   -2.8055   -0.2982   -3.6297 H   0  0  0  0  0  0  0  0  0  0  0  0
   -1.4392    1.6893   -3.0697 H   0  0  0  0  0  0  0  0  0  0  0  0
    2.6529    3.0352   -2.2989 H   0  0  0  0  0  0  0  0  0  0  0  0
    2.9001    1.6639   -3.3072 H   0  0  0  0  0  0  0  0  0  0  0  0
    2.7252    1.4842   -1.4968 H   0  0  0  0  0  0  0  0  0  0  0  0
    4.8013   -0.0516   -0.7988 H   0  0  0  0  0  0  0  0  0  0  0  0
    4.9600   -1.8241   -1.0192 H   0  0  0  0  0  0  0  0  0  0  0  0
    4.5926   -1.1958    0.5179 H   0  0  0  0  0  0  0  0  0  0  0  0
  1  2  1  0  0  0  0
  1 27  1  0  0  0  0
  1 28  1  0  0  0  0
  1 29  1  0  0  0  0
  2 30  1  0  0  0  0
  2 31  1  0  0  0  0
  3  5  1  0  0  0  0
  3 26  1  0  0  0  0
  3  4  1  1  0  0  0
  3  2  1  0  0  0  0
  5  6  2  0  0  0  0
  5 18  1  0  0  0  0
  6  7  1  0  0  0  0
  6 32  1  0  0  0  0
  7  8  2  0  0  0  0
  7 11  1  0  0  0  0
  8  9  1  0  0  0  0
  8 33  1  0  0  0  0
  9 10  1  0  0  0  0
 10 11  2  0  0  0  0
 10 16  1  0  0  0  0
 11 12  1  0  0  0  0
 12 13  1  0  0  0  0
 12 14  2  0  0  0  0
 13 34  1  0  0  0  0
 13 35  1  0  0  0  0
 14 15  1  0  0  0  0
 15 16  2  0  0  0  0
 15 17  1  0  0  0  0
 17 36  1  0  0  0  0
 17 37  1  0  0  0  0
 18 19  2  0  0  0  0
 18 23  1  0  0  0  0
 19 20  1  0  0  0  0
 19 38  1  0  0  0  0
 20 21  2  0  0  0  0
 20 39  1  0  0  0  0
 21 22  1  0  0  0  0
 21 40  1  0  0  0  0
 22 23  2  0  0  0  0
 22 41  1  0  0  0  0
 23 24  1  0  0  0  0
 24 25  1  0  0  0  0
 25 42  1  0  0  0  0
 25 43  1  0  0  0  0
 25 44  1  0  0  0  0
 26 45  1  0  0  0  0
 26 46  1  0  0  0  0
 26 47  1  0  0  0  0
M  END
$$$$
