D2Q
 OpenBabel04121316103D

 61 63  0  0  0  0  0  0  0  0999 V2000
    0.9175   -0.1583   -0.1271 C   0  0  0  0  0  0  0  0  0  0  0  0
    2.4216   -0.3005   -0.2717 C   0  0  0  0  0  0  0  0  0  0  0  0
    2.8955    1.0248   -0.5629 O   0  0  0  0  0  0  0  0  0  0  0  0
    4.2098    1.1152   -0.8727 C   0  0  0  0  0  0  0  0  0  0  0  0
    4.9161    0.1393   -1.0923 O   0  0  0  0  0  0  0  0  0  0  0  0
    4.7124    2.5546   -0.7428 C   0  0  0  0  0  0  0  0  0  0  0  0
    6.1934    2.6102   -0.7948 C   0  0  0  0  0  0  0  0  0  0  0  0
    6.9935    3.7948   -0.1984 C   0  0  0  0  0  0  0  0  0  0  0  0
    8.2542    4.2472    1.3767 C   0  0  0  0  0  0  0  0  0  0  0  0
    8.9476    5.5815    1.6933 O   0  0  0  0  0  0  0  0  0  0  0  0
   10.2580    5.8595    1.3053 C   0  0  0  0  0  0  0  0  0  0  0  0
   10.6315    7.1956    1.0796 C   0  0  0  0  0  0  0  0  0  0  0  0
   11.9315    7.4932    0.6333 C   0  0  0  0  0  0  0  0  0  0  0  0
   12.8748    6.4740    0.5346 C   0  0  0  0  0  0  0  0  0  0  0  0
   12.4798    5.1720    0.7278 C   0  0  0  0  0  0  0  0  0  0  0  0
   11.1504    4.8901    0.8734 C   0  0  0  0  0  0  0  0  0  0  0  0
   10.7715    3.5586    0.4006 C   0  0  0  0  0  0  0  0  0  0  0  0
    9.3927    3.6493   -0.2647 C   0  0  0  0  0  0  0  0  0  0  0  0
    8.3785    5.2574   -0.3438 C   0  0  0  0  0  0  0  0  0  0  0  0
    6.7866    5.4942    0.6418 N   0  0  0  0  0  0  0  0  0  0  0  0
    5.8481    4.0169    1.5179 C   0  0  0  0  0  0  0  0  0  0  0  0
    6.8478    2.4082    1.5212 C   0  0  0  0  0  0  0  0  0  0  0  0
    8.5315    2.2389    0.6462 C   0  0  0  0  0  0  0  0  0  0  0  0
    9.4132    1.0124    0.5908 C   0  0  0  0  0  0  0  0  0  0  0  0
    6.0274    1.1109    1.7163 C   0  0  0  0  0  0  0  0  0  0  0  0
    6.5975   -0.1353    0.9200 N   0  0  0  0  0  0  0  0  0  0  0  0
    4.5497    1.2311    1.8676 N   0  0  0  0  0  0  0  0  0  0  0  0
    3.7821    2.5404    1.9009 C   0  0  0  0  0  0  0  0  0  0  0  0
    4.4290    3.8577    1.8333 N   0  0  0  0  0  0  0  0  0  0  0  0
    2.3819    2.5300    1.3077 N   0  0  0  0  0  0  0  0  0  0  0  0
   14.1619    6.8080    0.2391 O   0  0  0  0  0  0  0  0  0  0  0  0
   15.0354    5.6808    0.1567 C   0  0  0  0  0  0  0  0  0  0  0  0
    0.4405   -1.1310   -0.2199 H   0  0  0  0  0  0  0  0  0  0  0  0
    0.5440    0.5338   -0.8894 H   0  0  0  0  0  0  0  0  0  0  0  0
    0.6211    0.2776    0.8384 H   0  0  0  0  0  0  0  0  0  0  0  0
    2.6865   -0.9165   -1.1276 H   0  0  0  0  0  0  0  0  0  0  0  0
    2.8510   -0.7045    0.6614 H   0  0  0  0  0  0  0  0  0  0  0  0
    4.7061    2.6717    0.2865 H   0  0  0  0  0  0  0  0  0  0  0  0
    4.1199    3.4073   -1.0316 H   0  0  0  0  0  0  0  0  0  0  0  0
    6.7128    2.0560   -1.5359 H   0  0  0  0  0  0  0  0  0  0  0  0
    6.2525    1.8206   -0.1381 H   0  0  0  0  0  0  0  0  0  0  0  0
    7.3406    4.0623    1.2073 H   0  0  0  0  0  0  0  0  0  0  0  0
    6.4883    4.5946   -0.8570 H   0  0  0  0  0  0  0  0  0  0  0  0
    7.9029    3.6630    0.0748 H   0  0  0  0  0  0  0  0  0  0  0  0
    8.6868    3.5419    2.1399 H   0  0  0  0  0  0  0  0  0  0  0  0
    9.9012    8.0001    1.1618 H   0  0  0  0  0  0  0  0  0  0  0  0
   12.2375    8.5163    0.4333 H   0  0  0  0  0  0  0  0  0  0  0  0
   13.1433    4.3162    0.7222 H   0  0  0  0  0  0  0  0  0  0  0  0
   10.8426    2.9280    1.3095 H   0  0  0  0  0  0  0  0  0  0  0  0
   11.3604    3.0555   -0.3682 H   0  0  0  0  0  0  0  0  0  0  0  0
    8.9283    6.1799   -0.6266 H   0  0  0  0  0  0  0  0  0  0  0  0
    8.9038    0.0944    0.4985 H   0  0  0  0  0  0  0  0  0  0  0  0
   10.0167    0.9185    1.4926 H   0  0  0  0  0  0  0  0  0  0  0  0
   10.0077    0.9745   -0.3380 H   0  0  0  0  0  0  0  0  0  0  0  0
    7.5300   -0.5194    0.7869 H   0  0  0  0  0  0  0  0  0  0  0  0
    6.0006   -0.9166    0.6406 H   0  0  0  0  0  0  0  0  0  0  0  0
    2.1944    1.6749    0.7697 H   0  0  0  0  0  0  0  0  0  0  0  0
    2.2092    3.2486    0.5838 H   0  0  0  0  0  0  0  0  0  0  0  0
   16.0315    6.0506   -0.0681 H   0  0  0  0  0  0  0  0  0  0  0  0
   14.7284    4.9988   -0.6497 H   0  0  0  0  0  0  0  0  0  0  0  0
   15.0786    5.1435    1.1148 H   0  0  0  0  0  0  0  0  0  0  0  0
  1  2  1  0  0  0  0
  1 33  1  0  0  0  0
  1 34  1  0  0  0  0
  1 35  1  0  0  0  0
  2  3  1  0  0  0  0
  2 36  1  0  0  0  0
  2 37  1  0  0  0  0
  3  4  1  0  0  0  0
  4  5  2  0  0  0  0
  4  6  1  0  0  0  0
  6  7  1  0  0  0  0
  6 38  1  0  0  0  0
  6 39  1  0  0  0  0
  7  8  1  0  0  0  0
  7 40  1  0  0  0  0
  7 41  1  0  0  0  0
  8  9  1  0  0  0  0
  8 42  1  0  0  0  0
  8 43  1  0  0  0  0
  9 10  1  0  0  0  0
  9 44  1  0  0  0  0
  9 45  1  0  0  0  0
 10 11  1  0  0  0  0
 11 12  2  0  0  0  0
 11 16  1  0  0  0  0
 12 13  1  0  0  0  0
 12 46  1  0  0  0  0
 13 14  2  0  0  0  0
 13 47  1  0  0  0  0
 14 15  1  0  0  0  0
 14 31  1  0  0  0  0
 15 16  2  0  0  0  0
 15 48  1  0  0  0  0
 16 17  1  0  0  0  0
 17 18  1  0  0  0  0
 17 49  1  0  0  0  0
 17 50  1  0  0  0  0
 18 19  2  0  0  0  0
 18 23  1  0  0  0  0
 19 20  1  0  0  0  0
 19 51  1  0  0  0  0
 20 21  2  0  0  0  0
 21 22  1  0  0  0  0
 21 29  1  0  0  0  0
 22 23  2  0  0  0  0
 22 25  1  0  0  0  0
 23 24  1  0  0  0  0
 24 52  1  0  0  0  0
 24 53  1  0  0  0  0
 24 54  1  0  0  0  0
 25 26  1  0  0  0  0
 25 27  2  0  0  0  0
 26 55  1  0  0  0  0
 26 56  1  0  0  0  0
 27 28  1  0  0  0  0
 28 29  2  0  0  0  0
 28 30  1  0  0  0  0
 30 57  1  0  0  0  0
 30 58  1  0  0  0  0
 31 32  1  0  0  0  0
 32 59  1  0  0  0  0
 32 60  1  0  0  0  0
 32 61  1  0  0  0  0
M  END
$$$$
