D2X
 OpenBabel04121316103D

 44 45  0  0  0  0  0  0  0  0999 V2000
    4.2583    0.5579   -0.0674 C   0  0  0  0  0  0  0  0  0  0  0  0
    4.2914    0.2457   -1.5302 C   0  0  0  0  0  0  0  0  0  0  0  0
    4.5877    1.1180   -2.5016 N   0  0  0  0  0  0  0  0  0  0  0  0
    4.6397    0.6651   -3.8131 C   0  0  0  0  0  0  0  0  0  0  0  0
    4.4526   -0.6623   -4.1472 C   0  0  0  0  0  0  0  0  0  0  0  0
    3.7588   -1.1527   -3.1380 C   0  0  0  0  0  0  0  0  0  0  0  0
    3.8257   -0.9595   -1.8257 N   0  0  0  0  0  0  0  0  0  0  0  0
    2.5738   -1.7432   -3.5071 O   0  0  0  0  0  0  0  0  0  0  0  0
    4.4386   -1.4226   -5.4543 C   0  0  0  0  0  0  0  0  0  0  0  0
    4.3253   -3.0696   -5.3822 N   0  3  0  0  0  0  0  0  0  0  0  0
    4.1419   -3.6536   -6.5800 C   0  0  0  0  0  0  0  0  0  0  0  0
    3.8374   -5.3354   -6.4721 S   0  0  0  0  0  0  0  0  0  0  0  0
    3.9198   -5.3302   -4.7596 C   0  0  0  0  0  0  0  0  0  0  0  0
    4.2545   -4.0528   -4.2774 C   0  0  0  0  0  0  0  0  0  0  0  0
    4.2869   -3.6958   -2.7750 C   0  0  0  0  0  0  0  0  0  0  0  0
    3.6265   -6.6488   -4.0040 C   0  0  0  0  0  0  0  0  0  0  0  0
    3.5733   -6.3889   -2.5165 C   0  0  0  0  0  0  0  0  0  0  0  0
    3.4276   -7.3364   -1.4789 O   0  0  0  0  0  0  0  0  0  0  0  0
    3.4994   -6.4687   -0.0382 P   0  0  2  0  0  0  0  0  0  0  0  0
    5.0378   -6.3343   -0.0477 O   0  0  0  0  0  0  0  0  0  0  0  0
    3.6119   -7.6676    1.2040 O   0  0  0  0  0  0  0  0  0  0  0  0
    5.2742   -7.9252    1.6079 P   0  0  0  0  0  0  0  0  0  0  0  0
    4.9534   -9.2999    2.2061 O   0  0  0  0  0  0  0  0  0  0  0  0
    5.7073   -8.3939    0.0731 O   0  0  0  0  0  0  0  0  0  0  0  0
    6.9365   -8.1828    2.0119 O   0  0  0  0  0  0  0  0  0  0  0  0
    1.7760   -6.6193   -0.0275 O   0  0  0  0  0  0  0  0  0  0  0  0
    4.3571    1.6300    0.0879 H   0  0  0  0  0  0  0  0  0  0  0  0
    5.0571    0.0241    0.4611 H   0  0  0  0  0  0  0  0  0  0  0  0
    3.3098    0.2207    0.3771 H   0  0  0  0  0  0  0  0  0  0  0  0
    4.6694    1.4623   -4.5450 H   0  0  0  0  0  0  0  0  0  0  0  0
    2.8857   -2.4774   -4.0258 H   0  0  0  0  0  0  0  0  0  0  0  0
    5.3110   -1.2087   -6.0850 H   0  0  0  0  0  0  0  0  0  0  0  0
    3.5405   -1.1082   -6.0189 H   0  0  0  0  0  0  0  0  0  0  0  0
    4.1344   -3.1618   -7.5501 H   0  0  0  0  0  0  0  0  0  0  0  0
    4.3221   -4.3904   -1.9415 H   0  0  0  0  0  0  0  0  0  0  0  0
    3.2923   -3.3651   -2.4454 H   0  0  0  0  0  0  0  0  0  0  0  0
    5.1515   -3.0937   -2.5250 H   0  0  0  0  0  0  0  0  0  0  0  0
    4.4415   -7.3463   -4.2128 H   0  0  0  0  0  0  0  0  0  0  0  0
    2.6757   -7.0819   -4.3245 H   0  0  0  0  0  0  0  0  0  0  0  0
    2.7788   -5.6435   -2.3577 H   0  0  0  0  0  0  0  0  0  0  0  0
    4.5857   -6.0223   -2.3406 H   0  0  0  0  0  0  0  0  0  0  0  0
    5.8229   -7.5497   -0.4268 H   0  0  0  0  0  0  0  0  0  0  0  0
    6.9326   -9.0445    2.4794 H   0  0  0  0  0  0  0  0  0  0  0  0
    1.4160   -6.4461    0.8638 H   0  0  0  0  0  0  0  0  0  0  0  0
  1  2  1  0  0  0  0
  1 27  1  0  0  0  0
  1 28  1  0  0  0  0
  1 29  1  0  0  0  0
  2  3  2  0  0  0  0
  2  7  1  0  0  0  0
  3  4  1  0  0  0  0
  4  5  2  0  0  0  0
  4 30  1  0  0  0  0
  5  6  1  0  0  0  0
  5  9  1  0  0  0  0
  6  7  2  0  0  0  0
  6  8  1  0  0  0  0
  8 31  1  0  0  0  0
  9 10  1  0  0  0  0
  9 32  1  0  0  0  0
  9 33  1  0  0  0  0
 10 11  2  0  0  0  0
 10 14  1  0  0  0  0
 11 12  1  0  0  0  0
 11 34  1  0  0  0  0
 12 13  1  0  0  0  0
 13 14  2  0  0  0  0
 13 16  1  0  0  0  0
 14 15  1  0  0  0  0
 15 35  1  0  0  0  0
 15 36  1  0  0  0  0
 15 37  1  0  0  0  0
 16 17  1  0  0  0  0
 16 38  1  0  0  0  0
 16 39  1  0  0  0  0
 17 18  1  0  0  0  0
 17 40  1  0  0  0  0
 17 41  1  0  0  0  0
 19 21  1  1  0  0  0
 19 26  1  0  0  0  0
 19 20  2  0  0  0  0
 19 18  1  0  0  0  0
 21 22  1  0  0  0  0
 22 23  2  0  0  0  0
 22 24  1  0  0  0  0
 22 25  1  0  0  0  0
 24 42  1  0  0  0  0
 25 43  1  0  0  0  0
 26 44  1  0  0  0  0
M  CHG  1  10   1
M  END
$$$$
