D31
 OpenBabel04121316103D

 62 66  0  0  0  0  0  0  0  0999 V2000
    0.6102   -0.0914    0.1898 N   0  0  0  0  0  0  0  0  0  0  0  0
    2.0334    0.0617    0.1985 C   0  0  0  0  0  0  0  0  0  0  0  0
    3.0334   -1.1282    0.1902 C   0  0  0  0  0  0  0  0  0  0  0  0
    2.9335   -2.5760   -0.3873 C   0  0  0  0  0  0  0  0  0  0  0  0
    2.6641   -2.6700   -1.8831 C   0  0  0  0  0  0  0  0  0  0  0  0
    3.5802   -1.8248   -2.6528 N   0  0  0  0  0  0  0  0  0  0  0  0
    3.5628   -0.4619   -2.1101 C   0  0  0  0  0  0  0  0  0  0  0  0
    4.1089   -0.4344   -0.6497 C   0  0  0  0  0  0  0  0  0  0  0  0
    4.9658   -2.3236   -2.7045 C   0  0  0  0  0  0  0  0  0  0  0  0
    5.7788   -1.3859   -3.6012 C   0  0  0  0  0  0  0  0  0  0  0  0
    5.2573   -0.5575   -4.3522 O   0  0  0  0  0  0  0  0  0  0  0  0
    7.1545   -1.5203   -3.4917 N   0  0  0  0  0  0  0  0  0  0  0  0
    7.9339   -0.6571   -4.2889 C   0  0  0  0  0  0  0  0  0  0  0  0
    7.6916    0.7232   -4.2355 C   0  0  0  0  0  0  0  0  0  0  0  0
    8.3500    1.6148   -5.0935 C   0  0  0  0  0  0  0  0  0  0  0  0
    9.2867    1.1547   -6.0247 C   0  0  0  0  0  0  0  0  0  0  0  0
    9.5041   -0.2075   -6.0976 C   0  0  0  0  0  0  0  0  0  0  0  0
    8.8412   -1.1062   -5.2283 C   0  0  0  0  0  0  0  0  0  0  0  0
    9.1325   -2.5001   -5.6662 C   0  0  0  0  0  0  0  0  0  0  0  0
    8.6938   -3.5053   -5.1056 O   0  0  0  0  0  0  0  0  0  0  0  0
   10.0084   -2.3668   -6.8200 C   0  0  0  0  0  0  0  0  0  0  0  0
   10.2487   -0.9963   -7.0409 C   0  0  0  0  0  0  0  0  0  0  0  0
   11.2104   -0.7579   -7.9211 N   0  0  0  0  0  0  0  0  0  0  0  0
   11.5733   -2.0104   -8.3105 N   0  0  0  0  0  0  0  0  0  0  0  0
   12.4249   -2.1082   -8.8538 H   0  0  0  0  0  0  0  0  0  0  0  0
   10.9604   -3.0318   -7.5903 C   0  0  0  0  0  0  0  0  0  0  0  0
   11.7688   -4.3095   -7.3645 C   0  0  0  0  0  0  0  0  0  0  0  0
   12.3893   -3.8108   -6.0270 C   0  0  0  0  0  0  0  0  0  0  0  0
   11.7532   -4.3960   -4.7886 C   0  0  0  0  0  0  0  0  0  0  0  0
   12.1001   -5.8490   -4.7126 C   0  0  0  0  0  0  0  0  0  0  0  0
   11.5038   -6.5319   -5.9385 C   0  0  0  0  0  0  0  0  0  0  0  0
   11.9536   -5.8540   -7.2582 C   0  0  0  0  0  0  0  0  0  0  0  0
    0.2495    0.8587    0.0344 H   0  0  0  0  0  0  0  0  0  0  0  0
    0.3060   -0.3412    1.1232 H   0  0  0  0  0  0  0  0  0  0  0  0
    2.3346    0.6696    1.0642 H   0  0  0  0  0  0  0  0  0  0  0  0
    2.2180    0.7915   -0.6040 H   0  0  0  0  0  0  0  0  0  0  0  0
    3.2823   -1.3004    1.2440 H   0  0  0  0  0  0  0  0  0  0  0  0
    2.2505   -3.2295    0.1643 H   0  0  0  0  0  0  0  0  0  0  0  0
    3.9225   -3.0479   -0.2259 H   0  0  0  0  0  0  0  0  0  0  0  0
    1.6230   -2.3733   -2.0608 H   0  0  0  0  0  0  0  0  0  0  0  0
    2.7365   -3.7089   -2.2359 H   0  0  0  0  0  0  0  0  0  0  0  0
    2.5162   -0.1427   -2.2256 H   0  0  0  0  0  0  0  0  0  0  0  0
    4.0836    0.2997   -2.6908 H   0  0  0  0  0  0  0  0  0  0  0  0
    4.2614    0.6055   -0.3307 H   0  0  0  0  0  0  0  0  0  0  0  0
    5.0951   -0.8800   -0.5134 H   0  0  0  0  0  0  0  0  0  0  0  0
    5.0106   -3.3328   -3.1159 H   0  0  0  0  0  0  0  0  0  0  0  0
    5.4392   -2.3644   -1.7184 H   0  0  0  0  0  0  0  0  0  0  0  0
    7.5010   -2.4554   -3.2948 H   0  0  0  0  0  0  0  0  0  0  0  0
    6.9298    1.1140   -3.5596 H   0  0  0  0  0  0  0  0  0  0  0  0
    8.0763    2.6666   -5.0506 H   0  0  0  0  0  0  0  0  0  0  0  0
    9.7681    1.8453   -6.7066 H   0  0  0  0  0  0  0  0  0  0  0  0
   10.7670   -4.6579   -7.7045 H   0  0  0  0  0  0  0  0  0  0  0  0
   12.3481   -2.7210   -5.8874 H   0  0  0  0  0  0  0  0  0  0  0  0
   13.4683   -3.9883   -6.0664 H   0  0  0  0  0  0  0  0  0  0  0  0
   10.6715   -4.3358   -4.8200 H   0  0  0  0  0  0  0  0  0  0  0  0
   12.0744   -3.8313   -3.9119 H   0  0  0  0  0  0  0  0  0  0  0  0
   11.7016   -6.2687   -3.7849 H   0  0  0  0  0  0  0  0  0  0  0  0
   13.1900   -5.9530   -4.6980 H   0  0  0  0  0  0  0  0  0  0  0  0
   10.4074   -6.5243   -5.8786 H   0  0  0  0  0  0  0  0  0  0  0  0
   11.8134   -7.5831   -5.9235 H   0  0  0  0  0  0  0  0  0  0  0  0
   11.5210   -6.4183   -8.0991 H   0  0  0  0  0  0  0  0  0  0  0  0
   13.0311   -6.0531   -7.3511 H   0  0  0  0  0  0  0  0  0  0  0  0
  1  2  1  0  0  0  0
  1 33  1  0  0  0  0
  1 34  1  0  0  0  0
  2  3  1  0  0  0  0
  2 35  1  0  0  0  0
  2 36  1  0  0  0  0
  3  4  1  0  0  0  0
  3  8  1  0  0  0  0
  3 37  1  0  0  0  0
  4  5  1  0  0  0  0
  4 38  1  0  0  0  0
  4 39  1  0  0  0  0
  5  6  1  0  0  0  0
  5 40  1  0  0  0  0
  5 41  1  0  0  0  0
  6  7  1  0  0  0  0
  6  9  1  0  0  0  0
  7  8  1  0  0  0  0
  7 42  1  0  0  0  0
  7 43  1  0  0  0  0
  8 44  1  0  0  0  0
  8 45  1  0  0  0  0
  9 10  1  0  0  0  0
  9 46  1  0  0  0  0
  9 47  1  0  0  0  0
 10 11  2  0  0  0  0
 10 12  1  0  0  0  0
 12 13  1  0  0  0  0
 12 48  1  0  0  0  0
 13 14  2  0  0  0  0
 13 18  1  0  0  0  0
 14 15  1  0  0  0  0
 14 49  1  0  0  0  0
 15 16  2  0  0  0  0
 15 50  1  0  0  0  0
 16 17  1  0  0  0  0
 16 51  1  0  0  0  0
 17 18  2  0  0  0  0
 17 22  1  0  0  0  0
 18 19  1  0  0  0  0
 19 20  2  0  0  0  0
 19 21  1  0  0  0  0
 21 22  1  0  0  0  0
 21 26  2  0  0  0  0
 22 23  2  0  0  0  0
 23 24  1  0  0  0  0
 24 25  1  0  0  0  0
 24 26  1  0  0  0  0
 26 27  1  0  0  0  0
 27 28  1  0  0  0  0
 27 32  1  0  0  0  0
 27 52  1  0  0  0  0
 28 29  1  0  0  0  0
 28 53  1  0  0  0  0
 28 54  1  0  0  0  0
 29 30  1  0  0  0  0
 29 55  1  0  0  0  0
 29 56  1  0  0  0  0
 30 31  1  0  0  0  0
 30 57  1  0  0  0  0
 30 58  1  0  0  0  0
 31 32  1  0  0  0  0
 31 59  1  0  0  0  0
 31 60  1  0  0  0  0
 32 61  1  0  0  0  0
 32 62  1  0  0  0  0
M  END
$$$$
