D32
 OpenBabel04121316103D

 59 61  0  0  0  0  0  0  0  0999 V2000
    1.0649   -0.0403   -0.0645 C   0  0  0  0  0  0  0  0  0  0  0  0
    2.2551   -0.0403   -0.0645 C   0  0  0  0  0  0  0  0  0  0  0  0
    3.6991   -0.0403   -0.0645 C   0  0  0  0  0  0  0  0  0  0  0  0
    4.5552    0.9855   -0.4925 O   0  0  0  0  0  0  0  0  0  0  0  0
    5.7791    0.6279   -1.0343 C   0  0  0  0  0  0  0  0  0  0  0  0
    6.3942    1.8235   -1.4022 C   0  0  0  0  0  0  0  0  0  0  0  0
    7.6145    1.8872   -2.0652 C   0  0  0  0  0  0  0  0  0  0  0  0
    8.2851    0.6916   -2.3009 C   0  0  0  0  0  0  0  0  0  0  0  0
    7.6544   -0.5422   -2.0057 C   0  0  0  0  0  0  0  0  0  0  0  0
    6.3241   -0.6076   -1.4889 C   0  0  0  0  0  0  0  0  0  0  0  0
    5.4698   -2.2970   -1.7379 S   0  0  0  0  0  0  0  0  0  0  0  0
    3.5342   -2.2241   -2.0822 C   0  0  0  0  0  0  0  0  0  0  0  0
    2.8114   -3.2761   -1.4899 C   0  0  0  0  0  0  0  0  0  0  0  0
    1.4508   -3.0778   -1.1244 C   0  0  0  0  0  0  0  0  0  0  0  0
    0.6747   -1.9203   -1.5603 C   0  0  0  0  0  0  0  0  0  0  0  0
    1.3493   -0.8580   -2.3595 C   0  0  0  0  0  0  0  0  0  0  0  0
    2.7875   -1.0670   -2.5811 C   0  0  0  0  0  0  0  0  0  0  0  0
    3.5853    0.1588   -2.8616 C   0  0  0  0  0  0  0  0  0  0  0  0
    0.9764    0.8214   -2.3259 C   0  0  0  0  0  0  0  0  0  0  0  0
   -0.5541   -1.8440   -0.8453 O   0  0  0  0  0  0  0  0  0  0  0  0
   -1.3471   -0.6433   -0.7777 C   0  0  0  0  0  0  0  0  0  0  0  0
   -2.7405   -0.6926   -0.2248 C   0  0  0  0  0  0  0  0  0  0  0  0
   -3.3102   -1.7266    0.1848 O   0  0  0  0  0  0  0  0  0  0  0  0
   -3.3089    0.5364   -0.1034 O   0  0  0  0  0  0  0  0  0  0  0  0
    8.1626    3.2374   -2.4422 C   0  0  0  0  0  0  0  0  0  0  0  0
    7.1958    4.2099   -2.0360 O   0  0  0  0  0  0  0  0  0  0  0  0
    7.4643    5.5028   -2.3144 C   0  0  0  0  0  0  0  0  0  0  0  0
    6.9898    6.4303   -1.3875 C   0  0  0  0  0  0  0  0  0  0  0  0
    7.0579    7.7831   -1.6856 C   0  0  0  0  0  0  0  0  0  0  0  0
    7.6882    8.2026   -2.8661 C   0  0  0  0  0  0  0  0  0  0  0  0
    8.2667    7.2583   -3.7237 C   0  0  0  0  0  0  0  0  0  0  0  0
    8.0857    5.9081   -3.4858 C   0  0  0  0  0  0  0  0  0  0  0  0
    7.6834    9.6556   -3.2386 C   0  0  0  0  0  0  0  0  0  0  0  0
    6.4192   10.1353   -3.3965 F   0  0  0  0  0  0  0  0  0  0  0  0
    8.2743   10.4359   -2.2967 F   0  0  0  0  0  0  0  0  0  0  0  0
    8.3295    9.9120   -4.4091 F   0  0  0  0  0  0  0  0  0  0  0  0
    0.4778   -0.3528    0.7711 H   0  0  0  0  0  0  0  0  0  0  0  0
    4.1631   -1.0079    0.1473 H   0  0  0  0  0  0  0  0  0  0  0  0
    3.7439    0.2713    1.0003 H   0  0  0  0  0  0  0  0  0  0  0  0
    5.8321    2.7387   -1.2059 H   0  0  0  0  0  0  0  0  0  0  0  0
    9.2893    0.7151   -2.7256 H   0  0  0  0  0  0  0  0  0  0  0  0
    8.2288   -1.4498   -2.1931 H   0  0  0  0  0  0  0  0  0  0  0  0
    3.2912   -4.2395   -1.2964 H   0  0  0  0  0  0  0  0  0  0  0  0
    1.0510   -3.7822   -0.3745 H   0  0  0  0  0  0  0  0  0  0  0  0
    3.2986    1.0754   -2.3373 H   0  0  0  0  0  0  0  0  0  0  0  0
    4.1833    0.3304   -3.7362 H   0  0  0  0  0  0  0  0  0  0  0  0
    4.3557   -0.1576   -2.2396 H   0  0  0  0  0  0  0  0  0  0  0  0
   -0.0311    1.0996   -2.0167 H   0  0  0  0  0  0  0  0  0  0  0  0
    1.2967    1.3354   -3.2254 H   0  0  0  0  0  0  0  0  0  0  0  0
    1.5498    1.4356   -1.5711 H   0  0  0  0  0  0  0  0  0  0  0  0
   -1.3741   -0.1854   -1.7543 H   0  0  0  0  0  0  0  0  0  0  0  0
   -1.0056    0.1005   -0.0393 H   0  0  0  0  0  0  0  0  0  0  0  0
   -2.7297    1.2964   -0.3347 H   0  0  0  0  0  0  0  0  0  0  0  0
    8.3280    3.2587   -3.5244 H   0  0  0  0  0  0  0  0  0  0  0  0
    9.0859    3.4176   -1.8857 H   0  0  0  0  0  0  0  0  0  0  0  0
    6.5499    6.0960   -0.4497 H   0  0  0  0  0  0  0  0  0  0  0  0
    6.6076    8.5088   -1.0105 H   0  0  0  0  0  0  0  0  0  0  0  0
    8.8228    7.5655   -4.6060 H   0  0  0  0  0  0  0  0  0  0  0  0
    8.3996    5.1980   -4.2416 H   0  0  0  0  0  0  0  0  0  0  0  0
  1  2  3  0  0  0  0
  1 37  1  0  0  0  0
  2  3  1  0  0  0  0
  3  4  1  0  0  0  0
  3 38  1  0  0  0  0
  3 39  1  0  0  0  0
  4  5  1  0  0  0  0
  5  6  2  0  0  0  0
  5 10  1  0  0  0  0
  6  7  1  0  0  0  0
  6 40  1  0  0  0  0
  7  8  2  0  0  0  0
  7 25  1  0  0  0  0
  8  9  1  0  0  0  0
  8 41  1  0  0  0  0
  9 10  2  0  0  0  0
  9 42  1  0  0  0  0
 10 11  1  0  0  0  0
 11 12  1  0  0  0  0
 12 13  2  0  0  0  0
 12 17  1  0  0  0  0
 13 14  1  0  0  0  0
 13 43  1  0  0  0  0
 14 15  2  0  0  0  0
 14 44  1  0  0  0  0
 15 16  1  0  0  0  0
 15 20  1  0  0  0  0
 16 17  2  0  0  0  0
 16 19  1  0  0  0  0
 17 18  1  0  0  0  0
 18 45  1  0  0  0  0
 18 46  1  0  0  0  0
 18 47  1  0  0  0  0
 19 48  1  0  0  0  0
 19 49  1  0  0  0  0
 19 50  1  0  0  0  0
 20 21  1  0  0  0  0
 21 22  1  0  0  0  0
 21 51  1  0  0  0  0
 21 52  1  0  0  0  0
 22 23  2  0  0  0  0
 22 24  1  0  0  0  0
 24 53  1  0  0  0  0
 25 26  1  0  0  0  0
 25 54  1  0  0  0  0
 25 55  1  0  0  0  0
 26 27  1  0  0  0  0
 27 28  2  0  0  0  0
 27 32  1  0  0  0  0
 28 29  1  0  0  0  0
 28 56  1  0  0  0  0
 29 30  2  0  0  0  0
 29 57  1  0  0  0  0
 30 31  1  0  0  0  0
 30 33  1  0  0  0  0
 31 32  2  0  0  0  0
 31 58  1  0  0  0  0
 32 59  1  0  0  0  0
 33 34  1  0  0  0  0
 33 35  1  0  0  0  0
 33 36  1  0  0  0  0
M  END
$$$$
