D3G
 OpenBabel04121316103D

 23 24  0  0  0  0  0  0  0  0999 V2000
    0.9649   -0.0382   -0.0230 N   0  0  0  0  0  0  0  0  0  0  0  0
    2.4290    0.0406    0.0113 C   0  0  0  0  0  0  0  0  0  0  0  0
    2.8277    1.3701    0.5406 C   0  0  0  0  0  0  0  0  0  0  0  0
    2.4604    2.6257    0.1057 C   0  0  0  0  0  0  0  0  0  0  0  0
    3.0052    3.5299    1.0204 C   0  0  0  0  0  0  0  0  0  0  0  0
    3.7166    2.8024    1.9492 C   0  0  0  0  0  0  0  0  0  0  0  0
    3.6298    1.4627    1.6531 O   0  0  0  0  0  0  0  0  0  0  0  0
    4.4746    3.2504    3.1146 C   0  0  0  0  0  0  0  0  0  0  0  0
    4.4325    4.6174    3.4382 C   0  0  0  0  0  0  0  0  0  0  0  0
    5.1557    5.1260    4.5087 C   0  0  0  0  0  0  0  0  0  0  0  0
    5.9612    4.2537    5.2056 C   0  0  0  0  0  0  0  0  0  0  0  0
    6.0188    2.9244    4.9575 N   0  0  0  0  0  0  0  0  0  0  0  0
    5.2516    2.4490    3.9337 C   0  0  0  0  0  0  0  0  0  0  0  0
    0.6746   -0.8685   -0.5306 H   0  0  0  0  0  0  0  0  0  0  0  0
    0.6022    0.7579   -0.5458 H   0  0  0  0  0  0  0  0  0  0  0  0
    2.8103   -0.0615   -1.0121 H   0  0  0  0  0  0  0  0  0  0  0  0
    2.8330   -0.7824    0.6063 H   0  0  0  0  0  0  0  0  0  0  0  0
    1.8236    2.8439   -0.7361 H   0  0  0  0  0  0  0  0  0  0  0  0
    2.8763    4.6029    1.0110 H   0  0  0  0  0  0  0  0  0  0  0  0
    3.8334    5.3100    2.8576 H   0  0  0  0  0  0  0  0  0  0  0  0
    5.0863    6.1762    4.7676 H   0  0  0  0  0  0  0  0  0  0  0  0
    6.6012    4.6157    6.0059 H   0  0  0  0  0  0  0  0  0  0  0  0
    5.2965    1.3695    3.8075 H   0  0  0  0  0  0  0  0  0  0  0  0
  1  2  1  0  0  0  0
  1 14  1  0  0  0  0
  1 15  1  0  0  0  0
  2  3  1  0  0  0  0
  2 16  1  0  0  0  0
  2 17  1  0  0  0  0
  3  4  2  0  0  0  0
  3  7  1  0  0  0  0
  4  5  1  0  0  0  0
  4 18  1  0  0  0  0
  5  6  2  0  0  0  0
  5 19  1  0  0  0  0
  6  7  1  0  0  0  0
  6  8  1  0  0  0  0
  8  9  2  0  0  0  0
  8 13  1  0  0  0  0
  9 10  1  0  0  0  0
  9 20  1  0  0  0  0
 10 11  2  0  0  0  0
 10 21  1  0  0  0  0
 11 12  1  0  0  0  0
 11 22  1  0  0  0  0
 12 13  2  0  0  0  0
 13 23  1  0  0  0  0
M  END
$$$$
