D4M
 OpenBabel04121316103D

 33 34  0  0  1  0  0  0  0  0999 V2000
    1.0279    0.0722   -0.0652 O   0  0  0  0  0  0  0  0  0  0  0  0
    2.2614    0.0475   -0.0562 C   0  0  0  0  0  0  0  0  0  0  0  0
    3.0184    1.1735    0.0441 N   0  0  0  0  0  0  0  0  0  0  0  0
    2.5264    2.0497    0.1238 H   0  0  0  0  0  0  0  0  0  0  0  0
    4.3611    1.2690   -0.2461 C   0  0  0  0  0  0  0  0  0  0  0  0
    4.8627    2.3844   -0.3408 O   0  0  0  0  0  0  0  0  0  0  0  0
    5.0203    0.0514   -0.4107 N   0  0  0  0  0  0  0  0  0  0  0  0
    4.3448   -1.1392   -0.1815 C   0  0  0  0  0  0  0  0  0  0  0  0
    3.0116   -1.2167   -0.1185 C   0  0  0  0  0  0  0  0  0  0  0  0
    2.2556   -2.5013   -0.1660 C   0  0  0  0  0  0  0  0  0  0  0  0
    6.4644    0.0425   -0.6852 C   0  0  1  0  0  0  0  0  0  0  0  0
    7.0077    0.1521    0.2598 H   0  0  0  0  0  0  0  0  0  0  0  0
    6.8923   -1.1729   -1.4528 C   0  0  0  0  0  0  0  0  0  0  0  0
    7.6950   -0.8311   -2.4589 C   0  0  0  0  0  0  0  0  0  0  0  0
    7.9201    0.6401   -2.4178 C   0  0  2  0  0  0  0  0  0  0  0  0
    8.8793    0.8624   -1.9399 H   0  0  0  0  0  0  0  0  0  0  0  0
    6.8440    1.1082   -1.5831 O   0  0  0  0  0  0  0  0  0  0  0  0
    7.8499    1.2860   -3.7940 C   0  0  0  0  0  0  0  0  0  0  0  0
    9.1479    1.2679   -4.4284 O   0  0  0  0  0  0  0  0  0  0  0  0
    9.1269    1.9064   -6.0362 P   0  0  0  0  0  0  0  0  0  0  0  0
   10.4285    1.1930   -6.3742 O   0  0  0  0  0  0  0  0  0  0  0  0
    7.8671    0.9502   -6.4163 O   0  0  0  0  0  0  0  0  0  0  0  0
    9.1060    2.5448   -7.6439 O   0  0  0  0  0  0  0  0  0  0  0  0
    4.9248   -2.0522   -0.1236 H   0  0  0  0  0  0  0  0  0  0  0  0
    2.9281   -3.3642   -0.2314 H   0  0  0  0  0  0  0  0  0  0  0  0
    1.6238   -2.5222   -1.0617 H   0  0  0  0  0  0  0  0  0  0  0  0
    1.6230   -2.6249    0.7156 H   0  0  0  0  0  0  0  0  0  0  0  0
    6.6017   -2.1921   -1.2596 H   0  0  0  0  0  0  0  0  0  0  0  0
    8.1144   -1.5139   -3.1826 H   0  0  0  0  0  0  0  0  0  0  0  0
    7.1307    0.7015   -4.3813 H   0  0  0  0  0  0  0  0  0  0  0  0
    7.4700    2.3120   -3.7708 H   0  0  0  0  0  0  0  0  0  0  0  0
    8.0601    0.0114   -6.2560 H   0  0  0  0  0  0  0  0  0  0  0  0
    9.9997    2.8927   -7.8193 H   0  0  0  0  0  0  0  0  0  0  0  0
  1  2  2  0  0  0  0
  2  3  1  0  0  0  0
  2  9  1  0  0  0  0
  3  4  1  0  0  0  0
  3  5  1  0  0  0  0
  5  6  2  0  0  0  0
  5  7  1  0  0  0  0
  7  8  1  0  0  0  0
  7 11  1  0  0  0  0
  8  9  2  0  0  0  0
  8 24  1  0  0  0  0
  9 10  1  0  0  0  0
 10 25  1  0  0  0  0
 10 26  1  0  0  0  0
 10 27  1  0  0  0  0
 11 12  1  1  0  0  0
 11 13  1  0  0  0  0
 11 17  1  0  0  0  0
 13 14  2  0  0  0  0
 13 28  1  0  0  0  0
 14 15  1  0  0  0  0
 14 29  1  0  0  0  0
 15 17  1  0  0  0  0
 15 18  1  0  0  0  0
 15 16  1  1  0  0  0
 18 19  1  0  0  0  0
 18 30  1  0  0  0  0
 18 31  1  0  0  0  0
 19 20  1  0  0  0  0
 20 21  2  0  0  0  0
 20 22  1  0  0  0  0
 20 23  1  0  0  0  0
 22 32  1  0  0  0  0
 23 33  1  0  0  0  0
M  END
$$$$
