D64
 OpenBabel04121316103D

 33 35  0  0  0  0  0  0  0  0999 V2000
    0.8179    0.0535    0.0697 C   0  0  0  0  0  0  0  0  0  0  0  0
    2.3070    0.0902    0.0599 C   0  0  0  0  0  0  0  0  0  0  0  0
    2.9882    1.3046    0.0668 C   0  0  0  0  0  0  0  0  0  0  0  0
    4.3606    1.3326   -0.1375 C   0  0  0  0  0  0  0  0  0  0  0  0
    5.0995    0.1507   -0.2647 C   0  0  0  0  0  0  0  0  0  0  0  0
    4.4026   -1.0646   -0.1052 C   0  0  0  0  0  0  0  0  0  0  0  0
    3.0206   -1.1006    0.0002 C   0  0  0  0  0  0  0  0  0  0  0  0
    6.5482    0.1906   -0.5308 C   0  0  0  0  0  0  0  0  0  0  0  0
    7.2478    1.3699   -0.8044 C   0  0  0  0  0  0  0  0  0  0  0  0
    8.6439    1.3822   -0.8622 C   0  0  0  0  0  0  0  0  0  0  0  0
    9.3546    0.1951   -0.9314 C   0  0  0  0  0  0  0  0  0  0  0  0
    8.6614   -0.9975   -0.8094 C   0  0  0  0  0  0  0  0  0  0  0  0
    7.2929   -0.9850   -0.5175 C   0  0  0  0  0  0  0  0  0  0  0  0
    9.3669   -2.1778   -1.0176 C   0  0  0  0  0  0  0  0  0  0  0  0
    8.7787   -3.4242   -0.8756 N   0  0  0  0  0  0  0  0  0  0  0  0
   10.6719   -2.1556   -1.3080 N   0  0  0  0  0  0  0  0  0  0  0  0
   11.2570   -0.9565   -1.3634 C   0  0  0  0  0  0  0  0  0  0  0  0
   10.6677    0.2239   -1.1692 N   0  0  0  0  0  0  0  0  0  0  0  0
   12.5866   -0.9242   -1.6736 N   0  0  0  0  0  0  0  0  0  0  0  0
    0.4053    1.0641    0.1250 H   0  0  0  0  0  0  0  0  0  0  0  0
    0.4635   -0.5232    0.9268 H   0  0  0  0  0  0  0  0  0  0  0  0
    0.4682   -0.4069   -0.8601 H   0  0  0  0  0  0  0  0  0  0  0  0
    2.4620    2.2446    0.2009 H   0  0  0  0  0  0  0  0  0  0  0  0
    4.8340    2.3071   -0.1945 H   0  0  0  0  0  0  0  0  0  0  0  0
    4.8998   -2.0284   -0.0734 H   0  0  0  0  0  0  0  0  0  0  0  0
    2.5157   -2.0630    0.0206 H   0  0  0  0  0  0  0  0  0  0  0  0
    6.7366    2.3125   -0.9784 H   0  0  0  0  0  0  0  0  0  0  0  0
    9.1622    2.3349   -0.8943 H   0  0  0  0  0  0  0  0  0  0  0  0
    6.8176   -1.9274   -0.3056 H   0  0  0  0  0  0  0  0  0  0  0  0
    7.7774   -3.5391   -0.8871 H   0  0  0  0  0  0  0  0  0  0  0  0
    9.3452   -4.2111   -1.1573 H   0  0  0  0  0  0  0  0  0  0  0  0
   13.0464   -1.8015   -1.8276 H   0  0  0  0  0  0  0  0  0  0  0  0
   13.0283   -0.0257   -1.7261 H   0  0  0  0  0  0  0  0  0  0  0  0
  1  2  1  0  0  0  0
  1 20  1  0  0  0  0
  1 21  1  0  0  0  0
  1 22  1  0  0  0  0
  2  3  2  0  0  0  0
  2  7  1  0  0  0  0
  3  4  1  0  0  0  0
  3 23  1  0  0  0  0
  4  5  2  0  0  0  0
  4 24  1  0  0  0  0
  5  6  1  0  0  0  0
  5  8  1  0  0  0  0
  6  7  2  0  0  0  0
  6 25  1  0  0  0  0
  7 26  1  0  0  0  0
  8  9  2  0  0  0  0
  8 13  1  0  0  0  0
  9 10  1  0  0  0  0
  9 27  1  0  0  0  0
 10 11  2  0  0  0  0
 10 28  1  0  0  0  0
 11 12  1  0  0  0  0
 11 18  1  0  0  0  0
 12 13  2  0  0  0  0
 12 14  1  0  0  0  0
 13 29  1  0  0  0  0
 14 15  1  0  0  0  0
 14 16  2  0  0  0  0
 15 30  1  0  0  0  0
 15 31  1  0  0  0  0
 16 17  1  0  0  0  0
 17 18  2  0  0  0  0
 17 19  1  0  0  0  0
 19 32  1  0  0  0  0
 19 33  1  0  0  0  0
M  END
$$$$
