D7P
 OpenBabel04121316103D

 51 51  0  0  1  0  0  0  0  0999 V2000
    0.9622    0.1443   -0.0284 N   0  0  0  0  0  0  0  0  0  0  0  0
    2.4373    0.0383   -0.0778 C   0  0  1  0  0  0  0  0  0  0  0  0
    2.8458    0.2271    0.9233 H   0  0  0  0  0  0  0  0  0  0  0  0
    2.7267   -1.4145   -0.5127 C   0  0  0  0  0  0  0  0  0  0  0  0
    2.9500   -1.7412   -1.6855 O   0  0  0  0  0  0  0  0  0  0  0  0
    2.7023   -2.3578    0.4832 N   0  0  0  0  0  0  0  0  0  0  0  0
    3.1773   -3.7129    0.2047 C   0  0  1  0  0  0  0  0  0  0  0  0
    2.8406   -3.9974   -0.8003 H   0  0  0  0  0  0  0  0  0  0  0  0
    4.7287   -3.7355    0.2403 C   0  0  0  0  0  0  0  0  0  0  0  0
    5.4047   -4.2258    1.1366 O   0  0  0  0  0  0  0  0  0  0  0  0
    5.3440   -3.1594   -0.8236 N   0  0  0  0  0  0  0  0  0  0  0  0
    2.6310   -4.7016    1.2171 C   0  0  0  0  0  0  0  0  0  0  0  0
    3.0917   -6.1246    0.8844 C   0  0  0  0  0  0  0  0  0  0  0  0
    2.6007   -7.0629    1.9571 C   0  0  0  0  0  0  0  0  0  0  0  0
    3.0458   -8.4150    1.7291 N   0  0  0  0  0  0  0  0  0  0  0  0
    2.7172   -9.4452    2.5495 C   0  0  0  0  0  0  0  0  0  0  0  0
    1.9507   -9.3107    3.5879 N   0  0  0  0  0  0  0  0  0  0  0  0
    3.2087  -10.6559    2.1614 N   0  0  0  0  0  0  0  0  0  0  0  0
    2.9455  -11.7599    2.9418 N   0  0  0  0  0  0  0  0  0  0  0  0
    1.5141  -11.9697    3.0500 O   0  0  0  0  0  0  0  0  0  0  0  0
    3.5150  -12.9351    2.3327 O   0  0  0  0  0  0  0  0  0  0  0  0
    3.0399    1.0653   -1.0752 C   0  0  0  0  0  0  0  0  0  0  0  0
    4.5601    1.1781   -1.0701 C   0  0  0  0  0  0  0  0  0  0  0  0
    5.2292    2.3967   -1.1004 C   0  0  0  0  0  0  0  0  0  0  0  0
    6.6208    2.4331   -1.3072 C   0  0  0  0  0  0  0  0  0  0  0  0
    7.3774    1.2619   -1.3860 C   0  0  0  0  0  0  0  0  0  0  0  0
    6.7457    0.0506   -1.2394 C   0  0  0  0  0  0  0  0  0  0  0  0
    5.3620    0.0405   -1.1420 C   0  0  0  0  0  0  0  0  0  0  0  0
    0.6027   -0.5514    0.6243 H   0  0  0  0  0  0  0  0  0  0  0  0
    0.6087   -0.1472   -0.9451 H   0  0  0  0  0  0  0  0  0  0  0  0
    2.2161   -2.1558    1.3500 H   0  0  0  0  0  0  0  0  0  0  0  0
    4.7977   -2.7145   -1.5554 H   0  0  0  0  0  0  0  0  0  0  0  0
    6.3418   -3.0093   -0.7706 H   0  0  0  0  0  0  0  0  0  0  0  0
    1.5340   -4.6588    1.2230 H   0  0  0  0  0  0  0  0  0  0  0  0
    2.9580   -4.4185    2.2266 H   0  0  0  0  0  0  0  0  0  0  0  0
    4.1824   -6.2017    0.8393 H   0  0  0  0  0  0  0  0  0  0  0  0
    2.7241   -6.4209   -0.1050 H   0  0  0  0  0  0  0  0  0  0  0  0
    1.5060   -7.0361    1.9761 H   0  0  0  0  0  0  0  0  0  0  0  0
    2.9739   -6.7216    2.9301 H   0  0  0  0  0  0  0  0  0  0  0  0
    3.6686   -8.5784    0.9480 H   0  0  0  0  0  0  0  0  0  0  0  0
    1.7064   -8.3297    3.7044 H   0  0  0  0  0  0  0  0  0  0  0  0
    3.7625  -10.7761    1.3278 H   0  0  0  0  0  0  0  0  0  0  0  0
    1.2801  -11.0976    3.4405 H   0  0  0  0  0  0  0  0  0  0  0  0
    4.4149  -12.8642    2.6930 H   0  0  0  0  0  0  0  0  0  0  0  0
    2.6136    2.0557   -0.8673 H   0  0  0  0  0  0  0  0  0  0  0  0
    2.7265    0.8112   -2.0986 H   0  0  0  0  0  0  0  0  0  0  0  0
    4.6822    3.3282   -0.9879 H   0  0  0  0  0  0  0  0  0  0  0  0
    7.1238    3.3878   -1.4189 H   0  0  0  0  0  0  0  0  0  0  0  0
    8.4470    1.2840   -1.5656 H   0  0  0  0  0  0  0  0  0  0  0  0
    7.2950   -0.8859   -1.2386 H   0  0  0  0  0  0  0  0  0  0  0  0
    4.9078   -0.9169   -1.1579 H   0  0  0  0  0  0  0  0  0  0  0  0
  1  2  1  0  0  0  0
  1 29  1  0  0  0  0
  1 30  1  0  0  0  0
  2  3  1  1  0  0  0
  2  4  1  0  0  0  0
  2 22  1  0  0  0  0
  4  5  2  0  0  0  0
  4  6  1  0  0  0  0
  6  7  1  0  0  0  0
  6 31  1  0  0  0  0
  7  8  1  6  0  0  0
  7  9  1  0  0  0  0
  7 12  1  0  0  0  0
  9 10  2  0  0  0  0
  9 11  1  0  0  0  0
 11 32  1  0  0  0  0
 11 33  1  0  0  0  0
 12 13  1  0  0  0  0
 12 34  1  0  0  0  0
 12 35  1  0  0  0  0
 13 14  1  0  0  0  0
 13 36  1  0  0  0  0
 13 37  1  0  0  0  0
 14 15  1  0  0  0  0
 14 38  1  0  0  0  0
 14 39  1  0  0  0  0
 15 16  1  0  0  0  0
 15 40  1  0  0  0  0
 16 17  2  0  0  0  0
 16 18  1  0  0  0  0
 17 41  1  0  0  0  0
 18 19  1  0  0  0  0
 18 42  1  0  0  0  0
 19 20  1  0  0  0  0
 19 21  1  0  0  0  0
 20 43  1  0  0  0  0
 21 44  1  0  0  0  0
 22 23  1  0  0  0  0
 22 45  1  0  0  0  0
 22 46  1  0  0  0  0
 23 24  2  0  0  0  0
 23 28  1  0  0  0  0
 24 25  1  0  0  0  0
 24 47  1  0  0  0  0
 25 26  2  0  0  0  0
 25 48  1  0  0  0  0
 26 27  1  0  0  0  0
 26 49  1  0  0  0  0
 27 28  2  0  0  0  0
 27 50  1  0  0  0  0
 28 51  1  0  0  0  0
M  END
$$$$
