D8W
 OpenBabel04121316103D

 27 28  0  0  0  0  0  0  0  0999 V2000
    1.2427    0.0172    0.2024 O   0  0  0  0  0  0  0  0  0  0  0  0
    2.6860    0.0146    0.1000 S   0  0  0  0  0  0  0  0  0  0  0  0
    3.3740   -1.0752   -0.5615 O   0  0  0  0  0  0  0  0  0  0  0  0
    3.1591    1.5453   -0.6236 C   0  0  0  0  0  0  0  0  0  0  0  0
    2.8825    2.7138    0.0893 C   0  0  0  0  0  0  0  0  0  0  0  0
    3.0615    3.9416   -0.5290 C   0  0  0  0  0  0  0  0  0  0  0  0
    3.6327    3.9970   -1.7990 C   0  0  0  0  0  0  0  0  0  0  0  0
    4.0507    2.8277   -2.4406 C   0  0  0  0  0  0  0  0  0  0  0  0
    3.7688    1.5857   -1.8767 C   0  0  0  0  0  0  0  0  0  0  0  0
    3.2598    0.1954    1.6844 N   0  0  0  0  0  0  0  0  0  0  0  0
    4.6213   -0.1409    1.8297 C   0  0  0  0  0  0  0  0  0  0  0  0
    5.5618    0.7632    2.0008 N   0  0  0  0  0  0  0  0  0  0  0  0
    6.8046    0.1762    2.2697 N   0  0  0  0  0  0  0  0  0  0  0  0
    6.7001   -1.1377    2.2899 C   0  0  0  0  0  0  0  0  0  0  0  0
    5.1168   -1.7405    2.0765 S   0  0  0  0  0  0  0  0  0  0  0  0
    7.9521   -2.3678    2.5176 S   0  0  0  0  0  0  0  0  0  0  0  0
    8.8428   -2.2693    1.3800 O   0  0  0  0  0  0  0  0  0  0  0  0
    8.3870   -2.2712    3.8870 O   0  0  0  0  0  0  0  0  0  0  0  0
    7.1690   -3.8759    2.3720 N   0  0  0  0  0  0  0  0  0  0  0  0
    2.5099    2.6702    1.1096 H   0  0  0  0  0  0  0  0  0  0  0  0
    2.7501    4.8501   -0.0221 H   0  0  0  0  0  0  0  0  0  0  0  0
    3.7568    4.9593   -2.2878 H   0  0  0  0  0  0  0  0  0  0  0  0
    4.5756    2.8904   -3.3903 H   0  0  0  0  0  0  0  0  0  0  0  0
    4.0108    0.6743   -2.4190 H   0  0  0  0  0  0  0  0  0  0  0  0
    2.6239   -0.3257    2.2841 H   0  0  0  0  0  0  0  0  0  0  0  0
    6.7707   -3.9859    1.4369 H   0  0  0  0  0  0  0  0  0  0  0  0
    6.4754   -3.9920    3.1134 H   0  0  0  0  0  0  0  0  0  0  0  0
  1  2  2  0  0  0  0
  2  3  2  0  0  0  0
  2  4  1  0  0  0  0
  2 10  1  0  0  0  0
  4  5  2  0  0  0  0
  4  9  1  0  0  0  0
  5  6  1  0  0  0  0
  5 20  1  0  0  0  0
  6  7  2  0  0  0  0
  6 21  1  0  0  0  0
  7  8  1  0  0  0  0
  7 22  1  0  0  0  0
  8  9  2  0  0  0  0
  8 23  1  0  0  0  0
  9 24  1  0  0  0  0
 10 11  1  0  0  0  0
 10 25  1  0  0  0  0
 11 12  2  0  0  0  0
 11 15  1  0  0  0  0
 12 13  1  0  0  0  0
 13 14  2  0  0  0  0
 14 15  1  0  0  0  0
 14 16  1  0  0  0  0
 16 17  2  0  0  0  0
 16 18  2  0  0  0  0
 16 19  1  0  0  0  0
 19 26  1  0  0  0  0
 19 27  1  0  0  0  0
M  END
$$$$
