D8Y
 OpenBabel04121316103D

 29 30  0  0  0  0  0  0  0  0999 V2000
    0.9501    0.1838    0.1731 Cl  0  0  0  0  0  0  0  0  0  0  0  0
    2.6677    0.1651    0.1011 C   0  0  0  0  0  0  0  0  0  0  0  0
    3.3903    1.3484    0.0185 C   0  0  0  0  0  0  0  0  0  0  0  0
    4.7824    1.3112   -0.0811 C   0  0  0  0  0  0  0  0  0  0  0  0
    5.4384    0.0902   -0.1976 C   0  0  0  0  0  0  0  0  0  0  0  0
    4.7106   -1.1020   -0.1409 C   0  0  0  0  0  0  0  0  0  0  0  0
    3.3273   -1.0532    0.0811 C   0  0  0  0  0  0  0  0  0  0  0  0
    5.4413   -2.3887   -0.3944 C   0  0  0  0  0  0  0  0  0  0  0  0
    4.5431   -3.6178   -0.3418 C   0  0  0  0  0  0  0  0  0  0  0  0
    5.2250   -4.9338   -0.5582 C   0  0  0  0  0  0  0  0  0  0  0  0
    6.6095   -5.0094   -0.7655 C   0  0  0  0  0  0  0  0  0  0  0  0
    7.2266   -6.2441   -0.7329 C   0  0  0  0  0  0  0  0  0  0  0  0
    6.4217   -7.3545   -0.6488 C   0  0  0  0  0  0  0  0  0  0  0  0
    5.0699   -7.3215   -0.5139 N   0  0  0  0  0  0  0  0  0  0  0  0
    4.4935   -6.1106   -0.4320 C   0  0  0  0  0  0  0  0  0  0  0  0
    3.0989   -6.0850   -0.3194 N   0  0  0  0  0  0  0  0  0  0  0  0
    2.8736    2.3014    0.0255 H   0  0  0  0  0  0  0  0  0  0  0  0
    5.3556    2.2328   -0.0982 H   0  0  0  0  0  0  0  0  0  0  0  0
    6.5159    0.0664   -0.3551 H   0  0  0  0  0  0  0  0  0  0  0  0
    2.7366   -1.9566    0.2006 H   0  0  0  0  0  0  0  0  0  0  0  0
    6.2512   -2.4808    0.3416 H   0  0  0  0  0  0  0  0  0  0  0  0
    5.8951   -2.3240   -1.3930 H   0  0  0  0  0  0  0  0  0  0  0  0
    3.7323   -3.5207   -1.0757 H   0  0  0  0  0  0  0  0  0  0  0  0
    4.1003   -3.6607    0.6642 H   0  0  0  0  0  0  0  0  0  0  0  0
    7.2178   -4.1285   -0.9224 H   0  0  0  0  0  0  0  0  0  0  0  0
    8.3093   -6.3130   -0.7645 H   0  0  0  0  0  0  0  0  0  0  0  0
    6.8558   -8.3497   -0.6982 H   0  0  0  0  0  0  0  0  0  0  0  0
    2.7512   -6.9975   -0.0588 H   0  0  0  0  0  0  0  0  0  0  0  0
    2.7149   -5.3263    0.2272 H   0  0  0  0  0  0  0  0  0  0  0  0
  1  2  1  0  0  0  0
  2  3  2  0  0  0  0
  2  7  1  0  0  0  0
  3  4  1  0  0  0  0
  3 17  1  0  0  0  0
  4  5  2  0  0  0  0
  4 18  1  0  0  0  0
  5  6  1  0  0  0  0
  5 19  1  0  0  0  0
  6  7  2  0  0  0  0
  6  8  1  0  0  0  0
  7 20  1  0  0  0  0
  8  9  1  0  0  0  0
  8 21  1  0  0  0  0
  8 22  1  0  0  0  0
  9 10  1  0  0  0  0
  9 23  1  0  0  0  0
  9 24  1  0  0  0  0
 10 11  2  0  0  0  0
 10 15  1  0  0  0  0
 11 12  1  0  0  0  0
 11 25  1  0  0  0  0
 12 13  2  0  0  0  0
 12 26  1  0  0  0  0
 13 14  1  0  0  0  0
 13 27  1  0  0  0  0
 14 15  2  0  0  0  0
 15 16  1  0  0  0  0
 16 28  1  0  0  0  0
 16 29  1  0  0  0  0
M  END
$$$$
