D94
 OpenBabel04121316103D

 68 74  0  0  1  0  0  0  0  0999 V2000
    7.4129    0.7354   -5.9702 C   0  0  0  0  0  0  0  0  0  0  0  0
    6.2305    0.1166   -6.5704 N   0  0  0  0  0  0  0  0  0  0  0  0
    6.0752   -1.2790   -6.1094 C   0  0  0  0  0  0  0  0  0  0  0  0
    5.7349   -1.3931   -4.6185 C   0  0  0  0  0  0  0  0  0  0  0  0
    4.6260   -0.5884   -4.1200 N   0  0  0  0  0  0  0  0  0  0  0  0
    4.7043    0.7944   -4.6309 C   0  0  0  0  0  0  0  0  0  0  0  0
    5.0294    0.8705   -6.1488 C   0  0  0  0  0  0  0  0  0  0  0  0
    4.3187   -0.6581   -2.6703 C   0  0  2  0  0  0  0  0  0  0  0  0
    3.2335   -0.6466   -2.5100 H   0  0  0  0  0  0  0  0  0  0  0  0
    5.1043    0.3266   -1.7514 C   0  0  0  0  0  0  0  0  0  0  0  0
    6.1208   -0.7977   -1.4297 C   0  0  1  0  0  0  0  0  0  0  0  0
    6.3289   -0.8565   -0.3539 H   0  0  0  0  0  0  0  0  0  0  0  0
    5.0244   -1.7985   -1.8767 C   0  0  0  0  0  0  0  0  0  0  0  0
    7.4970   -0.7672   -2.1302 C   0  0  0  0  0  0  0  0  0  0  0  0
    8.0741    0.3639   -2.4872 N   0  0  0  0  0  0  0  0  0  0  0  0
    9.1336    0.0201   -3.3127 C   0  0  0  0  0  0  0  0  0  0  0  0
    9.2468   -1.3632   -3.4203 C   0  0  0  0  0  0  0  0  0  0  0  0
    8.2068   -1.8461   -2.6323 N   0  0  0  0  0  0  0  0  0  0  0  0
    7.9708   -3.2097   -2.5688 C   0  0  0  0  0  0  0  0  0  0  0  0
    8.7401   -4.0349   -3.2703 C   0  0  0  0  0  0  0  0  0  0  0  0
    9.7776   -3.6258   -4.0720 N   0  0  0  0  0  0  0  0  0  0  0  0
   10.0565   -2.3474   -4.1513 C   0  0  0  0  0  0  0  0  0  0  0  0
   11.1292   -2.1155   -4.9700 N   0  0  0  0  0  0  0  0  0  0  0  0
    9.8956    1.0486   -4.0103 C   0  0  0  0  0  0  0  0  0  0  0  0
   10.7667    0.7013   -5.0361 C   0  0  0  0  0  0  0  0  0  0  0  0
   11.6777    1.5558   -5.6015 C   0  0  0  0  0  0  0  0  0  0  0  0
   11.4574    2.8814   -5.4001 C   0  0  0  0  0  0  0  0  0  0  0  0
   10.4112    3.3389   -4.5464 C   0  0  0  0  0  0  0  0  0  0  0  0
    9.6791    2.4074   -3.8210 C   0  0  0  0  0  0  0  0  0  0  0  0
   10.1029    4.6248   -4.4771 N   0  0  0  0  0  0  0  0  0  0  0  0
   10.7454    5.4607   -5.3260 C   0  0  0  0  0  0  0  0  0  0  0  0
   11.6917    5.0460   -6.2646 C   0  0  0  0  0  0  0  0  0  0  0  0
   12.1505    3.7605   -6.2044 C   0  0  0  0  0  0  0  0  0  0  0  0
   10.4815    6.8744   -5.1470 C   0  0  0  0  0  0  0  0  0  0  0  0
    9.1822    7.3582   -4.9766 C   0  0  0  0  0  0  0  0  0  0  0  0
    8.9517    8.7283   -4.9978 C   0  0  0  0  0  0  0  0  0  0  0  0
   10.0272    9.6162   -5.0510 C   0  0  0  0  0  0  0  0  0  0  0  0
   11.3345    9.1413   -5.0559 C   0  0  0  0  0  0  0  0  0  0  0  0
   11.5577    7.7781   -5.1482 C   0  0  0  0  0  0  0  0  0  0  0  0
    8.3044    0.1401   -6.1809 H   0  0  0  0  0  0  0  0  0  0  0  0
    7.3144    0.8390   -4.8914 H   0  0  0  0  0  0  0  0  0  0  0  0
    7.5887    1.7471   -6.3467 H   0  0  0  0  0  0  0  0  0  0  0  0
    7.0028   -1.8420   -6.2919 H   0  0  0  0  0  0  0  0  0  0  0  0
    5.2945   -1.7783   -6.6912 H   0  0  0  0  0  0  0  0  0  0  0  0
    6.6207   -1.0209   -4.1559 H   0  0  0  0  0  0  0  0  0  0  0  0
    5.6289   -2.4517   -4.3725 H   0  0  0  0  0  0  0  0  0  0  0  0
    5.4827    1.3614   -4.1110 H   0  0  0  0  0  0  0  0  0  0  0  0
    3.7640    1.3221   -4.4421 H   0  0  0  0  0  0  0  0  0  0  0  0
    5.1525    1.9207   -6.4400 H   0  0  0  0  0  0  0  0  0  0  0  0
    4.1754    0.4886   -6.7176 H   0  0  0  0  0  0  0  0  0  0  0  0
    4.4926    0.5836   -0.8704 H   0  0  0  0  0  0  0  0  0  0  0  0
    5.4727    1.2795   -2.1280 H   0  0  0  0  0  0  0  0  0  0  0  0
    4.4195   -2.1196   -1.0134 H   0  0  0  0  0  0  0  0  0  0  0  0
    5.2819   -2.7213   -2.3888 H   0  0  0  0  0  0  0  0  0  0  0  0
    7.1478   -3.5683   -1.9666 H   0  0  0  0  0  0  0  0  0  0  0  0
    8.5797   -5.1100   -3.2408 H   0  0  0  0  0  0  0  0  0  0  0  0
   11.5712   -2.9559   -5.3197 H   0  0  0  0  0  0  0  0  0  0  0  0
   11.7927   -1.4071   -4.6859 H   0  0  0  0  0  0  0  0  0  0  0  0
   10.5980   -0.2077   -5.5810 H   0  0  0  0  0  0  0  0  0  0  0  0
   12.3829    1.1790   -6.3388 H   0  0  0  0  0  0  0  0  0  0  0  0
    8.8547    2.7574   -3.1980 H   0  0  0  0  0  0  0  0  0  0  0  0
   12.0764    5.7276   -7.0154 H   0  0  0  0  0  0  0  0  0  0  0  0
   12.9773    3.4390   -6.8322 H   0  0  0  0  0  0  0  0  0  0  0  0
    8.3538    6.6617   -4.8577 H   0  0  0  0  0  0  0  0  0  0  0  0
    7.9322    9.0997   -4.9761 H   0  0  0  0  0  0  0  0  0  0  0  0
    9.8454   10.6850   -5.0760 H   0  0  0  0  0  0  0  0  0  0  0  0
   12.1788    9.8206   -5.0055 H   0  0  0  0  0  0  0  0  0  0  0  0
   12.5802    7.4086   -5.2172 H   0  0  0  0  0  0  0  0  0  0  0  0
  1  2  1  0  0  0  0
  1 40  1  0  0  0  0
  1 41  1  0  0  0  0
  1 42  1  0  0  0  0
  2  3  1  0  0  0  0
  2  7  1  0  0  0  0
  3  4  1  0  0  0  0
  3 43  1  0  0  0  0
  3 44  1  0  0  0  0
  4  5  1  0  0  0  0
  4 45  1  0  0  0  0
  4 46  1  0  0  0  0
  5  6  1  0  0  0  0
  6  7  1  0  0  0  0
  6 47  1  0  0  0  0
  6 48  1  0  0  0  0
  7 49  1  0  0  0  0
  7 50  1  0  0  0  0
  8 10  1  0  0  0  0
  8 13  1  0  0  0  0
  8  9  1  1  0  0  0
  8  5  1  0  0  0  0
 10 11  1  0  0  0  0
 10 51  1  0  0  0  0
 10 52  1  0  0  0  0
 11 12  1  1  0  0  0
 11 13  1  0  0  0  0
 11 14  1  0  0  0  0
 13 53  1  0  0  0  0
 13 54  1  0  0  0  0
 14 15  2  0  0  0  0
 14 18  1  0  0  0  0
 15 16  1  0  0  0  0
 16 17  2  0  0  0  0
 16 24  1  0  0  0  0
 17 18  1  0  0  0  0
 17 22  1  0  0  0  0
 18 19  1  0  0  0  0
 19 20  2  0  0  0  0
 19 55  1  0  0  0  0
 20 21  1  0  0  0  0
 20 56  1  0  0  0  0
 21 22  2  0  0  0  0
 22 23  1  0  0  0  0
 23 57  1  0  0  0  0
 23 58  1  0  0  0  0
 24 25  2  0  0  0  0
 24 29  1  0  0  0  0
 25 26  1  0  0  0  0
 25 59  1  0  0  0  0
 26 27  2  0  0  0  0
 26 60  1  0  0  0  0
 27 28  1  0  0  0  0
 27 33  1  0  0  0  0
 28 29  2  0  0  0  0
 28 30  1  0  0  0  0
 29 61  1  0  0  0  0
 30 31  2  0  0  0  0
 31 32  1  0  0  0  0
 31 34  1  0  0  0  0
 32 33  2  0  0  0  0
 32 62  1  0  0  0  0
 33 63  1  0  0  0  0
 34 35  2  0  0  0  0
 34 39  1  0  0  0  0
 35 36  1  0  0  0  0
 35 64  1  0  0  0  0
 36 37  2  0  0  0  0
 36 65  1  0  0  0  0
 37 38  1  0  0  0  0
 37 66  1  0  0  0  0
 38 39  2  0  0  0  0
 38 67  1  0  0  0  0
 39 68  1  0  0  0  0
M  END
$$$$
