D9H
 OpenBabel04121316103D

 35 36  0  0  0  0  0  0  0  0999 V2000
    0.9604    0.0938    0.0436 O   0  0  0  0  0  0  0  0  0  0  0  0
    2.3826    0.0992    0.0310 C   0  0  0  0  0  0  0  0  0  0  0  0
    2.9297    0.8387    1.2548 C   0  0  0  0  0  0  0  0  0  0  0  0
    4.3845    0.9432    1.1666 N   0  0  0  0  0  0  0  0  0  0  0  0
    4.9684    1.4640    2.3076 C   0  0  0  0  0  0  0  0  0  0  0  0
    4.7949    2.7739    2.4939 N   0  0  0  0  0  0  0  0  0  0  0  0
    5.3984    3.3107    3.5364 C   0  0  0  0  0  0  0  0  0  0  0  0
    5.2748    4.6881    3.7459 N   0  0  0  0  0  0  0  0  0  0  0  0
    5.8154    5.4723    4.7768 C   0  0  0  0  0  0  0  0  0  0  0  0
    5.4697    6.8211    4.9176 C   0  0  0  0  0  0  0  0  0  0  0  0
    6.0658    7.6077    5.9171 C   0  0  0  0  0  0  0  0  0  0  0  0
    6.9116    7.0159    6.8600 C   0  0  0  0  0  0  0  0  0  0  0  0
    7.1496    5.6561    6.8230 C   0  0  0  0  0  0  0  0  0  0  0  0
    6.6673    4.9292    5.7507 C   0  0  0  0  0  0  0  0  0  0  0  0
    7.7434    8.0259    8.0460 S   0  0  0  0  0  0  0  0  0  0  0  0
    8.6902    8.8320    7.3277 O   0  0  0  0  0  0  0  0  0  0  0  0
    6.7303    8.5679    8.9306 O   0  0  0  0  0  0  0  0  0  0  0  0
    8.6320    6.9252    8.9480 N   0  0  0  0  0  0  0  0  0  0  0  0
    6.0901    2.5866    4.3920 N   0  0  0  0  0  0  0  0  0  0  0  0
    6.2080    1.3096    4.1162 C   0  0  0  0  0  0  0  0  0  0  0  0
    5.7055    0.6724    3.0756 N   0  0  0  0  0  0  0  0  0  0  0  0
    7.1130    0.4345    5.2739 Cl  0  0  0  0  0  0  0  0  0  0  0  0
    0.6703   -0.3718   -0.7604 H   0  0  0  0  0  0  0  0  0  0  0  0
    2.7240    0.5879   -0.8870 H   0  0  0  0  0  0  0  0  0  0  0  0
    2.7331   -0.9387    0.0225 H   0  0  0  0  0  0  0  0  0  0  0  0
    2.5753    0.3299    2.1654 H   0  0  0  0  0  0  0  0  0  0  0  0
    2.4949    1.8456    1.2806 H   0  0  0  0  0  0  0  0  0  0  0  0
    4.8879    0.1561    0.7829 H   0  0  0  0  0  0  0  0  0  0  0  0
    4.7698    5.1465    3.0004 H   0  0  0  0  0  0  0  0  0  0  0  0
    4.7455    7.2824    4.2500 H   0  0  0  0  0  0  0  0  0  0  0  0
    5.8695    8.6765    5.9590 H   0  0  0  0  0  0  0  0  0  0  0  0
    7.7232    5.1210    7.5697 H   0  0  0  0  0  0  0  0  0  0  0  0
    7.0166    3.9072    5.7185 H   0  0  0  0  0  0  0  0  0  0  0  0
    9.4193    6.5175    8.4471 H   0  0  0  0  0  0  0  0  0  0  0  0
    8.0753    6.3323    9.5577 H   0  0  0  0  0  0  0  0  0  0  0  0
  1  2  1  0  0  0  0
  1 23  1  0  0  0  0
  2  3  1  0  0  0  0
  2 24  1  0  0  0  0
  2 25  1  0  0  0  0
  3  4  1  0  0  0  0
  3 26  1  0  0  0  0
  3 27  1  0  0  0  0
  4  5  1  0  0  0  0
  4 28  1  0  0  0  0
  5  6  2  0  0  0  0
  5 21  1  0  0  0  0
  6  7  1  0  0  0  0
  7  8  1  0  0  0  0
  7 19  2  0  0  0  0
  8  9  1  0  0  0  0
  8 29  1  0  0  0  0
  9 10  2  0  0  0  0
  9 14  1  0  0  0  0
 10 11  1  0  0  0  0
 10 30  1  0  0  0  0
 11 12  2  0  0  0  0
 11 31  1  0  0  0  0
 12 13  1  0  0  0  0
 12 15  1  0  0  0  0
 13 14  2  0  0  0  0
 13 32  1  0  0  0  0
 14 33  1  0  0  0  0
 15 16  2  0  0  0  0
 15 17  2  0  0  0  0
 15 18  1  0  0  0  0
 18 34  1  0  0  0  0
 18 35  1  0  0  0  0
 19 20  1  0  0  0  0
 20 21  2  0  0  0  0
 20 22  1  0  0  0  0
M  END
$$$$
