D9Z
 OpenBabel04121316103D

 22 23  0  0  0  0  0  0  0  0999 V2000
    1.1510    0.3506    0.2754 Cl  0  0  0  0  0  0  0  0  0  0  0  0
    2.8585    0.0052    0.1168 C   0  0  0  0  0  0  0  0  0  0  0  0
    3.5813    1.1982    0.0759 C   0  0  0  0  0  0  0  0  0  0  0  0
    4.9404    1.1821   -0.1563 C   0  0  0  0  0  0  0  0  0  0  0  0
    5.6048   -0.0379   -0.2237 C   0  0  0  0  0  0  0  0  0  0  0  0
    4.9083   -1.2527   -0.0795 C   0  0  0  0  0  0  0  0  0  0  0  0
    3.5037   -1.2726    0.0137 C   0  0  0  0  0  0  0  0  0  0  0  0
    2.7823   -2.5734   -0.0880 C   0  0  0  0  0  0  0  0  0  0  0  0
    3.2001   -3.8347   -0.0036 N   0  0  0  0  0  0  0  0  0  0  0  0
    2.1255   -4.7792   -0.1425 N   0  0  0  0  0  0  0  0  0  0  0  0
    0.9904   -4.1455   -0.3576 C   0  0  0  0  0  0  0  0  0  0  0  0
    1.1557   -2.5018   -0.5503 S   0  0  0  0  0  0  0  0  0  0  0  0
   -0.7027   -4.6290   -0.5426 S   0  0  0  0  0  0  0  0  0  0  0  0
   -0.8144   -5.2490   -1.8353 O   0  0  0  0  0  0  0  0  0  0  0  0
   -1.1038   -5.2540    0.7026 O   0  0  0  0  0  0  0  0  0  0  0  0
   -1.6333   -3.1730   -0.6414 N   0  0  0  0  0  0  0  0  0  0  0  0
    3.0627    2.1466    0.2025 H   0  0  0  0  0  0  0  0  0  0  0  0
    5.4664    2.1251   -0.2719 H   0  0  0  0  0  0  0  0  0  0  0  0
    6.6786   -0.0357   -0.3966 H   0  0  0  0  0  0  0  0  0  0  0  0
    5.4856   -2.1778   -0.0746 H   0  0  0  0  0  0  0  0  0  0  0  0
   -1.3512   -2.6220   -1.4587 H   0  0  0  0  0  0  0  0  0  0  0  0
   -1.5509   -2.6240    0.2189 H   0  0  0  0  0  0  0  0  0  0  0  0
  1  2  1  0  0  0  0
  2  3  2  0  0  0  0
  2  7  1  0  0  0  0
  3  4  1  0  0  0  0
  3 17  1  0  0  0  0
  4  5  2  0  0  0  0
  4 18  1  0  0  0  0
  5  6  1  0  0  0  0
  5 19  1  0  0  0  0
  6  7  2  0  0  0  0
  6 20  1  0  0  0  0
  7  8  1  0  0  0  0
  8  9  2  0  0  0  0
  8 12  1  0  0  0  0
  9 10  1  0  0  0  0
 10 11  2  0  0  0  0
 11 12  1  0  0  0  0
 11 13  1  0  0  0  0
 13 14  2  0  0  0  0
 13 15  2  0  0  0  0
 13 16  1  0  0  0  0
 16 21  1  0  0  0  0
 16 22  1  0  0  0  0
M  END
$$$$
