DA3
 OpenBabel04121316103D

 24 24  0  0  1  0  0  0  0  0999 V2000
    7.0700   -0.1239    1.1231 N   0  0  0  0  0  0  0  0  0  0  0  0
    6.3843    0.5590    2.2190 C   0  0  2  0  0  0  0  0  0  0  0  0
    6.7610    1.5833    2.2972 H   0  0  0  0  0  0  0  0  0  0  0  0
    6.7043   -0.1035    3.5657 C   0  0  0  0  0  0  0  0  0  0  0  0
    5.8719   -0.5385    4.3462 O   0  0  0  0  0  0  0  0  0  0  0  0
    8.0323   -0.1241    3.8423 O   0  0  0  0  0  0  0  0  0  0  0  0
    4.8635    0.5914    1.9692 C   0  0  0  0  0  0  0  0  0  0  0  0
    4.4272    1.2937    0.6771 C   0  0  2  0  0  0  0  0  0  0  0  0
    3.3313    1.2726    0.6220 H   0  0  0  0  0  0  0  0  0  0  0  0
    4.8998    0.6112   -0.4923 O   0  0  0  0  0  0  0  0  0  0  0  0
    5.1588    1.5784   -1.4953 N   0  0  0  0  0  0  0  0  0  0  0  0
    5.1581    2.7354   -0.9163 C   0  0  0  0  0  0  0  0  0  0  0  0
    4.9291    2.7169    0.5441 C   0  0  0  0  0  0  0  0  0  0  0  0
    5.4328    4.0351   -1.6700 C   0  0  0  0  0  0  0  0  0  0  0  0
    5.6361    4.0458   -2.8723 O   0  0  0  0  0  0  0  0  0  0  0  0
    5.4292    5.1519   -0.9289 O   0  0  0  0  0  0  0  0  0  0  0  0
    6.7132   -1.0769    1.0193 H   0  0  0  0  0  0  0  0  0  0  0  0
    8.0778   -0.1682    1.1879 H   0  0  0  0  0  0  0  0  0  0  0  0
    8.5829    0.2855    3.1493 H   0  0  0  0  0  0  0  0  0  0  0  0
    4.3736    1.0940    2.8146 H   0  0  0  0  0  0  0  0  0  0  0  0
    4.4801   -0.4392    1.9646 H   0  0  0  0  0  0  0  0  0  0  0  0
    4.1861    3.4403    0.8801 H   0  0  0  0  0  0  0  0  0  0  0  0
    5.8830    2.9151    1.0346 H   0  0  0  0  0  0  0  0  0  0  0  0
    5.2663    5.0813    0.0267 H   0  0  0  0  0  0  0  0  0  0  0  0
  1 17  1  0  0  0  0
  1 18  1  0  0  0  0
  2  4  1  0  0  0  0
  2  7  1  0  0  0  0
  2  3  1  1  0  0  0
  2  1  1  0  0  0  0
  4  5  2  0  0  0  0
  4  6  1  0  0  0  0
  6 19  1  0  0  0  0
  7 20  1  0  0  0  0
  7 21  1  0  0  0  0
  8 10  1  0  0  0  0
  8 13  1  0  0  0  0
  8  9  1  6  0  0  0
  8  7  1  0  0  0  0
 10 11  1  0  0  0  0
 11 12  2  0  0  0  0
 12 13  1  0  0  0  0
 12 14  1  0  0  0  0
 13 22  1  0  0  0  0
 13 23  1  0  0  0  0
 14 15  2  0  0  0  0
 14 16  1  0  0  0  0
 16 24  1  0  0  0  0
M  END
$$$$
