DA7
 OpenBabel04121316103D

 43 45  0  0  0  0  0  0  0  0999 V2000
    1.0589    0.1297    0.0087 C   0  0  0  0  0  0  0  0  0  0  0  0
    2.5243    0.0978   -0.0111 N   0  0  0  0  0  0  0  0  0  0  0  0
    3.0238   -1.0962   -0.7071 C   0  0  0  0  0  0  0  0  0  0  0  0
    2.5747   -2.3921   -0.0392 C   0  0  0  0  0  0  0  0  0  0  0  0
    3.0775   -3.5593   -0.7177 N   0  0  0  0  0  0  0  0  0  0  0  0
    2.6791   -4.7937   -0.2450 C   0  0  0  0  0  0  0  0  0  0  0  0
    1.9676   -4.8482    0.7569 O   0  0  0  0  0  0  0  0  0  0  0  0
    3.1162   -6.0053   -1.0109 C   0  0  0  0  0  0  0  0  0  0  0  0
    3.9283   -5.8726   -2.1559 C   0  0  0  0  0  0  0  0  0  0  0  0
    4.2816   -6.9816   -2.9026 C   0  0  0  0  0  0  0  0  0  0  0  0
    3.8312   -8.2264   -2.5077 C   0  0  0  0  0  0  0  0  0  0  0  0
    3.0379   -8.3970   -1.3535 C   0  0  0  0  0  0  0  0  0  0  0  0
    2.6777   -7.2725   -0.5820 C   0  0  0  0  0  0  0  0  0  0  0  0
    1.9300   -7.4226    0.5279 N   0  0  0  0  0  0  0  0  0  0  0  0
    1.4893   -8.6172    0.9375 C   0  0  0  0  0  0  0  0  0  0  0  0
    0.7085   -8.7286    2.0917 C   0  0  0  0  0  0  0  0  0  0  0  0
    0.3937   -7.6361    2.8091 F   0  0  0  0  0  0  0  0  0  0  0  0
    0.2257   -9.9527    2.5464 C   0  0  0  0  0  0  0  0  0  0  0  0
    0.5230  -11.1046    1.8406 C   0  0  0  0  0  0  0  0  0  0  0  0
    1.2977  -11.0176    0.6916 C   0  0  0  0  0  0  0  0  0  0  0  0
    1.7927   -9.7839    0.2211 C   0  0  0  0  0  0  0  0  0  0  0  0
    2.5851   -9.6724   -0.9450 C   0  0  0  0  0  0  0  0  0  0  0  0
    2.8934  -10.8119   -1.6994 N   0  0  0  0  0  0  0  0  0  0  0  0
    3.0386    1.2989   -0.6647 C   0  0  0  0  0  0  0  0  0  0  0  0
    0.6408   -0.7161    0.5637 H   0  0  0  0  0  0  0  0  0  0  0  0
    0.6420    0.1168   -1.0046 H   0  0  0  0  0  0  0  0  0  0  0  0
    0.6994    1.0213    0.5304 H   0  0  0  0  0  0  0  0  0  0  0  0
    4.1226   -1.0876   -0.7164 H   0  0  0  0  0  0  0  0  0  0  0  0
    2.7047   -1.0990   -1.7585 H   0  0  0  0  0  0  0  0  0  0  0  0
    1.4836   -2.4860   -0.0467 H   0  0  0  0  0  0  0  0  0  0  0  0
    2.9106   -2.4313    1.0037 H   0  0  0  0  0  0  0  0  0  0  0  0
    3.5968   -3.4341   -1.5689 H   0  0  0  0  0  0  0  0  0  0  0  0
    4.3038   -4.9190   -2.5017 H   0  0  0  0  0  0  0  0  0  0  0  0
    4.8970   -6.8869   -3.7924 H   0  0  0  0  0  0  0  0  0  0  0  0
    4.1180   -9.0694   -3.1253 H   0  0  0  0  0  0  0  0  0  0  0  0
   -0.3775   -9.9919    3.4462 H   0  0  0  0  0  0  0  0  0  0  0  0
    0.1620  -12.0731    2.1691 H   0  0  0  0  0  0  0  0  0  0  0  0
    1.5109  -11.9394    0.1643 H   0  0  0  0  0  0  0  0  0  0  0  0
    2.5951  -11.7302   -1.4165 H   0  0  0  0  0  0  0  0  0  0  0  0
    3.4693  -10.7696   -2.5230 H   0  0  0  0  0  0  0  0  0  0  0  0
    2.7063    2.1948   -0.1310 H   0  0  0  0  0  0  0  0  0  0  0  0
    2.7048    1.3678   -1.7062 H   0  0  0  0  0  0  0  0  0  0  0  0
    4.1341    1.3077   -0.6512 H   0  0  0  0  0  0  0  0  0  0  0  0
  1  2  1  0  0  0  0
  1 25  1  0  0  0  0
  1 26  1  0  0  0  0
  1 27  1  0  0  0  0
  2  3  1  0  0  0  0
  2 24  1  0  0  0  0
  3  4  1  0  0  0  0
  3 28  1  0  0  0  0
  3 29  1  0  0  0  0
  4  5  1  0  0  0  0
  4 30  1  0  0  0  0
  4 31  1  0  0  0  0
  5  6  1  0  0  0  0
  5 32  1  0  0  0  0
  6  7  2  0  0  0  0
  6  8  1  0  0  0  0
  8  9  2  0  0  0  0
  8 13  1  0  0  0  0
  9 10  1  0  0  0  0
  9 33  1  0  0  0  0
 10 11  2  0  0  0  0
 10 34  1  0  0  0  0
 11 12  1  0  0  0  0
 11 35  1  0  0  0  0
 12 13  2  0  0  0  0
 12 22  1  0  0  0  0
 13 14  1  0  0  0  0
 14 15  2  0  0  0  0
 15 16  1  0  0  0  0
 15 21  1  0  0  0  0
 16 17  1  0  0  0  0
 16 18  2  0  0  0  0
 18 19  1  0  0  0  0
 18 36  1  0  0  0  0
 19 20  2  0  0  0  0
 19 37  1  0  0  0  0
 20 21  1  0  0  0  0
 20 38  1  0  0  0  0
 21 22  2  0  0  0  0
 22 23  1  0  0  0  0
 23 39  1  0  0  0  0
 23 40  1  0  0  0  0
 24 41  1  0  0  0  0
 24 42  1  0  0  0  0
 24 43  1  0  0  0  0
M  END
$$$$
