DA9
 OpenBabel04121316103D

 18 17  0  0  0  0  0  0  0  0999 V2000
    1.0729    0.0859   -0.0146 N   0  5  0  0  0  0  0  0  0  0  0  0
    2.2132    0.0665    0.0190 N   0  3  0  0  0  0  0  0  0  0  0  0
    3.4482    0.0383    0.0686 N   0  0  0  0  0  0  0  0  0  0  0  0
    4.1835    0.6739   -1.0333 C   0  0  0  0  0  0  0  0  0  0  0  0
    5.6796    0.5128   -0.7481 C   0  0  0  0  0  0  0  0  0  0  0  0
    6.1239   -0.0603    0.2443 O   0  0  0  0  0  0  0  0  0  0  0  0
    6.5230    1.0679   -1.6932 N   0  0  0  0  0  0  0  0  0  0  0  0
    7.9638    0.9532   -1.5075 C   0  0  0  0  0  0  0  0  0  0  0  0
    8.7579    1.6084   -2.6305 C   0  0  0  0  0  0  0  0  0  0  0  0
   10.5537    1.4154   -2.4060 S   0  0  0  0  0  0  0  0  0  0  0  0
    3.9432    1.7417   -1.0931 H   0  0  0  0  0  0  0  0  0  0  0  0
    3.9448    0.1904   -1.9876 H   0  0  0  0  0  0  0  0  0  0  0  0
    6.1479    1.5221   -2.5166 H   0  0  0  0  0  0  0  0  0  0  0  0
    8.2003   -0.1156   -1.4349 H   0  0  0  0  0  0  0  0  0  0  0  0
    8.2046    1.4136   -0.5411 H   0  0  0  0  0  0  0  0  0  0  0  0
    8.5168    2.6744   -2.6941 H   0  0  0  0  0  0  0  0  0  0  0  0
    8.4881    1.1529   -3.5885 H   0  0  0  0  0  0  0  0  0  0  0  0
   10.6624    2.0427   -1.2240 H   0  0  0  0  0  0  0  0  0  0  0  0
  1  2  2  0  0  0  0
  2  3  2  0  0  0  0
  3  4  1  0  0  0  0
  4  5  1  0  0  0  0
  4 11  1  0  0  0  0
  4 12  1  0  0  0  0
  5  6  2  0  0  0  0
  5  7  1  0  0  0  0
  7  8  1  0  0  0  0
  7 13  1  0  0  0  0
  8  9  1  0  0  0  0
  8 14  1  0  0  0  0
  8 15  1  0  0  0  0
  9 10  1  0  0  0  0
  9 16  1  0  0  0  0
  9 17  1  0  0  0  0
 10 18  1  0  0  0  0
M  CHG  2   1  -1   2   1
M  END
$$$$
