DAP
 OpenBabel04121316103D

 36 38  0  0  0  0  0  0  0  0999 V2000
    1.0893   -0.0652    0.0100 N   0  0  0  0  0  0  0  0  0  0  0  0
    2.4528   -0.0122   -0.0330 C   0  0  0  0  0  0  0  0  0  0  0  0
    3.1251   -1.1110   -0.1356 N   0  0  0  0  0  0  0  0  0  0  0  0
    3.1896    1.3019    0.0152 C   0  0  0  0  0  0  0  0  0  0  0  0
    2.5223    2.5174    0.1724 C   0  0  0  0  0  0  0  0  0  0  0  0
    3.2206    3.7338    0.0490 C   0  0  0  0  0  0  0  0  0  0  0  0
    4.6148    3.7724   -0.1389 C   0  0  0  0  0  0  0  0  0  0  0  0
    5.2913    2.5492   -0.1666 C   0  0  0  0  0  0  0  0  0  0  0  0
    4.5834    1.3293   -0.1314 C   0  0  0  0  0  0  0  0  0  0  0  0
    5.2905    5.0686   -0.3542 C   0  0  0  0  0  0  0  0  0  0  0  0
    5.0901    6.2950    0.2616 C   0  0  0  0  0  0  0  0  0  0  0  0
    5.6528    7.3109   -0.5596 C   0  0  0  0  0  0  0  0  0  0  0  0
    6.3539    6.6742   -1.5772 C   0  0  0  0  0  0  0  0  0  0  0  0
    6.2279    5.3128   -1.3477 N   0  0  0  0  0  0  0  0  0  0  0  0
    6.6651    4.6013   -1.9159 H   0  0  0  0  0  0  0  0  0  0  0  0
    7.0153    7.3916   -2.5978 C   0  0  0  0  0  0  0  0  0  0  0  0
    6.9236    8.8018   -2.5969 C   0  0  0  0  0  0  0  0  0  0  0  0
    6.2111    9.4422   -1.5757 C   0  0  0  0  0  0  0  0  0  0  0  0
    5.5919    8.7154   -0.5501 C   0  0  0  0  0  0  0  0  0  0  0  0
    7.5697    9.6352   -3.6761 C   0  0  0  0  0  0  0  0  0  0  0  0
    8.2503    9.1430   -4.6607 N   0  0  0  0  0  0  0  0  0  0  0  0
    7.4751   10.9934   -3.6835 N   0  0  0  0  0  0  0  0  0  0  0  0
    0.6018   -0.9365   -0.1496 H   0  0  0  0  0  0  0  0  0  0  0  0
    0.5244    0.7659   -0.0840 H   0  0  0  0  0  0  0  0  0  0  0  0
    2.4901   -1.9118   -0.1662 H   0  0  0  0  0  0  0  0  0  0  0  0
    1.4581    2.5522    0.3790 H   0  0  0  0  0  0  0  0  0  0  0  0
    2.6451    4.6574    0.0723 H   0  0  0  0  0  0  0  0  0  0  0  0
    6.3758    2.5161   -0.2138 H   0  0  0  0  0  0  0  0  0  0  0  0
    5.1285    0.3916   -0.2276 H   0  0  0  0  0  0  0  0  0  0  0  0
    4.4874    6.4685    1.1423 H   0  0  0  0  0  0  0  0  0  0  0  0
    7.5508    6.8503   -3.3670 H   0  0  0  0  0  0  0  0  0  0  0  0
    6.1044   10.5213   -1.5458 H   0  0  0  0  0  0  0  0  0  0  0  0
    5.0330    9.2390    0.2199 H   0  0  0  0  0  0  0  0  0  0  0  0
    8.3039    8.1258   -4.6304 H   0  0  0  0  0  0  0  0  0  0  0  0
    6.9873   11.5500   -3.0044 H   0  0  0  0  0  0  0  0  0  0  0  0
    7.9432   11.4744   -4.4412 H   0  0  0  0  0  0  0  0  0  0  0  0
  1  2  1  0  0  0  0
  1 23  1  0  0  0  0
  1 24  1  0  0  0  0
  2  3  2  0  0  0  0
  2  4  1  0  0  0  0
  3 25  1  0  0  0  0
  4  5  2  0  0  0  0
  4  9  1  0  0  0  0
  5  6  1  0  0  0  0
  5 26  1  0  0  0  0
  6  7  2  0  0  0  0
  6 27  1  0  0  0  0
  7  8  1  0  0  0  0
  7 10  1  0  0  0  0
  8  9  2  0  0  0  0
  8 28  1  0  0  0  0
  9 29  1  0  0  0  0
 10 11  2  0  0  0  0
 10 14  1  0  0  0  0
 11 12  1  0  0  0  0
 11 30  1  0  0  0  0
 12 13  2  0  0  0  0
 12 19  1  0  0  0  0
 13 14  1  0  0  0  0
 13 16  1  0  0  0  0
 14 15  1  0  0  0  0
 16 17  2  0  0  0  0
 16 31  1  0  0  0  0
 17 18  1  0  0  0  0
 17 20  1  0  0  0  0
 18 19  2  0  0  0  0
 18 32  1  0  0  0  0
 19 33  1  0  0  0  0
 20 21  2  0  0  0  0
 20 22  1  0  0  0  0
 21 34  1  0  0  0  0
 22 35  1  0  0  0  0
 22 36  1  0  0  0  0
M  END
$$$$
