DAU
 OpenBabel04121316103D

 62 64  0  0  1  0  0  0  0  0999 V2000
   -1.4957    5.5598    0.7549 O   0  0  0  0  0  0  0  0  0  0  0  0
   -0.9787    4.3980    1.3574 C   0  0  0  0  0  0  0  0  0  0  0  0
   -1.5812    3.9169    2.6955 C   0  0  1  0  0  0  0  0  0  0  0  0
   -2.1456    3.0130    2.4347 H   0  0  0  0  0  0  0  0  0  0  0  0
   -0.4424    3.5018    3.4829 O   0  0  0  0  0  0  0  0  0  0  0  0
    0.3583    4.6029    3.9323 C   0  0  2  0  0  0  0  0  0  0  0  0
    0.6093    5.3195    3.1406 H   0  0  0  0  0  0  0  0  0  0  0  0
    1.5864    4.0251    4.3912 O   0  0  0  0  0  0  0  0  0  0  0  0
    2.5615    3.6094    3.1563 P   0  0  2  0  0  0  0  0  0  0  0  0
    2.0083    3.7249    1.7774 O   0  0  0  0  0  0  0  0  0  0  0  0
    3.3495    2.2465    3.4812 O   0  0  0  0  0  0  0  0  0  0  0  0
    2.8343    0.8697    2.8325 P   0  0  2  0  0  0  0  0  0  0  0  0
    1.6849    0.2431    3.5441 O   0  0  0  0  0  0  0  0  0  0  0  0
    4.1228   -0.0994    2.6346 O   0  0  0  0  0  0  0  0  0  0  0  0
    4.1554   -1.2629    3.4683 C   0  0  0  0  0  0  0  0  0  0  0  0
    5.1277   -2.3673    3.0025 C   0  0  1  0  0  0  0  0  0  0  0  0
    5.4264   -2.2183    1.9565 H   0  0  0  0  0  0  0  0  0  0  0  0
    6.3119   -2.2988    3.8329 O   0  0  0  0  0  0  0  0  0  0  0  0
    6.9058   -3.6085    3.8455 C   0  0  2  0  0  0  0  0  0  0  0  0
    7.5504   -3.6775    2.9599 H   0  0  0  0  0  0  0  0  0  0  0  0
    5.7506   -4.5949    3.7393 C   0  0  0  0  0  0  0  0  0  0  0  0
    4.5848   -3.7930    3.2056 C   0  0  2  0  0  0  0  0  0  0  0  0
    3.7517   -3.8293    3.9160 H   0  0  0  0  0  0  0  0  0  0  0  0
    4.1211   -4.3534    1.9797 O   0  0  0  0  0  0  0  0  0  0  0  0
    7.7519   -3.8255    5.0279 N   0  0  0  0  0  0  0  0  0  0  0  0
    8.1519   -2.7737    5.8324 C   0  0  0  0  0  0  0  0  0  0  0  0
    9.1295   -2.9007    6.7442 C   0  0  0  0  0  0  0  0  0  0  0  0
    9.7166   -1.7723    7.5230 C   0  0  0  0  0  0  0  0  0  0  0  0
    9.6984   -4.2440    6.9661 C   0  0  0  0  0  0  0  0  0  0  0  0
   10.6558   -4.4332    7.7305 O   0  0  0  0  0  0  0  0  0  0  0  0
    9.1159   -5.2578    6.2807 N   0  0  0  0  0  0  0  0  0  0  0  0
    9.5122   -6.1764    6.4085 H   0  0  0  0  0  0  0  0  0  0  0  0
    8.3090   -5.0956    5.1840 C   0  0  0  0  0  0  0  0  0  0  0  0
    8.1235   -6.0328    4.4198 O   0  0  0  0  0  0  0  0  0  0  0  0
    2.5885    1.2396    1.2985 O   0  0  0  0  0  0  0  0  0  0  0  0
    3.7511    4.6689    3.3721 O   0  0  0  0  0  0  0  0  0  0  0  0
   -0.4422    5.4556    4.9490 C   0  0  1  0  0  0  0  0  0  0  0  0
    0.1188    6.3582    5.2199 H   0  0  0  0  0  0  0  0  0  0  0  0
   -1.8034    5.8756    4.3186 C   0  0  2  0  0  0  0  0  0  0  0  0
   -2.4506    6.2714    5.1147 H   0  0  0  0  0  0  0  0  0  0  0  0
   -2.5254    4.6975    3.6391 C   0  0  2  0  0  0  0  0  0  0  0  0
   -3.4343    5.0318    3.1274 H   0  0  0  0  0  0  0  0  0  0  0  0
   -2.9770    3.7348    4.6272 O   0  0  0  0  0  0  0  0  0  0  0  0
   -1.6171    6.9467    3.3808 O   0  0  0  0  0  0  0  0  0  0  0  0
   -0.6394    4.7216    6.1605 O   0  0  0  0  0  0  0  0  0  0  0  0
   -0.8788    5.7167    0.0039 H   0  0  0  0  0  0  0  0  0  0  0  0
    0.0733    4.6234    1.4609 H   0  0  0  0  0  0  0  0  0  0  0  0
   -0.9756    3.5588    0.6503 H   0  0  0  0  0  0  0  0  0  0  0  0
    3.1468   -1.6786    3.5411 H   0  0  0  0  0  0  0  0  0  0  0  0
    4.4667   -0.8788    4.4400 H   0  0  0  0  0  0  0  0  0  0  0  0
    5.4926   -4.9921    4.7290 H   0  0  0  0  0  0  0  0  0  0  0  0
    6.0186   -5.4509    3.1096 H   0  0  0  0  0  0  0  0  0  0  0  0
    3.8694   -5.2813    2.1500 H   0  0  0  0  0  0  0  0  0  0  0  0
    7.6782   -1.8115    5.6633 H   0  0  0  0  0  0  0  0  0  0  0  0
    9.2292   -0.8215    7.2878 H   0  0  0  0  0  0  0  0  0  0  0  0
   10.7808   -1.6647    7.2817 H   0  0  0  0  0  0  0  0  0  0  0  0
    9.6220   -1.9497    8.5984 H   0  0  0  0  0  0  0  0  0  0  0  0
    2.3468    0.5074    0.7086 H   0  0  0  0  0  0  0  0  0  0  0  0
    4.5855    4.3278    3.0048 H   0  0  0  0  0  0  0  0  0  0  0  0
   -3.2442    4.1904    5.4443 H   0  0  0  0  0  0  0  0  0  0  0  0
   -1.4143    6.5867    2.4934 H   0  0  0  0  0  0  0  0  0  0  0  0
    0.1778    4.1969    6.2713 H   0  0  0  0  0  0  0  0  0  0  0  0
  1  2  1  0  0  0  0
  1 46  1  0  0  0  0
  2  3  1  0  0  0  0
  2 47  1  0  0  0  0
  2 48  1  0  0  0  0
  3  4  1  6  0  0  0
  3  5  1  0  0  0  0
  3 41  1  0  0  0  0
  5  6  1  0  0  0  0
  6  7  1  6  0  0  0
  6  8  1  0  0  0  0
  6 37  1  0  0  0  0
  9 11  1  1  0  0  0
  9 36  1  0  0  0  0
  9 10  2  0  0  0  0
  9  8  1  0  0  0  0
 12 14  1  1  0  0  0
 12 35  1  0  0  0  0
 12 13  2  0  0  0  0
 12 11  1  0  0  0  0
 14 15  1  0  0  0  0
 15 16  1  0  0  0  0
 15 49  1  0  0  0  0
 15 50  1  0  0  0  0
 16 17  1  6  0  0  0
 16 18  1  0  0  0  0
 16 22  1  0  0  0  0
 18 19  1  0  0  0  0
 19 21  1  0  0  0  0
 19 25  1  0  0  0  0
 19 20  1  6  0  0  0
 21 22  1  0  0  0  0
 21 51  1  0  0  0  0
 21 52  1  0  0  0  0
 22 23  1  1  0  0  0
 22 24  1  0  0  0  0
 24 53  1  0  0  0  0
 25 26  1  0  0  0  0
 25 33  1  0  0  0  0
 26 27  2  0  0  0  0
 26 54  1  0  0  0  0
 27 28  1  0  0  0  0
 27 29  1  0  0  0  0
 28 55  1  0  0  0  0
 28 56  1  0  0  0  0
 28 57  1  0  0  0  0
 29 30  2  0  0  0  0
 29 31  1  0  0  0  0
 31 32  1  0  0  0  0
 31 33  1  0  0  0  0
 33 34  2  0  0  0  0
 35 58  1  0  0  0  0
 36 59  1  0  0  0  0
 37 38  1  1  0  0  0
 37 39  1  0  0  0  0
 37 45  1  0  0  0  0
 39 41  1  0  0  0  0
 39 44  1  0  0  0  0
 39 40  1  1  0  0  0
 41 42  1  6  0  0  0
 41 43  1  0  0  0  0
 43 60  1  0  0  0  0
 44 61  1  0  0  0  0
 45 62  1  0  0  0  0
M  END
$$$$
