DBB
 OpenBabel04121316103D

 16 15  0  0  1  0  0  0  0  0999 V2000
    1.0551    0.1371    2.3150 C   0  0  0  0  0  0  0  0  0  0  0  0
    2.5424   -0.1573    2.4448 C   0  0  0  0  0  0  0  0  0  0  0  0
    3.0838   -0.8668    1.1970 C   0  0  2  0  0  0  0  0  0  0  0  0
    2.7399   -0.3717    0.2824 H   0  0  0  0  0  0  0  0  0  0  0  0
    2.6934   -2.3638    1.1357 C   0  0  0  0  0  0  0  0  0  0  0  0
    3.5178   -3.2727    1.1902 O   0  0  0  0  0  0  0  0  0  0  0  0
    1.3826   -2.6343    0.9676 O   0  0  0  0  0  0  0  0  0  0  0  0
    4.5653   -0.7625    1.2123 N   0  0  0  0  0  0  0  0  0  0  0  0
    0.6964    0.7625    3.1351 H   0  0  0  0  0  0  0  0  0  0  0  0
    0.4678   -0.7810    2.3545 H   0  0  0  0  0  0  0  0  0  0  0  0
    0.8491    0.6486    1.3684 H   0  0  0  0  0  0  0  0  0  0  0  0
    2.7214   -0.7592    3.3446 H   0  0  0  0  0  0  0  0  0  0  0  0
    3.0618    0.7998    2.5957 H   0  0  0  0  0  0  0  0  0  0  0  0
    0.7922   -1.8736    0.8242 H   0  0  0  0  0  0  0  0  0  0  0  0
    4.9200   -1.2816    0.4032 H   0  0  0  0  0  0  0  0  0  0  0  0
    4.9090   -1.3186    2.0021 H   0  0  0  0  0  0  0  0  0  0  0  0
  1  2  1  0  0  0  0
  1  9  1  0  0  0  0
  1 10  1  0  0  0  0
  1 11  1  0  0  0  0
  2 12  1  0  0  0  0
  2 13  1  0  0  0  0
  3  5  1  0  0  0  0
  3  8  1  0  0  0  0
  3  4  1  6  0  0  0
  3  2  1  0  0  0  0
  5  6  2  0  0  0  0
  5  7  1  0  0  0  0
  7 14  1  0  0  0  0
  8 15  1  0  0  0  0
  8 16  1  0  0  0  0
M  END
$$$$
