DBO
 OpenBabel04121316103D

 70 74  0  0  1  0  0  0  0  0999 V2000
    3.5159  -12.4288    2.6539 C   0  0  0  0  0  0  0  0  0  0  0  0
    3.2845  -11.1798    3.4203 C   0  0  0  0  0  0  0  0  0  0  0  0
    2.7100  -11.3436    4.6638 C   0  0  0  0  0  0  0  0  0  0  0  0
    2.3505  -10.2363    5.4011 C   0  0  0  0  0  0  0  0  0  0  0  0
    2.3917   -8.9691    4.8240 C   0  0  0  0  0  0  0  0  0  0  0  0
    2.9214   -8.7783    3.5456 C   0  0  0  0  0  0  0  0  0  0  0  0
    3.4762   -9.8907    2.9000 C   0  0  0  0  0  0  0  0  0  0  0  0
    2.8446   -7.3985    2.9344 C   0  0  0  0  0  0  0  0  0  0  0  0
    3.4010   -7.3457    1.5971 N   0  0  0  0  0  0  0  0  0  0  0  0
    3.4127   -5.9960    1.0537 C   0  0  0  0  0  0  0  0  0  0  0  0
    3.9854   -5.9369   -0.3882 C   0  0  2  0  0  0  0  0  0  0  0  0
    4.5908   -5.0346   -0.5021 H   0  0  0  0  0  0  0  0  0  0  0  0
    2.8249   -5.8907   -1.4083 C   0  0  1  0  0  0  0  0  0  0  0  0
    3.2342   -5.9571   -2.4264 H   0  0  0  0  0  0  0  0  0  0  0  0
    1.9620   -7.0554   -1.2119 N   0  0  0  0  0  0  0  0  0  0  0  0
    2.3078   -8.2889   -1.7067 C   0  0  0  0  0  0  0  0  0  0  0  0
    3.3838   -8.5198   -2.2095 O   0  0  0  0  0  0  0  0  0  0  0  0
    1.2712   -9.3519   -1.4832 C   0  0  0  0  0  0  0  0  0  0  0  0
   -0.0176   -9.0775   -1.7182 C   0  0  0  0  0  0  0  0  0  0  0  0
   -1.1130  -10.0287   -1.6023 C   0  0  0  0  0  0  0  0  0  0  0  0
   -2.3414   -9.5528   -1.1418 C   0  0  0  0  0  0  0  0  0  0  0  0
   -3.4314  -10.4138   -1.0725 C   0  0  0  0  0  0  0  0  0  0  0  0
   -3.3020  -11.7438   -1.4758 C   0  0  0  0  0  0  0  0  0  0  0  0
   -2.0842  -12.2204   -1.9457 C   0  0  0  0  0  0  0  0  0  0  0  0
   -0.9939  -11.3651   -1.9953 C   0  0  0  0  0  0  0  0  0  0  0  0
    0.1710  -11.9056   -2.4728 O   0  0  0  0  0  0  0  0  0  0  0  0
    1.1989  -11.8827   -1.5667 C   0  0  0  0  0  0  0  0  0  0  0  0
    1.7383  -10.6836   -1.0997 C   0  0  0  0  0  0  0  0  0  0  0  0
    2.8791  -10.7383   -0.3243 C   0  0  0  0  0  0  0  0  0  0  0  0
    3.5397  -11.9338   -0.1419 C   0  0  0  0  0  0  0  0  0  0  0  0
    2.9057  -13.1333   -0.4415 C   0  0  0  0  0  0  0  0  0  0  0  0
    1.7390  -13.1114   -1.1869 C   0  0  0  0  0  0  0  0  0  0  0  0
    2.0256   -4.5621   -1.2719 C   0  0  0  0  0  0  0  0  0  0  0  0
    0.9392   -4.3598   -2.3014 C   0  0  0  0  0  0  0  0  0  0  0  0
    0.2461   -5.4281   -2.8738 C   0  0  0  0  0  0  0  0  0  0  0  0
   -0.6314   -5.2889   -3.9297 C   0  0  0  0  0  0  0  0  0  0  0  0
   -0.9458   -4.0179   -4.3524 C   0  0  0  0  0  0  0  0  0  0  0  0
   -0.3985   -2.9151   -3.6920 C   0  0  0  0  0  0  0  0  0  0  0  0
    0.5709   -3.0796   -2.6979 C   0  0  0  0  0  0  0  0  0  0  0  0
    4.9074   -7.0141   -0.6217 O   0  0  0  0  0  0  0  0  0  0  0  0
    3.3880  -13.3570    3.2135 H   0  0  0  0  0  0  0  0  0  0  0  0
    4.5247  -12.4488    2.2414 H   0  0  0  0  0  0  0  0  0  0  0  0
    2.6961  -12.4586    1.9380 H   0  0  0  0  0  0  0  0  0  0  0  0
    2.5506  -12.3496    5.0369 H   0  0  0  0  0  0  0  0  0  0  0  0
    2.0106  -10.3797    6.4165 H   0  0  0  0  0  0  0  0  0  0  0  0
    2.0105   -8.1217    5.3831 H   0  0  0  0  0  0  0  0  0  0  0  0
    4.0343   -9.7432    1.9796 H   0  0  0  0  0  0  0  0  0  0  0  0
    3.3827   -6.6996    3.5828 H   0  0  0  0  0  0  0  0  0  0  0  0
    1.7890   -7.0909    2.8962 H   0  0  0  0  0  0  0  0  0  0  0  0
    2.8769   -7.9501    0.9700 H   0  0  0  0  0  0  0  0  0  0  0  0
    3.9930   -5.3223    1.6874 H   0  0  0  0  0  0  0  0  0  0  0  0
    2.3820   -5.6271    1.0822 H   0  0  0  0  0  0  0  0  0  0  0  0
    1.0938   -6.9346   -0.7090 H   0  0  0  0  0  0  0  0  0  0  0  0
   -0.3454   -8.1071   -2.0498 H   0  0  0  0  0  0  0  0  0  0  0  0
   -2.4519   -8.5166   -0.8290 H   0  0  0  0  0  0  0  0  0  0  0  0
   -4.3833  -10.0435   -0.7058 H   0  0  0  0  0  0  0  0  0  0  0  0
   -4.1518  -12.4151   -1.4229 H   0  0  0  0  0  0  0  0  0  0  0  0
   -1.9656  -13.2528   -2.2593 H   0  0  0  0  0  0  0  0  0  0  0  0
    3.2951   -9.8345    0.1013 H   0  0  0  0  0  0  0  0  0  0  0  0
    4.4934  -11.8983    0.3698 H   0  0  0  0  0  0  0  0  0  0  0  0
    3.2997  -14.0646   -0.0453 H   0  0  0  0  0  0  0  0  0  0  0  0
    1.2706  -14.0405   -1.4905 H   0  0  0  0  0  0  0  0  0  0  0  0
    2.7453   -3.7348   -1.3457 H   0  0  0  0  0  0  0  0  0  0  0  0
    1.5470   -4.4709   -0.2911 H   0  0  0  0  0  0  0  0  0  0  0  0
    0.3902   -6.4334   -2.5536 H   0  0  0  0  0  0  0  0  0  0  0  0
   -1.0387   -6.1805   -4.3983 H   0  0  0  0  0  0  0  0  0  0  0  0
   -1.6229   -3.8953   -5.1888 H   0  0  0  0  0  0  0  0  0  0  0  0
   -0.7181   -1.9171   -3.9695 H   0  0  0  0  0  0  0  0  0  0  0  0
    1.0433   -2.2070   -2.2532 H   0  0  0  0  0  0  0  0  0  0  0  0
    4.7375   -7.4043   -1.5048 H   0  0  0  0  0  0  0  0  0  0  0  0
  1  2  1  0  0  0  0
  1 41  1  0  0  0  0
  1 42  1  0  0  0  0
  1 43  1  0  0  0  0
  2  3  2  0  0  0  0
  2  7  1  0  0  0  0
  3  4  1  0  0  0  0
  3 44  1  0  0  0  0
  4  5  2  0  0  0  0
  4 45  1  0  0  0  0
  5  6  1  0  0  0  0
  5 46  1  0  0  0  0
  6  7  2  0  0  0  0
  6  8  1  0  0  0  0
  7 47  1  0  0  0  0
  8  9  1  0  0  0  0
  8 48  1  0  0  0  0
  8 49  1  0  0  0  0
  9 10  1  0  0  0  0
  9 50  1  0  0  0  0
 10 51  1  0  0  0  0
 10 52  1  0  0  0  0
 11 13  1  0  0  0  0
 11 40  1  0  0  0  0
 11 12  1  6  0  0  0
 11 10  1  0  0  0  0
 13 14  1  6  0  0  0
 13 15  1  0  0  0  0
 13 33  1  0  0  0  0
 15 16  1  0  0  0  0
 15 53  1  0  0  0  0
 16 17  2  0  0  0  0
 16 18  1  0  0  0  0
 18 19  2  0  0  0  0
 18 28  1  0  0  0  0
 19 20  1  0  0  0  0
 19 54  1  0  0  0  0
 20 21  2  0  0  0  0
 20 25  1  0  0  0  0
 21 22  1  0  0  0  0
 21 55  1  0  0  0  0
 22 23  2  0  0  0  0
 22 56  1  0  0  0  0
 23 24  1  0  0  0  0
 23 57  1  0  0  0  0
 24 25  2  0  0  0  0
 24 58  1  0  0  0  0
 25 26  1  0  0  0  0
 26 27  1  0  0  0  0
 27 28  2  0  0  0  0
 27 32  1  0  0  0  0
 28 29  1  0  0  0  0
 29 30  2  0  0  0  0
 29 59  1  0  0  0  0
 30 31  1  0  0  0  0
 30 60  1  0  0  0  0
 31 32  2  0  0  0  0
 31 61  1  0  0  0  0
 32 62  1  0  0  0  0
 33 34  1  0  0  0  0
 33 63  1  0  0  0  0
 33 64  1  0  0  0  0
 34 35  2  0  0  0  0
 34 39  1  0  0  0  0
 35 36  1  0  0  0  0
 35 65  1  0  0  0  0
 36 37  2  0  0  0  0
 36 66  1  0  0  0  0
 37 38  1  0  0  0  0
 37 67  1  0  0  0  0
 38 39  2  0  0  0  0
 38 68  1  0  0  0  0
 39 69  1  0  0  0  0
 40 70  1  0  0  0  0
M  END
$$$$
