DCE
 OpenBabel04121316103D

  8  7  0  0  0  0  0  0  0  0999 V2000
    1.0656    0.0003    0.0563 Cl  0  0  0  0  0  0  0  0  0  0  0  0
    2.8466   -0.0204    0.0737 C   0  0  0  0  0  0  0  0  0  0  0  0
    3.3514   -1.1166    0.9929 C   0  0  0  0  0  0  0  0  0  0  0  0
    5.1324   -1.1373    1.0103 Cl  0  0  0  0  0  0  0  0  0  0  0  0
    3.1840    0.9661    0.4060 H   0  0  0  0  0  0  0  0  0  0  0  0
    3.1840   -0.1758   -0.9557 H   0  0  0  0  0  0  0  0  0  0  0  0
    3.0139   -2.1031    0.6606 H   0  0  0  0  0  0  0  0  0  0  0  0
    3.0139   -0.9612    2.0223 H   0  0  0  0  0  0  0  0  0  0  0  0
  1  2  1  0  0  0  0
  2  3  1  0  0  0  0
  2  5  1  0  0  0  0
  2  6  1  0  0  0  0
  3  4  1  0  0  0  0
  3  7  1  0  0  0  0
  3  8  1  0  0  0  0
M  END
$$$$
