DCO
 OpenBabel04121316103D

 17 16  0  0  0  0  0  0  0  0999 V2000
    0.9549    0.0406   -0.1070 Cl  0  0  0  0  0  0  0  0  0  0  0  0
    2.6865    0.1774   -0.0955 C   0  0  0  0  0  0  0  0  0  0  0  0
    3.4153   -0.2711    0.9477 C   0  0  0  0  0  0  0  0  0  0  0  0
    4.8894   -0.0310    1.0173 C   0  0  0  0  0  0  0  0  0  0  0  0
    5.5070   -0.1686    2.0745 O   0  0  0  0  0  0  0  0  0  0  0  0
    5.5889    0.1683   -0.1065 O   0  0  0  0  0  0  0  0  0  0  0  0
    2.7059   -1.0549    2.1239 C   0  0  0  0  0  0  0  0  0  0  0  0
    3.8951   -1.7109    3.3505 P   0  0  0  0  0  0  0  0  0  0  0  0
    2.7994   -2.5933    3.9580 O   0  0  0  0  0  0  0  0  0  0  0  0
    4.5663   -2.6652    2.1798 O   0  0  0  0  0  0  0  0  0  0  0  0
    5.0193   -2.3310    4.5100 O   0  0  0  0  0  0  0  0  0  0  0  0
    3.3160    0.9673   -1.5088 Cl  0  0  0  0  0  0  0  0  0  0  0  0
    5.1027    0.4597   -0.9035 H   0  0  0  0  0  0  0  0  0  0  0  0
    2.1047   -1.8692    1.7019 H   0  0  0  0  0  0  0  0  0  0  0  0
    2.0546   -0.3517    2.6559 H   0  0  0  0  0  0  0  0  0  0  0  0
    5.2422   -2.2027    1.6431 H   0  0  0  0  0  0  0  0  0  0  0  0
    4.4811   -2.7177    5.2292 H   0  0  0  0  0  0  0  0  0  0  0  0
  1  2  1  0  0  0  0
  2  3  2  0  0  0  0
  2 12  1  0  0  0  0
  3  4  1  0  0  0  0
  3  7  1  0  0  0  0
  4  5  2  0  0  0  0
  4  6  1  0  0  0  0
  6 13  1  0  0  0  0
  7  8  1  0  0  0  0
  7 14  1  0  0  0  0
  7 15  1  0  0  0  0
  8  9  2  0  0  0  0
  8 10  1  0  0  0  0
  8 11  1  0  0  0  0
 10 16  1  0  0  0  0
 11 17  1  0  0  0  0
M  END
$$$$
