DCP
 OpenBabel04121316103D

 44 45  0  0  1  0  0  0  0  0999 V2000
    3.2380    3.5409   -1.9313 O   0  0  0  0  0  0  0  0  0  0  0  0
    2.5251    3.1151   -3.0832 C   0  0  1  0  0  0  0  0  0  0  0  0
    1.4672    2.9947   -2.8247 H   0  0  0  0  0  0  0  0  0  0  0  0
    2.6914    4.1299   -4.1931 C   0  0  0  0  0  0  0  0  0  0  0  0
    2.3952    3.2804   -5.4180 C   0  0  1  0  0  0  0  0  0  0  0  0
    2.8279    3.7145   -6.3270 H   0  0  0  0  0  0  0  0  0  0  0  0
    3.0814    2.0550   -5.1404 O   0  0  0  0  0  0  0  0  0  0  0  0
    3.0879    1.8358   -3.7138 C   0  0  2  0  0  0  0  0  0  0  0  0
    4.1289    1.6869   -3.3974 H   0  0  0  0  0  0  0  0  0  0  0  0
    2.2645    0.5759   -3.3974 C   0  0  0  0  0  0  0  0  0  0  0  0
    2.0788    0.4396   -2.0232 O   0  0  0  0  0  0  0  0  0  0  0  0
    1.4914   -0.9190   -1.3485 P   0  0  2  0  0  0  0  0  0  0  0  0
    2.6923   -1.8267   -1.6928 O   0  0  0  0  0  0  0  0  0  0  0  0
    0.3723   -1.7277   -2.3740 O   0  0  0  0  0  0  0  0  0  0  0  0
   -0.1828   -3.1039   -1.6216 P   0  0  2  0  0  0  0  0  0  0  0  0
    0.8407   -3.9538   -0.9432 O   0  0  0  0  0  0  0  0  0  0  0  0
   -1.5237   -3.9535   -2.2206 O   0  0  0  0  0  0  0  0  0  0  0  0
   -1.1091   -5.1729   -3.3756 P   0  0  0  0  0  0  0  0  0  0  0  0
    0.2414   -4.5582   -3.6932 O   0  0  0  0  0  0  0  0  0  0  0  0
   -0.9841   -6.2217   -2.1451 O   0  0  0  0  0  0  0  0  0  0  0  0
   -0.6944   -6.3923   -4.5307 O   0  0  0  0  0  0  0  0  0  0  0  0
   -0.9955   -2.3076   -0.4586 O   0  0  0  0  0  0  0  0  0  0  0  0
    0.1460    0.0980   -0.9628 O   0  0  0  0  0  0  0  0  0  0  0  0
    0.9474    3.0996   -5.6699 N   0  0  0  0  0  0  0  0  0  0  0  0
    0.1997    4.2428   -5.9112 C   0  0  0  0  0  0  0  0  0  0  0  0
   -1.0230    4.1811   -6.4357 C   0  0  0  0  0  0  0  0  0  0  0  0
   -1.6205    2.8392   -6.4755 C   0  0  0  0  0  0  0  0  0  0  0  0
   -0.9439    1.7647   -6.2530 N   0  0  0  0  0  0  0  0  0  0  0  0
    0.4177    1.8433   -6.0373 C   0  0  0  0  0  0  0  0  0  0  0  0
    1.0875    0.8340   -6.1518 O   0  0  0  0  0  0  0  0  0  0  0  0
   -2.9500    2.7112   -6.7363 N   0  0  0  0  0  0  0  0  0  0  0  0
    2.7595    4.3012   -1.5600 H   0  0  0  0  0  0  0  0  0  0  0  0
    3.7281    4.4931   -4.2203 H   0  0  0  0  0  0  0  0  0  0  0  0
    2.0547    5.0068   -4.0533 H   0  0  0  0  0  0  0  0  0  0  0  0
    2.7524   -0.3074   -3.8168 H   0  0  0  0  0  0  0  0  0  0  0  0
    1.2640    0.6508   -3.8135 H   0  0  0  0  0  0  0  0  0  0  0  0
   -1.7414   -6.1394   -1.5359 H   0  0  0  0  0  0  0  0  0  0  0  0
    0.0565   -6.0083   -5.0303 H   0  0  0  0  0  0  0  0  0  0  0  0
   -1.4031   -2.9713    0.1266 H   0  0  0  0  0  0  0  0  0  0  0  0
   -0.5405   -0.4842   -0.5717 H   0  0  0  0  0  0  0  0  0  0  0  0
    0.6596    5.2083   -5.7296 H   0  0  0  0  0  0  0  0  0  0  0  0
   -1.5910    5.0410   -6.7532 H   0  0  0  0  0  0  0  0  0  0  0  0
   -3.5671    3.5062   -6.8064 H   0  0  0  0  0  0  0  0  0  0  0  0
   -3.3607    1.7984   -6.5812 H   0  0  0  0  0  0  0  0  0  0  0  0
  1  2  1  0  0  0  0
  1 32  1  0  0  0  0
  2  3  1  1  0  0  0
  2  4  1  0  0  0  0
  2  8  1  0  0  0  0
  4  5  1  0  0  0  0
  4 33  1  0  0  0  0
  4 34  1  0  0  0  0
  5  6  1  6  0  0  0
  5  7  1  0  0  0  0
  5 24  1  0  0  0  0
  7  8  1  0  0  0  0
  8  9  1  1  0  0  0
  8 10  1  0  0  0  0
 10 11  1  0  0  0  0
 10 35  1  0  0  0  0
 10 36  1  0  0  0  0
 12 14  1  6  0  0  0
 12 23  1  0  0  0  0
 12 13  2  0  0  0  0
 12 11  1  0  0  0  0
 15 17  1  6  0  0  0
 15 22  1  0  0  0  0
 15 16  2  0  0  0  0
 15 14  1  0  0  0  0
 17 18  1  0  0  0  0
 18 19  2  0  0  0  0
 18 20  1  0  0  0  0
 18 21  1  0  0  0  0
 20 37  1  0  0  0  0
 21 38  1  0  0  0  0
 22 39  1  0  0  0  0
 23 40  1  0  0  0  0
 24 25  1  0  0  0  0
 24 29  1  0  0  0  0
 25 26  2  0  0  0  0
 25 41  1  0  0  0  0
 26 27  1  0  0  0  0
 26 42  1  0  0  0  0
 27 28  2  0  0  0  0
 27 31  1  0  0  0  0
 28 29  1  0  0  0  0
 29 30  2  0  0  0  0
 31 43  1  0  0  0  0
 31 44  1  0  0  0  0
M  END
$$$$
