DCY
 OpenBabel04121316103D

 14 13  0  0  1  0  0  0  0  0999 V2000
    0.9408    0.0879    0.0090 N   0  0  0  0  0  0  0  0  0  0  0  0
    2.4277    0.0565    0.0456 C   0  0  1  0  0  0  0  0  0  0  0  0
    2.7953    1.0456   -0.2533 H   0  0  0  0  0  0  0  0  0  0  0  0
    2.9046   -0.2500    1.4787 C   0  0  0  0  0  0  0  0  0  0  0  0
    3.5397   -1.2399    1.8163 O   0  0  0  0  0  0  0  0  0  0  0  0
    2.5149    0.6713    2.3937 O   0  0  0  0  0  0  0  0  0  0  0  0
    2.9459   -1.0031   -0.9492 C   0  0  0  0  0  0  0  0  0  0  0  0
    4.7678   -1.0857   -1.1234 S   0  0  0  0  0  0  0  0  0  0  0  0
    0.5500    0.7707    0.6524 H   0  0  0  0  0  0  0  0  0  0  0  0
    0.5816   -0.8213    0.3155 H   0  0  0  0  0  0  0  0  0  0  0  0
    2.0126    1.4216    2.0301 H   0  0  0  0  0  0  0  0  0  0  0  0
    2.5465   -0.8076   -1.9509 H   0  0  0  0  0  0  0  0  0  0  0  0
    2.5991   -1.9995   -0.6515 H   0  0  0  0  0  0  0  0  0  0  0  0
    5.0003    0.2090   -1.3726 H   0  0  0  0  0  0  0  0  0  0  0  0
  1  2  1  0  0  0  0
  1  9  1  0  0  0  0
  1 10  1  0  0  0  0
  2  3  1  6  0  0  0
  2  4  1  0  0  0  0
  2  7  1  0  0  0  0
  4  5  2  0  0  0  0
  4  6  1  0  0  0  0
  6 11  1  0  0  0  0
  7  8  1  0  0  0  0
  7 12  1  0  0  0  0
  7 13  1  0  0  0  0
  8 14  1  0  0  0  0
M  END
$$$$
