DDC
 OpenBabel04121316103D

 30 32  0  0  1  0  0  0  0  0999 V2000
    0.9994   -0.1328   -0.0749 O   0  0  0  0  0  0  0  0  0  0  0  0
    2.3631   -0.0706   -0.0932 C   0  0  0  0  0  0  0  0  0  0  0  0
    3.0157    1.1592   -0.1557 C   0  0  0  0  0  0  0  0  0  0  0  0
    4.4055    1.1857   -0.1791 C   0  0  0  0  0  0  0  0  0  0  0  0
    5.1153   -0.0168   -0.1394 C   0  0  0  0  0  0  0  0  0  0  0  0
    4.4730   -1.2558   -0.0788 C   0  0  0  0  0  0  0  0  0  0  0  0
    3.0771   -1.2749   -0.0479 C   0  0  0  0  0  0  0  0  0  0  0  0
    5.1467   -2.4577   -0.0120 O   0  0  0  0  0  0  0  0  0  0  0  0
    6.5531   -2.3832   -0.3750 C   0  0  1  0  0  0  0  0  0  0  0  0
    6.5948   -2.2203   -1.4634 H   0  0  0  0  0  0  0  0  0  0  0  0
    7.2153   -1.2367    0.3744 C   0  0  0  0  0  0  0  0  0  0  0  0
    6.5780    0.0195   -0.1018 C   0  0  0  0  0  0  0  0  0  0  0  0
    7.2108    1.0182   -0.4030 O   0  0  0  0  0  0  0  0  0  0  0  0
    7.2882   -3.7010   -0.1135 C   0  0  0  0  0  0  0  0  0  0  0  0
    8.6800   -3.7347    0.1263 C   0  0  0  0  0  0  0  0  0  0  0  0
    9.3883   -4.9335    0.1741 C   0  0  0  0  0  0  0  0  0  0  0  0
    8.7042   -6.1353    0.0877 C   0  0  0  0  0  0  0  0  0  0  0  0
    7.3168   -6.1316   -0.0448 C   0  0  0  0  0  0  0  0  0  0  0  0
    6.6208   -4.9281   -0.2060 C   0  0  0  0  0  0  0  0  0  0  0  0
    0.6383    0.7689   -0.1260 H   0  0  0  0  0  0  0  0  0  0  0  0
    2.4707    2.0979   -0.1801 H   0  0  0  0  0  0  0  0  0  0  0  0
    4.9398    2.1328   -0.2084 H   0  0  0  0  0  0  0  0  0  0  0  0
    2.5347   -2.2145    0.0076 H   0  0  0  0  0  0  0  0  0  0  0  0
    8.2795   -1.1358    0.1564 H   0  0  0  0  0  0  0  0  0  0  0  0
    7.0749   -1.3291    1.4574 H   0  0  0  0  0  0  0  0  0  0  0  0
    9.2673   -2.8333    0.2725 H   0  0  0  0  0  0  0  0  0  0  0  0
   10.4701   -4.9170    0.2823 H   0  0  0  0  0  0  0  0  0  0  0  0
    9.2527   -7.0716    0.1295 H   0  0  0  0  0  0  0  0  0  0  0  0
    6.7743   -7.0726   -0.0355 H   0  0  0  0  0  0  0  0  0  0  0  0
    5.5518   -4.9601   -0.4057 H   0  0  0  0  0  0  0  0  0  0  0  0
  1  2  1  0  0  0  0
  1 20  1  0  0  0  0
  2  3  2  0  0  0  0
  2  7  1  0  0  0  0
  3  4  1  0  0  0  0
  3 21  1  0  0  0  0
  4  5  2  0  0  0  0
  4 22  1  0  0  0  0
  5  6  1  0  0  0  0
  5 12  1  0  0  0  0
  6  7  2  0  0  0  0
  6  8  1  0  0  0  0
  7 23  1  0  0  0  0
  8  9  1  0  0  0  0
  9 10  1  6  0  0  0
  9 11  1  0  0  0  0
  9 14  1  0  0  0  0
 11 12  1  0  0  0  0
 11 24  1  0  0  0  0
 11 25  1  0  0  0  0
 12 13  2  0  0  0  0
 14 15  2  0  0  0  0
 14 19  1  0  0  0  0
 15 16  1  0  0  0  0
 15 26  1  0  0  0  0
 16 17  2  0  0  0  0
 16 27  1  0  0  0  0
 17 18  1  0  0  0  0
 17 28  1  0  0  0  0
 18 19  2  0  0  0  0
 18 29  1  0  0  0  0
 19 30  1  0  0  0  0
M  END
$$$$
