DDR
 OpenBabel04121316103D

 72 71  0  0  1  0  0  0  0  0999 V2000
    0.9156   -0.0610   -0.0492 C   0  0  0  0  0  0  0  0  0  0  0  0
    2.4316   -0.0553   -0.0535 C   0  0  0  0  0  0  0  0  0  0  0  0
    2.9547    1.0759   -0.9266 C   0  0  0  0  0  0  0  0  0  0  0  0
    4.4747    1.0847   -0.9334 C   0  0  0  0  0  0  0  0  0  0  0  0
    4.9843    2.2182   -1.8081 C   0  0  0  0  0  0  0  0  0  0  0  0
    6.5012    2.2304   -1.8175 C   0  0  0  0  0  0  0  0  0  0  0  0
    7.0093    3.3656   -2.6942 C   0  0  0  0  0  0  0  0  0  0  0  0
    8.5238    3.3557   -2.6893 C   0  0  0  0  0  0  0  0  0  0  0  0
    9.1140    4.4578   -3.5505 C   0  0  0  0  0  0  0  0  0  0  0  0
   10.6174    4.3386   -3.4911 C   0  0  0  0  0  0  0  0  0  0  0  0
   11.2488    3.5646   -2.7782 O   0  0  0  0  0  0  0  0  0  0  0  0
   11.1860    5.2246   -4.3268 O   0  0  0  0  0  0  0  0  0  0  0  0
   12.6107    5.3429   -4.2646 C   0  0  0  0  0  0  0  0  0  0  0  0
   13.0604    6.5348   -5.1250 C   0  0  1  0  0  0  0  0  0  0  0  0
   12.6778    6.4612   -6.1518 H   0  0  0  0  0  0  0  0  0  0  0  0
   12.5827    7.7776   -4.5445 O   0  0  0  0  0  0  0  0  0  0  0  0
   11.2572    8.0259   -4.7125 C   0  0  0  0  0  0  0  0  0  0  0  0
   10.4786    7.3284   -5.3577 O   0  0  0  0  0  0  0  0  0  0  0  0
   10.8385    9.3000   -4.0452 C   0  0  0  0  0  0  0  0  0  0  0  0
    9.3134    9.3203   -4.0108 C   0  0  0  0  0  0  0  0  0  0  0  0
    8.7896   10.6295   -3.4686 C   0  0  0  0  0  0  0  0  0  0  0  0
    7.2696   10.6154   -3.4776 C   0  0  0  0  0  0  0  0  0  0  0  0
    6.7475   11.9332   -2.9378 C   0  0  0  0  0  0  0  0  0  0  0  0
    5.2291   11.9358   -2.9374 C   0  0  0  0  0  0  0  0  0  0  0  0
    4.7133   13.2581   -2.3941 C   0  0  0  0  0  0  0  0  0  0  0  0
    3.1920   13.2738   -2.3877 C   0  0  0  0  0  0  0  0  0  0  0  0
    2.6803   14.5935   -1.8454 C   0  0  0  0  0  0  0  0  0  0  0  0
   14.5953    6.5650   -5.1557 C   0  0  0  0  0  0  0  0  0  0  0  0
   15.0979    7.6134   -5.9805 O   0  0  0  0  0  0  0  0  0  0  0  0
    0.5416   -0.8740    0.5783 H   0  0  0  0  0  0  0  0  0  0  0  0
    0.5268   -0.1991   -1.0631 H   0  0  0  0  0  0  0  0  0  0  0  0
    0.5268    0.8849    0.3414 H   0  0  0  0  0  0  0  0  0  0  0  0
    2.8027   -1.0170   -0.4268 H   0  0  0  0  0  0  0  0  0  0  0  0
    2.8027    0.0621    0.9714 H   0  0  0  0  0  0  0  0  0  0  0  0
    2.5819    2.0383   -0.5544 H   0  0  0  0  0  0  0  0  0  0  0  0
    2.5820    0.9598   -1.9519 H   0  0  0  0  0  0  0  0  0  0  0  0
    4.8529    0.1260   -1.3090 H   0  0  0  0  0  0  0  0  0  0  0  0
    4.8528    1.2051    0.0893 H   0  0  0  0  0  0  0  0  0  0  0  0
    4.6086    3.1780   -1.4331 H   0  0  0  0  0  0  0  0  0  0  0  0
    4.6087    2.0986   -2.8316 H   0  0  0  0  0  0  0  0  0  0  0  0
    6.8799    1.2704   -2.1910 H   0  0  0  0  0  0  0  0  0  0  0  0
    6.8801    2.3486   -0.7942 H   0  0  0  0  0  0  0  0  0  0  0  0
    6.6366    4.3254   -2.3174 H   0  0  0  0  0  0  0  0  0  0  0  0
    6.6349    3.2444   -3.7174 H   0  0  0  0  0  0  0  0  0  0  0  0
    8.8850    2.3844   -3.0506 H   0  0  0  0  0  0  0  0  0  0  0  0
    8.8865    3.4663   -1.6591 H   0  0  0  0  0  0  0  0  0  0  0  0
    8.8024    5.4415   -3.1779 H   0  0  0  0  0  0  0  0  0  0  0  0
    8.7744    4.3519   -4.5877 H   0  0  0  0  0  0  0  0  0  0  0  0
   13.0441    4.4138   -4.6461 H   0  0  0  0  0  0  0  0  0  0  0  0
   12.9147    5.5076   -3.2237 H   0  0  0  0  0  0  0  0  0  0  0  0
   11.2221   10.1340   -4.6409 H   0  0  0  0  0  0  0  0  0  0  0  0
   11.2383    9.3598   -3.0268 H   0  0  0  0  0  0  0  0  0  0  0  0
    8.9415    8.4837   -3.4034 H   0  0  0  0  0  0  0  0  0  0  0  0
    8.9137    9.1703   -5.0230 H   0  0  0  0  0  0  0  0  0  0  0  0
    9.1575   11.4572   -4.0864 H   0  0  0  0  0  0  0  0  0  0  0  0
    9.1593   10.7846   -2.4489 H   0  0  0  0  0  0  0  0  0  0  0  0
    6.8965    9.7841   -2.8662 H   0  0  0  0  0  0  0  0  0  0  0  0
    6.8987   10.4556   -4.4983 H   0  0  0  0  0  0  0  0  0  0  0  0
    7.1233   12.7599   -3.5533 H   0  0  0  0  0  0  0  0  0  0  0  0
    7.1229   12.0896   -1.9192 H   0  0  0  0  0  0  0  0  0  0  0  0
    4.8563   11.1071   -2.3231 H   0  0  0  0  0  0  0  0  0  0  0  0
    4.8567   11.7785   -3.9570 H   0  0  0  0  0  0  0  0  0  0  0  0
    5.0934   14.0833   -3.0093 H   0  0  0  0  0  0  0  0  0  0  0  0
    5.0934   13.4124   -1.3766 H   0  0  0  0  0  0  0  0  0  0  0  0
    2.8131   12.4500   -1.7715 H   0  0  0  0  0  0  0  0  0  0  0  0
    2.8131   13.1213   -3.4051 H   0  0  0  0  0  0  0  0  0  0  0  0
    3.0318   14.7526   -0.8209 H   0  0  0  0  0  0  0  0  0  0  0  0
    1.5874   14.6031   -1.8414 H   0  0  0  0  0  0  0  0  0  0  0  0
    3.0318   15.4270   -2.4620 H   0  0  0  0  0  0  0  0  0  0  0  0
   14.9948    5.6187   -5.5372 H   0  0  0  0  0  0  0  0  0  0  0  0
   14.9971    6.7262   -4.1501 H   0  0  0  0  0  0  0  0  0  0  0  0
   14.7437    7.4906   -6.8773 H   0  0  0  0  0  0  0  0  0  0  0  0
  1  2  1  0  0  0  0
  1 30  1  0  0  0  0
  1 31  1  0  0  0  0
  1 32  1  0  0  0  0
  2  3  1  0  0  0  0
  2 33  1  0  0  0  0
  2 34  1  0  0  0  0
  3  4  1  0  0  0  0
  3 35  1  0  0  0  0
  3 36  1  0  0  0  0
  4  5  1  0  0  0  0
  4 37  1  0  0  0  0
  4 38  1  0  0  0  0
  5  6  1  0  0  0  0
  5 39  1  0  0  0  0
  5 40  1  0  0  0  0
  6  7  1  0  0  0  0
  6 41  1  0  0  0  0
  6 42  1  0  0  0  0
  7  8  1  0  0  0  0
  7 43  1  0  0  0  0
  7 44  1  0  0  0  0
  8  9  1  0  0  0  0
  8 45  1  0  0  0  0
  8 46  1  0  0  0  0
  9 10  1  0  0  0  0
  9 47  1  0  0  0  0
  9 48  1  0  0  0  0
 10 11  2  0  0  0  0
 10 12  1  0  0  0  0
 12 13  1  0  0  0  0
 13 14  1  0  0  0  0
 13 49  1  0  0  0  0
 13 50  1  0  0  0  0
 14 15  1  6  0  0  0
 14 16  1  0  0  0  0
 14 28  1  0  0  0  0
 16 17  1  0  0  0  0
 17 18  2  0  0  0  0
 17 19  1  0  0  0  0
 19 20  1  0  0  0  0
 19 51  1  0  0  0  0
 19 52  1  0  0  0  0
 20 21  1  0  0  0  0
 20 53  1  0  0  0  0
 20 54  1  0  0  0  0
 21 22  1  0  0  0  0
 21 55  1  0  0  0  0
 21 56  1  0  0  0  0
 22 23  1  0  0  0  0
 22 57  1  0  0  0  0
 22 58  1  0  0  0  0
 23 24  1  0  0  0  0
 23 59  1  0  0  0  0
 23 60  1  0  0  0  0
 24 25  1  0  0  0  0
 24 61  1  0  0  0  0
 24 62  1  0  0  0  0
 25 26  1  0  0  0  0
 25 63  1  0  0  0  0
 25 64  1  0  0  0  0
 26 27  1  0  0  0  0
 26 65  1  0  0  0  0
 26 66  1  0  0  0  0
 27 67  1  0  0  0  0
 27 68  1  0  0  0  0
 27 69  1  0  0  0  0
 28 29  1  0  0  0  0
 28 70  1  0  0  0  0
 28 71  1  0  0  0  0
 29 72  1  0  0  0  0
M  END
$$$$
