DDS
 OpenBabel04121316103D

 45 47  0  0  1  0  0  0  0  0999 V2000
   13.1264  -12.8002    1.3712 N   0  0  0  0  0  0  0  0  0  0  0  0
   11.9212  -12.5814    1.9976 C   0  0  0  0  0  0  0  0  0  0  0  0
   11.5754  -13.3830    3.0313 N   0  0  0  0  0  0  0  0  0  0  0  0
   10.3897  -13.1654    3.6376 C   0  0  0  0  0  0  0  0  0  0  0  0
    9.4628  -12.2299    3.3509 N   0  0  0  0  0  0  0  0  0  0  0  0
    9.8602  -11.4494    2.3302 C   0  0  0  0  0  0  0  0  0  0  0  0
   11.0377  -11.5580    1.6116 C   0  0  0  0  0  0  0  0  0  0  0  0
   11.0970  -10.5961    0.6231 N   0  0  0  0  0  0  0  0  0  0  0  0
    9.9825   -9.9030    0.7579 C   0  0  0  0  0  0  0  0  0  0  0  0
    9.2108  -10.3648    1.7901 N   0  0  0  0  0  0  0  0  0  0  0  0
    7.9283   -9.8598    2.2451 C   0  0  1  0  0  0  0  0  0  0  0  0
    7.1532  -10.5108    1.8236 H   0  0  0  0  0  0  0  0  0  0  0  0
    7.8326   -9.7324    3.7543 C   0  0  0  0  0  0  0  0  0  0  0  0
    6.7106   -8.7557    3.9359 C   0  0  0  0  0  0  0  0  0  0  0  0
    6.9669   -7.7998    2.8033 C   0  0  2  0  0  0  0  0  0  0  0  0
    6.0210   -7.4579    2.3597 H   0  0  0  0  0  0  0  0  0  0  0  0
    7.6703   -8.5255    1.7546 O   0  0  0  0  0  0  0  0  0  0  0  0
    7.7924   -6.5854    3.2164 C   0  0  0  0  0  0  0  0  0  0  0  0
    8.0385   -6.3944    4.6498 O   0  0  0  0  0  0  0  0  0  0  0  0
    8.0402   -4.8136    5.1960 P   0  0  2  0  0  0  0  0  0  0  0  0
    8.2301   -4.2798    3.7594 O   0  0  0  0  0  0  0  0  0  0  0  0
    9.6854   -4.4211    5.5593 O   0  0  0  0  0  0  0  0  0  0  0  0
   10.4344   -3.7265    4.1631 P   0  0  1  0  0  0  0  0  0  0  0  0
   10.3586   -4.9737    3.2981 O   0  0  0  0  0  0  0  0  0  0  0  0
    9.4547   -2.4197    4.2996 O   0  0  0  0  0  0  0  0  0  0  0  0
    8.4300   -1.8293    5.3813 P   0  0  0  0  0  0  0  0  0  0  0  0
    8.6806   -0.4650    5.9538 O   0  0  0  0  0  0  0  0  0  0  0  0
    7.0467   -1.9662    4.5916 O   0  0  0  0  0  0  0  0  0  0  0  0
    8.1046   -2.8368    6.6052 O   0  0  0  0  0  0  0  0  0  0  0  0
   11.1834   -3.0318    2.7669 O   0  0  0  0  0  0  0  0  0  0  0  0
    7.8275   -5.4116    6.8053 O   0  0  0  0  0  0  0  0  0  0  0  0
   13.7106  -13.5537    1.6931 H   0  0  0  0  0  0  0  0  0  0  0  0
   13.3808  -12.2044    0.5965 H   0  0  0  0  0  0  0  0  0  0  0  0
   10.1545  -13.8298    4.4650 H   0  0  0  0  0  0  0  0  0  0  0  0
    9.6929   -9.0614    0.1409 H   0  0  0  0  0  0  0  0  0  0  0  0
    8.7623   -9.3006    4.1490 H   0  0  0  0  0  0  0  0  0  0  0  0
    7.6385  -10.6769    4.2599 H   0  0  0  0  0  0  0  0  0  0  0  0
    6.7021   -8.2920    4.9242 H   0  0  0  0  0  0  0  0  0  0  0  0
    5.7404   -9.2418    3.7960 H   0  0  0  0  0  0  0  0  0  0  0  0
    8.7592   -6.6059    2.7096 H   0  0  0  0  0  0  0  0  0  0  0  0
    7.2073   -5.7556    2.7936 H   0  0  0  0  0  0  0  0  0  0  0  0
    7.1863   -2.5360    3.7953 H   0  0  0  0  0  0  0  0  0  0  0  0
    7.8119   -2.3369    7.4010 H   0  0  0  0  0  0  0  0  0  0  0  0
   11.4568   -3.8141    2.2435 H   0  0  0  0  0  0  0  0  0  0  0  0
    7.8124   -4.6182    7.3722 H   0  0  0  0  0  0  0  0  0  0  0  0
  1  2  1  0  0  0  0
  1 32  1  0  0  0  0
  1 33  1  0  0  0  0
  2  3  2  0  0  0  0
  2  7  1  0  0  0  0
  3  4  1  0  0  0  0
  4  5  2  0  0  0  0
  4 34  1  0  0  0  0
  5  6  1  0  0  0  0
  6  7  2  0  0  0  0
  6 10  1  0  0  0  0
  7  8  1  0  0  0  0
  8  9  2  0  0  0  0
  9 10  1  0  0  0  0
  9 35  1  0  0  0  0
 10 11  1  0  0  0  0
 11 12  1  6  0  0  0
 11 13  1  0  0  0  0
 11 17  1  0  0  0  0
 13 14  1  0  0  0  0
 13 36  1  0  0  0  0
 13 37  1  0  0  0  0
 14 15  1  0  0  0  0
 14 38  1  0  0  0  0
 14 39  1  0  0  0  0
 15 17  1  0  0  0  0
 15 18  1  0  0  0  0
 15 16  1  6  0  0  0
 18 19  1  0  0  0  0
 18 40  1  0  0  0  0
 18 41  1  0  0  0  0
 20 22  1  1  0  0  0
 20 31  1  0  0  0  0
 20 21  2  0  0  0  0
 20 19  1  0  0  0  0
 23 22  1  1  0  0  0
 23 24  2  0  0  0  0
 23 25  1  0  0  0  0
 23 30  1  0  0  0  0
 25 26  1  0  0  0  0
 26 27  2  0  0  0  0
 26 28  1  0  0  0  0
 26 29  1  0  0  0  0
 28 42  1  0  0  0  0
 29 43  1  0  0  0  0
 30 44  1  0  0  0  0
 31 45  1  0  0  0  0
M  END
$$$$
