DEG
 OpenBabel04121316103D

 36 36  0  0  1  0  0  0  0  0999 V2000
    1.0194    0.0412   -0.0608 C   0  0  0  0  0  0  0  0  0  0  0  0
    2.5337    0.0168   -0.0539 C   0  0  0  0  0  0  0  0  0  0  0  0
    3.0659   -1.3603   -0.4391 C   0  0  0  0  0  0  0  0  0  0  0  0
    4.5829   -1.3378   -0.4257 C   0  0  0  0  0  0  0  0  0  0  0  0
    5.0865   -2.5937   -0.8693 O   0  0  0  0  0  0  0  0  0  0  0  0
    6.5208   -2.6343   -0.9078 C   0  0  1  0  0  0  0  0  0  0  0  0
    6.9101   -2.4777    0.1053 H   0  0  0  0  0  0  0  0  0  0  0  0
    6.9388   -3.9584   -1.2938 O   0  0  0  0  0  0  0  0  0  0  0  0
    6.5487   -4.3240   -2.6259 C   0  0  2  0  0  0  0  0  0  0  0  0
    5.4526   -4.3582   -2.6740 H   0  0  0  0  0  0  0  0  0  0  0  0
    7.0532   -5.7478   -2.9149 C   0  0  0  0  0  0  0  0  0  0  0  0
    6.6429   -6.2326   -4.1910 O   0  0  0  0  0  0  0  0  0  0  0  0
    7.0682   -3.3144   -3.6696 C   0  0  2  0  0  0  0  0  0  0  0  0
    8.1628   -3.3525   -3.7241 H   0  0  0  0  0  0  0  0  0  0  0  0
    6.6257   -1.9060   -3.2752 C   0  0  1  0  0  0  0  0  0  0  0  0
    5.5316   -1.8391   -3.3356 H   0  0  0  0  0  0  0  0  0  0  0  0
    7.1082   -1.5739   -1.8689 C   0  0  2  0  0  0  0  0  0  0  0  0
    6.7931   -0.5611   -1.6081 H   0  0  0  0  0  0  0  0  0  0  0  0
    8.5388   -1.5342   -1.8225 O   0  0  0  0  0  0  0  0  0  0  0  0
    7.1346   -0.9502   -4.2136 O   0  0  0  0  0  0  0  0  0  0  0  0
    6.5732   -3.5387   -4.9979 O   0  0  0  0  0  0  0  0  0  0  0  0
    0.6566    1.0318    0.2279 H   0  0  0  0  0  0  0  0  0  0  0  0
    0.6187   -0.6927    0.6446 H   0  0  0  0  0  0  0  0  0  0  0  0
    0.6330   -0.1891   -1.0585 H   0  0  0  0  0  0  0  0  0  0  0  0
    2.9020    0.2926    0.9413 H   0  0  0  0  0  0  0  0  0  0  0  0
    2.9102    0.7728   -0.7548 H   0  0  0  0  0  0  0  0  0  0  0  0
    2.7139   -1.6376   -1.4413 H   0  0  0  0  0  0  0  0  0  0  0  0
    2.6957   -2.1342    0.2423 H   0  0  0  0  0  0  0  0  0  0  0  0
    4.9666   -1.1122    0.5748 H   0  0  0  0  0  0  0  0  0  0  0  0
    4.8872   -0.5466   -1.1148 H   0  0  0  0  0  0  0  0  0  0  0  0
    6.6811   -6.4449   -2.1564 H   0  0  0  0  0  0  0  0  0  0  0  0
    8.1461   -5.7871   -2.8674 H   0  0  0  0  0  0  0  0  0  0  0  0
    5.6901   -6.1020   -4.2786 H   0  0  0  0  0  0  0  0  0  0  0  0
    8.7963   -0.9233   -2.5419 H   0  0  0  0  0  0  0  0  0  0  0  0
    6.9554   -1.3468   -5.0921 H   0  0  0  0  0  0  0  0  0  0  0  0
    5.6420   -3.8009   -4.9388 H   0  0  0  0  0  0  0  0  0  0  0  0
  1  2  1  0  0  0  0
  1 22  1  0  0  0  0
  1 23  1  0  0  0  0
  1 24  1  0  0  0  0
  2  3  1  0  0  0  0
  2 25  1  0  0  0  0
  2 26  1  0  0  0  0
  3  4  1  0  0  0  0
  3 27  1  0  0  0  0
  3 28  1  0  0  0  0
  4  5  1  0  0  0  0
  4 29  1  0  0  0  0
  4 30  1  0  0  0  0
  5  6  1  0  0  0  0
  6  7  1  1  0  0  0
  6  8  1  0  0  0  0
  6 17  1  0  0  0  0
  8  9  1  0  0  0  0
  9 10  1  6  0  0  0
  9 11  1  0  0  0  0
  9 13  1  0  0  0  0
 11 12  1  0  0  0  0
 11 31  1  0  0  0  0
 11 32  1  0  0  0  0
 12 33  1  0  0  0  0
 13 15  1  0  0  0  0
 13 21  1  0  0  0  0
 13 14  1  6  0  0  0
 15 16  1  6  0  0  0
 15 17  1  0  0  0  0
 15 20  1  0  0  0  0
 17 18  1  1  0  0  0
 17 19  1  0  0  0  0
 19 34  1  0  0  0  0
 20 35  1  0  0  0  0
 21 36  1  0  0  0  0
M  END
$$$$
