DEN
 OpenBabel04121316103D

 17 18  0  0  0  0  0  0  0  0999 V2000
    2.1267    0.7290    0.0000 C   0  0  0  0  0  0  0  0  0  0  0  0
    2.1538   -0.6763   -0.0002 C   0  0  0  0  0  0  0  0  0  0  0  0
    0.9672   -1.4106    0.0002 C   0  0  0  0  0  0  0  0  0  0  0  0
   -0.2281   -0.7134    0.0004 C   0  0  0  0  0  0  0  0  0  0  0  0
   -0.2610    0.6872    0.0019 C   0  0  0  0  0  0  0  0  0  0  0  0
    0.9110    1.4229    0.0015 C   0  0  0  0  0  0  0  0  0  0  0  0
   -1.6475    1.1262    0.0013 C   0  0  0  0  0  0  0  0  0  0  0  0
   -2.4237    0.0285   -0.0026 C   0  0  0  0  0  0  0  0  0  0  0  0
   -1.6243   -1.2512   -0.0036 C   0  0  0  0  0  0  0  0  0  0  0  0
    3.0638    1.2808   -0.0014 H   0  0  0  0  0  0  0  0  0  0  0  0
    3.1083   -1.1973   -0.0015 H   0  0  0  0  0  0  0  0  0  0  0  0
    0.9824   -2.4950   -0.0008 H   0  0  0  0  0  0  0  0  0  0  0  0
    0.8967    2.5074    0.0011 H   0  0  0  0  0  0  0  0  0  0  0  0
   -1.9716    2.1537    0.0029 H   0  0  0  0  0  0  0  0  0  0  0  0
   -3.5041    0.0403   -0.0055 H   0  0  0  0  0  0  0  0  0  0  0  0
   -1.8205   -1.8360   -0.9065 H   0  0  0  0  0  0  0  0  0  0  0  0
   -1.8250   -1.8409    0.8952 H   0  0  0  0  0  0  0  0  0  0  0  0
  1  2  2  0  0  0  0
  1  6  1  0  0  0  0
  1 10  1  0  0  0  0
  2  3  1  0  0  0  0
  2 11  1  0  0  0  0
  3  4  2  0  0  0  0
  3 12  1  0  0  0  0
  4  5  1  0  0  0  0
  4  9  1  0  0  0  0
  5  6  2  0  0  0  0
  5  7  1  0  0  0  0
  6 13  1  0  0  0  0
  7  8  2  0  0  0  0
  7 14  1  0  0  0  0
  8  9  1  0  0  0  0
  8 15  1  0  0  0  0
  9 16  1  0  0  0  0
  9 17  1  0  0  0  0
M  END
$$$$
