DEO
 OpenBabel04121316103D

 60 63  0  0  1  0  0  0  0  0999 V2000
    0.9635   -0.0231    0.1168 C   0  0  0  0  0  0  0  0  0  0  0  0
    2.4751   -0.0184    0.1201 C   0  0  0  0  0  0  0  0  0  0  0  0
    2.8845    1.1093   -0.6450 O   0  0  0  0  0  0  0  0  0  0  0  0
    4.2320    1.2346   -0.7867 C   0  0  0  0  0  0  0  0  0  0  0  0
    4.7089    2.5357   -0.8323 C   0  0  0  0  0  0  0  0  0  0  0  0
    6.0321    2.7727   -1.1763 C   0  0  0  0  0  0  0  0  0  0  0  0
    6.9399    1.7182   -1.3610 C   0  0  0  0  0  0  0  0  0  0  0  0
    6.4559    0.4144   -1.1672 C   0  0  0  0  0  0  0  0  0  0  0  0
    5.1042    0.1699   -0.9624 C   0  0  0  0  0  0  0  0  0  0  0  0
    8.3138    1.9668   -1.8314 C   0  0  0  0  0  0  0  0  0  0  0  0
    8.8031    3.2743   -1.9972 C   0  0  0  0  0  0  0  0  0  0  0  0
    9.9796    3.5095   -2.6820 C   0  0  0  0  0  0  0  0  0  0  0  0
   10.7592    2.4295   -3.0797 C   0  0  0  0  0  0  0  0  0  0  0  0
   10.4023    1.1282   -2.7592 C   0  0  0  0  0  0  0  0  0  0  0  0
    9.1513    0.9037   -2.2153 C   0  0  0  0  0  0  0  0  0  0  0  0
   11.9144    2.7117   -3.9292 C   0  0  0  0  0  0  0  0  0  0  0  0
   12.0653    3.8555   -4.3610 O   0  0  0  0  0  0  0  0  0  0  0  0
   12.8693    1.5982   -4.2624 C   0  0  0  0  0  0  0  0  0  0  0  0
   14.0904    2.1571   -5.0135 C   0  0  1  0  0  0  0  0  0  0  0  0
   13.7620    2.7124   -5.9002 H   0  0  0  0  0  0  0  0  0  0  0  0
   14.9313    3.0483   -4.1034 C   0  0  0  0  0  0  0  0  0  0  0  0
   16.0558    2.7508   -3.7260 O   0  0  0  0  0  0  0  0  0  0  0  0
   14.3777    4.2152   -3.7253 O   0  0  0  0  0  0  0  0  0  0  0  0
   14.9383    0.9640   -5.4752 C   0  0  0  0  0  0  0  0  0  0  0  0
   16.2060    1.2773   -6.3168 C   0  0  0  0  0  0  0  0  0  0  0  0
   16.9852    0.0699   -6.6738 N   0  0  0  0  0  0  0  0  0  0  0  0
   16.4973   -1.1825   -6.4814 C   0  0  0  0  0  0  0  0  0  0  0  0
   15.4369   -1.5858   -6.0169 O   0  0  0  0  0  0  0  0  0  0  0  0
   17.4709   -2.1258   -6.9369 C   0  0  0  0  0  0  0  0  0  0  0  0
   18.5675   -1.4501   -7.4183 C   0  0  0  0  0  0  0  0  0  0  0  0
   18.2502    0.0002   -7.2463 C   0  0  0  0  0  0  0  0  0  0  0  0
   18.9980    0.8998   -7.5755 O   0  0  0  0  0  0  0  0  0  0  0  0
   19.6259   -2.1969   -7.9205 C   0  0  0  0  0  0  0  0  0  0  0  0
   19.5128   -3.6119   -7.9064 C   0  0  0  0  0  0  0  0  0  0  0  0
   18.3672   -4.2556   -7.4037 C   0  0  0  0  0  0  0  0  0  0  0  0
   17.3250   -3.4984   -6.9079 C   0  0  0  0  0  0  0  0  0  0  0  0
    0.5807   -0.8434    0.7270 H   0  0  0  0  0  0  0  0  0  0  0  0
    0.5897   -0.1348   -0.9071 H   0  0  0  0  0  0  0  0  0  0  0  0
    0.5769    0.9273    0.4969 H   0  0  0  0  0  0  0  0  0  0  0  0
    2.8195   -0.9619   -0.3145 H   0  0  0  0  0  0  0  0  0  0  0  0
    2.8553    0.0809    1.1430 H   0  0  0  0  0  0  0  0  0  0  0  0
    4.0528    3.3759   -0.6299 H   0  0  0  0  0  0  0  0  0  0  0  0
    6.3160    3.8089   -1.3253 H   0  0  0  0  0  0  0  0  0  0  0  0
    7.1035   -0.4549   -1.2145 H   0  0  0  0  0  0  0  0  0  0  0  0
    4.7708   -0.8606   -0.9803 H   0  0  0  0  0  0  0  0  0  0  0  0
    8.2622    4.1495   -1.6533 H   0  0  0  0  0  0  0  0  0  0  0  0
   10.2615    4.5327   -2.9221 H   0  0  0  0  0  0  0  0  0  0  0  0
   11.0300    0.2708   -2.9760 H   0  0  0  0  0  0  0  0  0  0  0  0
    8.8395   -0.1332   -2.1453 H   0  0  0  0  0  0  0  0  0  0  0  0
   12.3197    0.8811   -4.8903 H   0  0  0  0  0  0  0  0  0  0  0  0
   13.1805    1.0905   -3.3409 H   0  0  0  0  0  0  0  0  0  0  0  0
   13.4566    4.3730   -4.0496 H   0  0  0  0  0  0  0  0  0  0  0  0
   14.2703    0.3234   -6.0676 H   0  0  0  0  0  0  0  0  0  0  0  0
   15.2337    0.3890   -4.5842 H   0  0  0  0  0  0  0  0  0  0  0  0
   16.8779    1.9664   -5.7987 H   0  0  0  0  0  0  0  0  0  0  0  0
   15.9005    1.7797   -7.2421 H   0  0  0  0  0  0  0  0  0  0  0  0
   20.5263   -1.7402   -8.3210 H   0  0  0  0  0  0  0  0  0  0  0  0
   20.3189   -4.2378   -8.2891 H   0  0  0  0  0  0  0  0  0  0  0  0
   18.2805   -5.3398   -7.3964 H   0  0  0  0  0  0  0  0  0  0  0  0
   16.4171   -3.9371   -6.5083 H   0  0  0  0  0  0  0  0  0  0  0  0
  1  2  1  0  0  0  0
  1 37  1  0  0  0  0
  1 38  1  0  0  0  0
  1 39  1  0  0  0  0
  2  3  1  0  0  0  0
  2 40  1  0  0  0  0
  2 41  1  0  0  0  0
  3  4  1  0  0  0  0
  4  5  2  0  0  0  0
  4  9  1  0  0  0  0
  5  6  1  0  0  0  0
  5 42  1  0  0  0  0
  6  7  2  0  0  0  0
  6 43  1  0  0  0  0
  7  8  1  0  0  0  0
  7 10  1  0  0  0  0
  8  9  2  0  0  0  0
  8 44  1  0  0  0  0
  9 45  1  0  0  0  0
 10 11  2  0  0  0  0
 10 15  1  0  0  0  0
 11 12  1  0  0  0  0
 11 46  1  0  0  0  0
 12 13  2  0  0  0  0
 12 47  1  0  0  0  0
 13 14  1  0  0  0  0
 13 16  1  0  0  0  0
 14 15  2  0  0  0  0
 14 48  1  0  0  0  0
 15 49  1  0  0  0  0
 16 17  2  0  0  0  0
 16 18  1  0  0  0  0
 18 19  1  0  0  0  0
 18 50  1  0  0  0  0
 18 51  1  0  0  0  0
 19 20  1  6  0  0  0
 19 21  1  0  0  0  0
 19 24  1  0  0  0  0
 21 22  2  0  0  0  0
 21 23  1  0  0  0  0
 23 52  1  0  0  0  0
 24 25  1  0  0  0  0
 24 53  1  0  0  0  0
 24 54  1  0  0  0  0
 25 26  1  0  0  0  0
 25 55  1  0  0  0  0
 25 56  1  0  0  0  0
 26 27  1  0  0  0  0
 26 31  1  0  0  0  0
 27 28  2  0  0  0  0
 27 29  1  0  0  0  0
 29 30  2  0  0  0  0
 29 36  1  0  0  0  0
 30 31  1  0  0  0  0
 30 33  1  0  0  0  0
 31 32  2  0  0  0  0
 33 34  2  0  0  0  0
 33 57  1  0  0  0  0
 34 35  1  0  0  0  0
 34 58  1  0  0  0  0
 35 36  2  0  0  0  0
 35 59  1  0  0  0  0
 36 60  1  0  0  0  0
M  END
$$$$
