DEP
 OpenBabel04121316103D

 19 18  0  0  0  0  0  0  0  0999 V2000
    1.0645   -0.1142   -0.0417 C   0  0  0  0  0  0  0  0  0  0  0  0
    2.5697   -0.0861   -0.0088 C   0  0  0  0  0  0  0  0  0  0  0  0
    3.0344    0.7712    1.0399 O   0  0  0  0  0  0  0  0  0  0  0  0
    4.7644    0.7712    1.0399 P   0  0  0  0  0  0  0  0  0  0  0  0
    4.7857   -0.6407    1.6424 O   0  0  0  0  0  0  0  0  0  0  0  0
    6.4944    0.7712    1.0399 O   0  0  0  0  0  0  0  0  0  0  0  0
    6.9924    1.4305   -0.1177 C   0  0  0  0  0  0  0  0  0  0  0  0
    8.5032    1.4208   -0.1125 C   0  0  0  0  0  0  0  0  0  0  0  0
    0.7148   -0.7929   -0.8249 H   0  0  0  0  0  0  0  0  0  0  0  0
    0.6699    0.8883   -0.2370 H   0  0  0  0  0  0  0  0  0  0  0  0
    0.6673   -0.4457    0.9207 H   0  0  0  0  0  0  0  0  0  0  0  0
    2.9688    0.2782   -0.9607 H   0  0  0  0  0  0  0  0  0  0  0  0
    2.9456   -1.1051    0.1487 H   0  0  0  0  0  0  0  0  0  0  0  0
    4.7623    1.8321    1.9690 H   0  0  0  0  0  0  0  0  0  0  0  0
    6.6176    2.4591   -0.1315 H   0  0  0  0  0  0  0  0  0  0  0  0
    6.6168    0.9109   -1.0061 H   0  0  0  0  0  0  0  0  0  0  0  0
    8.8890    1.9320    0.7747 H   0  0  0  0  0  0  0  0  0  0  0  0
    8.8930    1.9189   -1.0053 H   0  0  0  0  0  0  0  0  0  0  0  0
    8.8830    0.3947   -0.0869 H   0  0  0  0  0  0  0  0  0  0  0  0
  1  2  1  0  0  0  0
  1  9  1  0  0  0  0
  1 10  1  0  0  0  0
  1 11  1  0  0  0  0
  2  3  1  0  0  0  0
  2 12  1  0  0  0  0
  2 13  1  0  0  0  0
  3  4  1  0  0  0  0
  4  5  2  0  0  0  0
  4  6  1  0  0  0  0
  4 14  1  0  0  0  0
  6  7  1  0  0  0  0
  7  8  1  0  0  0  0
  7 15  1  0  0  0  0
  7 16  1  0  0  0  0
  8 17  1  0  0  0  0
  8 18  1  0  0  0  0
  8 19  1  0  0  0  0
M  END
$$$$
