DER
 OpenBabel04121316103D

 22 21  0  0  1  0  0  0  0  0999 V2000
    1.6716   -0.4057   -3.3406 O   0  0  0  0  0  0  0  0  0  0  0  0
    2.4670    0.3172   -2.3970 C   0  0  2  0  0  0  0  0  0  0  0  0
    3.2875    0.7626   -2.9708 H   0  0  0  0  0  0  0  0  0  0  0  0
    3.0085   -0.5946   -1.2655 C   0  0  2  0  0  0  0  0  0  0  0  0
    2.7367   -0.2125   -0.2734 H   0  0  0  0  0  0  0  0  0  0  0  0
    4.5388   -0.6134   -1.2855 C   0  0  0  0  0  0  0  0  0  0  0  0
    5.2016   -1.6477   -1.3763 O   0  0  0  0  0  0  0  0  0  0  0  0
    5.1409    0.5823   -1.0907 O   0  0  0  0  0  0  0  0  0  0  0  0
    2.4420   -1.9012   -1.3446 O   0  0  0  0  0  0  0  0  0  0  0  0
    1.6587    1.4610   -1.7852 C   0  0  0  0  0  0  0  0  0  0  0  0
    0.6110    0.9361   -0.9785 O   0  0  0  0  0  0  0  0  0  0  0  0
   -0.3039    2.2197   -0.2655 P   0  0  0  0  0  0  0  0  0  0  0  0
   -1.5864    1.6645   -0.8586 O   0  0  0  0  0  0  0  0  0  0  0  0
    0.0361    1.5855    1.1852 O   0  0  0  0  0  0  0  0  0  0  0  0
   -1.2188    3.5032    0.4474 O   0  0  0  0  0  0  0  0  0  0  0  0
    1.2444    0.2064   -3.9598 H   0  0  0  0  0  0  0  0  0  0  0  0
    4.5763    1.3583   -0.9251 H   0  0  0  0  0  0  0  0  0  0  0  0
    2.9578   -2.4851   -0.7625 H   0  0  0  0  0  0  0  0  0  0  0  0
    1.2198    2.0952   -2.5625 H   0  0  0  0  0  0  0  0  0  0  0  0
    2.3015    2.0824   -1.1496 H   0  0  0  0  0  0  0  0  0  0  0  0
    0.1242    0.6168    1.1023 H   0  0  0  0  0  0  0  0  0  0  0  0
   -1.6204    4.0292   -0.2661 H   0  0  0  0  0  0  0  0  0  0  0  0
  1 16  1  0  0  0  0
  2 10  1  0  0  0  0
  2  3  1  6  0  0  0
  2  1  1  0  0  0  0
  4  6  1  0  0  0  0
  4  9  1  0  0  0  0
  4  5  1  1  0  0  0
  4  2  1  0  0  0  0
  6  7  2  0  0  0  0
  6  8  1  0  0  0  0
  8 17  1  0  0  0  0
  9 18  1  0  0  0  0
 10 11  1  0  0  0  0
 10 19  1  0  0  0  0
 10 20  1  0  0  0  0
 11 12  1  0  0  0  0
 12 13  2  0  0  0  0
 12 14  1  0  0  0  0
 12 15  1  0  0  0  0
 14 21  1  0  0  0  0
 15 22  1  0  0  0  0
M  END
$$$$
