DES
 OpenBabel04121316103D

 40 41  0  0  0  0  0  0  0  0999 V2000
    1.1113   -0.5458    0.0866 C   0  0  0  0  0  0  0  0  0  0  0  0
    2.5467   -0.0622    0.0779 C   0  0  0  0  0  0  0  0  0  0  0  0
    2.8800    1.3752    0.5879 C   0  0  0  0  0  0  0  0  0  0  0  0
    1.9551    2.3482    0.9196 C   0  0  0  0  0  0  0  0  0  0  0  0
    0.4630    2.2432    0.8198 C   0  0  0  0  0  0  0  0  0  0  0  0
   -0.3043    2.3698    1.9832 C   0  0  0  0  0  0  0  0  0  0  0  0
   -1.6754    2.1542    2.0029 C   0  0  0  0  0  0  0  0  0  0  0  0
   -2.2703    1.6235    0.8676 C   0  0  0  0  0  0  0  0  0  0  0  0
   -1.5582    1.5259   -0.3122 C   0  0  0  0  0  0  0  0  0  0  0  0
   -0.2281    1.9759   -0.3745 C   0  0  0  0  0  0  0  0  0  0  0  0
   -3.5505    1.1668    0.9228 O   0  0  0  0  0  0  0  0  0  0  0  0
    2.3790    3.6757    1.5395 C   0  0  0  0  0  0  0  0  0  0  0  0
    1.4226    4.7289    2.0667 C   0  0  0  0  0  0  0  0  0  0  0  0
    4.4180    1.5973    0.6667 C   0  0  0  0  0  0  0  0  0  0  0  0
    5.0289    2.8720    0.6718 C   0  0  0  0  0  0  0  0  0  0  0  0
    6.4027    3.0953    0.5937 C   0  0  0  0  0  0  0  0  0  0  0  0
    7.2508    2.0281    0.5762 C   0  0  0  0  0  0  0  0  0  0  0  0
    6.7377    0.7421    0.6660 C   0  0  0  0  0  0  0  0  0  0  0  0
    5.3413    0.5365    0.6687 C   0  0  0  0  0  0  0  0  0  0  0  0
    8.5919    2.2171    0.4657 O   0  0  0  0  0  0  0  0  0  0  0  0
    0.9633   -1.5865   -0.2038 H   0  0  0  0  0  0  0  0  0  0  0  0
    0.6087   -0.0282   -0.7146 H   0  0  0  0  0  0  0  0  0  0  0  0
    0.6407   -0.3896    1.0628 H   0  0  0  0  0  0  0  0  0  0  0  0
    2.9049   -0.1384   -0.9588 H   0  0  0  0  0  0  0  0  0  0  0  0
    3.0804   -0.8187    0.6630 H   0  0  0  0  0  0  0  0  0  0  0  0
    0.1617    2.6313    2.9294 H   0  0  0  0  0  0  0  0  0  0  0  0
   -2.2227    2.3300    2.9161 H   0  0  0  0  0  0  0  0  0  0  0  0
   -2.0054    1.0298   -1.1754 H   0  0  0  0  0  0  0  0  0  0  0  0
    0.3039    1.9123   -1.3207 H   0  0  0  0  0  0  0  0  0  0  0  0
   -3.8932    1.3540    1.8118 H   0  0  0  0  0  0  0  0  0  0  0  0
    2.8258    4.2291    0.7141 H   0  0  0  0  0  0  0  0  0  0  0  0
    3.0870    3.4614    2.3532 H   0  0  0  0  0  0  0  0  0  0  0  0
    0.6420    4.9297    1.3292 H   0  0  0  0  0  0  0  0  0  0  0  0
    1.9733    5.6581    2.2376 H   0  0  0  0  0  0  0  0  0  0  0  0
    0.9933    4.4488    3.0284 H   0  0  0  0  0  0  0  0  0  0  0  0
    4.5106    3.8017    0.7355 H   0  0  0  0  0  0  0  0  0  0  0  0
    6.7500    4.1266    0.5541 H   0  0  0  0  0  0  0  0  0  0  0  0
    7.4124   -0.1024    0.7196 H   0  0  0  0  0  0  0  0  0  0  0  0
    5.0289   -0.5044    0.6680 H   0  0  0  0  0  0  0  0  0  0  0  0
    8.7355    3.1638    0.2864 H   0  0  0  0  0  0  0  0  0  0  0  0
  1  2  1  0  0  0  0
  1 21  1  0  0  0  0
  1 22  1  0  0  0  0
  1 23  1  0  0  0  0
  2  3  1  0  0  0  0
  2 24  1  0  0  0  0
  2 25  1  0  0  0  0
  3  4  2  0  0  0  0
  3 14  1  0  0  0  0
  4  5  1  0  0  0  0
  4 12  1  0  0  0  0
  5  6  2  0  0  0  0
  5 10  1  0  0  0  0
  6  7  1  0  0  0  0
  6 26  1  0  0  0  0
  7  8  2  0  0  0  0
  7 27  1  0  0  0  0
  8  9  1  0  0  0  0
  8 11  1  0  0  0  0
  9 10  2  0  0  0  0
  9 28  1  0  0  0  0
 10 29  1  0  0  0  0
 11 30  1  0  0  0  0
 12 13  1  0  0  0  0
 12 31  1  0  0  0  0
 12 32  1  0  0  0  0
 13 33  1  0  0  0  0
 13 34  1  0  0  0  0
 13 35  1  0  0  0  0
 14 15  2  0  0  0  0
 14 19  1  0  0  0  0
 15 16  1  0  0  0  0
 15 36  1  0  0  0  0
 16 17  2  0  0  0  0
 16 37  1  0  0  0  0
 17 18  1  0  0  0  0
 17 20  1  0  0  0  0
 18 19  2  0  0  0  0
 18 38  1  0  0  0  0
 19 39  1  0  0  0  0
 20 40  1  0  0  0  0
M  END
$$$$
