DFU
 OpenBabel04121316103D

 23 23  0  0  1  0  0  0  0  0999 V2000
    2.9975    0.1998    1.3734 O   0  0  0  0  0  0  0  0  0  0  0  0
    2.5178   -0.0718    0.0548 C   0  0  2  0  0  0  0  0  0  0  0  0
    1.4245   -0.0509    0.1245 H   0  0  0  0  0  0  0  0  0  0  0  0
    2.9868   -1.4658   -0.3869 C   0  0  0  0  0  0  0  0  0  0  0  0
    2.5666   -1.8183   -1.7446 N   0  0  0  0  0  0  0  0  0  0  0  0
    3.0281   -0.8243   -2.7312 C   0  0  2  0  0  0  0  0  0  0  0  0
    4.1265   -0.8320   -2.7370 H   0  0  0  0  0  0  0  0  0  0  0  0
    2.5430    0.6040   -2.3830 C   0  0  2  0  0  0  0  0  0  0  0  0
    2.9432    1.3271   -3.1031 H   0  0  0  0  0  0  0  0  0  0  0  0
    2.9976    0.9833   -0.9613 C   0  0  1  0  0  0  0  0  0  0  0  0
    4.0906    1.0585   -0.9268 H   0  0  0  0  0  0  0  0  0  0  0  0
    2.4915    2.2768   -0.6150 O   0  0  0  0  0  0  0  0  0  0  0  0
    1.1109    0.7140   -2.4689 O   0  0  0  0  0  0  0  0  0  0  0  0
    2.5551   -1.2633   -4.1160 C   0  0  0  0  0  0  0  0  0  0  0  0
    3.9527    0.3546    1.3258 H   0  0  0  0  0  0  0  0  0  0  0  0
    2.6102   -2.2174    0.3163 H   0  0  0  0  0  0  0  0  0  0  0  0
    4.0806   -1.5289   -0.3139 H   0  0  0  0  0  0  0  0  0  0  0  0
    1.5547   -1.9284   -1.7888 H   0  0  0  0  0  0  0  0  0  0  0  0
    1.5310    2.2541   -0.7852 H   0  0  0  0  0  0  0  0  0  0  0  0
    0.7170   -0.0185   -1.9656 H   0  0  0  0  0  0  0  0  0  0  0  0
    1.4626   -1.2937   -4.1848 H   0  0  0  0  0  0  0  0  0  0  0  0
    2.9341   -2.2629   -4.3588 H   0  0  0  0  0  0  0  0  0  0  0  0
    2.9247   -0.5750   -4.8836 H   0  0  0  0  0  0  0  0  0  0  0  0
  1 15  1  0  0  0  0
  2  4  1  0  0  0  0
  2 10  1  0  0  0  0
  2  3  1  1  0  0  0
  2  1  1  0  0  0  0
  4  5  1  0  0  0  0
  4 16  1  0  0  0  0
  4 17  1  0  0  0  0
  5  6  1  0  0  0  0
  5 18  1  0  0  0  0
  6  8  1  0  0  0  0
  6 14  1  0  0  0  0
  6  7  1  1  0  0  0
  8 10  1  0  0  0  0
  8 13  1  0  0  0  0
  8  9  1  6  0  0  0
 10 12  1  0  0  0  0
 10 11  1  1  0  0  0
 12 19  1  0  0  0  0
 13 20  1  0  0  0  0
 14 21  1  0  0  0  0
 14 22  1  0  0  0  0
 14 23  1  0  0  0  0
M  END
$$$$
