DGB
 OpenBabel04121316103D

 60 62  0  0  0  0  0  0  0  0999 V2000
    0.8674    0.0273   -0.0138 O   0  0  0  0  0  0  0  0  0  0  0  0
    2.0959   -0.0285    0.0355 C   0  0  0  0  0  0  0  0  0  0  0  0
    2.8606   -1.0043    0.8967 C   0  0  0  0  0  0  0  0  0  0  0  0
    1.9018   -1.8813    1.6871 C   0  0  0  0  0  0  0  0  0  0  0  0
    2.6123   -2.8962    2.5340 C   0  0  0  0  0  0  0  0  0  0  0  0
    3.6857   -2.5665    3.3657 C   0  0  0  0  0  0  0  0  0  0  0  0
    4.2984   -3.5572    4.1224 C   0  0  0  0  0  0  0  0  0  0  0  0
    3.8596   -4.8604    3.9689 C   0  0  0  0  0  0  0  0  0  0  0  0
    2.8030   -5.2125    3.2079 N   0  0  0  0  0  0  0  0  0  0  0  0
    2.1795   -4.2174    2.5426 C   0  0  0  0  0  0  0  0  0  0  0  0
    2.8389    0.8330   -0.7101 N   0  0  0  0  0  0  0  0  0  0  0  0
    4.2751    0.8738   -0.7348 C   0  0  0  0  0  0  0  0  0  0  0  0
    4.7674    1.9614   -1.6557 C   0  0  0  0  0  0  0  0  0  0  0  0
    6.2800    1.9573   -1.6212 C   0  0  0  0  0  0  0  0  0  0  0  0
    6.8159    3.0309   -2.5362 C   0  0  0  0  0  0  0  0  0  0  0  0
    8.3517    3.0137   -2.6048 C   0  0  0  0  0  0  0  0  0  0  0  0
    8.9163    1.6341   -3.0123 C   0  0  0  0  0  0  0  0  0  0  0  0
    8.4761    1.2635   -4.4286 C   0  0  0  0  0  0  0  0  0  0  0  0
    8.8865    2.3178   -5.3540 N   0  0  0  0  0  0  0  0  0  0  0  0
    8.3259    3.6387   -5.0255 C   0  0  0  0  0  0  0  0  0  0  0  0
    8.8098    4.0564   -3.6328 C   0  0  0  0  0  0  0  0  0  0  0  0
    9.7559    1.9809   -6.3951 C   0  0  0  0  0  0  0  0  0  0  0  0
   10.1215    0.8162   -6.5972 O   0  0  0  0  0  0  0  0  0  0  0  0
   10.2055    3.0197   -7.3587 C   0  0  0  0  0  0  0  0  0  0  0  0
   10.3601    4.3521   -6.9844 C   0  0  0  0  0  0  0  0  0  0  0  0
   10.2747    5.3551   -7.9386 C   0  0  0  0  0  0  0  0  0  0  0  0
   10.3852    5.0200   -9.2793 C   0  0  0  0  0  0  0  0  0  0  0  0
   10.5645    3.6860   -9.6468 C   0  0  0  0  0  0  0  0  0  0  0  0
   10.4000    2.6764   -8.6974 C   0  0  0  0  0  0  0  0  0  0  0  0
    3.5050   -0.4308    1.5726 H   0  0  0  0  0  0  0  0  0  0  0  0
    3.5014   -1.6263    0.2585 H   0  0  0  0  0  0  0  0  0  0  0  0
    1.2421   -2.3947    0.9750 H   0  0  0  0  0  0  0  0  0  0  0  0
    1.2599   -1.2670    2.3287 H   0  0  0  0  0  0  0  0  0  0  0  0
    4.0521   -1.5462    3.4372 H   0  0  0  0  0  0  0  0  0  0  0  0
    5.0990   -3.3177    4.8122 H   0  0  0  0  0  0  0  0  0  0  0  0
    4.3588   -5.6809    4.4741 H   0  0  0  0  0  0  0  0  0  0  0  0
    1.2874   -4.5198    1.9994 H   0  0  0  0  0  0  0  0  0  0  0  0
    2.3001    1.4762   -1.2784 H   0  0  0  0  0  0  0  0  0  0  0  0
    4.6450   -0.1059   -1.0608 H   0  0  0  0  0  0  0  0  0  0  0  0
    4.6396    1.0478    0.2837 H   0  0  0  0  0  0  0  0  0  0  0  0
    4.3791    2.9388   -1.3492 H   0  0  0  0  0  0  0  0  0  0  0  0
    4.4083    1.7764   -2.6771 H   0  0  0  0  0  0  0  0  0  0  0  0
    6.6089    0.9666   -1.9510 H   0  0  0  0  0  0  0  0  0  0  0  0
    6.6588    2.1147   -0.6065 H   0  0  0  0  0  0  0  0  0  0  0  0
    6.4712    4.0220   -2.2168 H   0  0  0  0  0  0  0  0  0  0  0  0
    6.3577    2.8662   -3.5153 H   0  0  0  0  0  0  0  0  0  0  0  0
    8.7490    3.2803   -1.6173 H   0  0  0  0  0  0  0  0  0  0  0  0
    8.6191    0.8527   -2.3069 H   0  0  0  0  0  0  0  0  0  0  0  0
   10.0122    1.6681   -2.9707 H   0  0  0  0  0  0  0  0  0  0  0  0
    7.3846    1.1774   -4.4953 H   0  0  0  0  0  0  0  0  0  0  0  0
    8.8786    0.2847   -4.7016 H   0  0  0  0  0  0  0  0  0  0  0  0
    7.2394    3.5606   -5.0908 H   0  0  0  0  0  0  0  0  0  0  0  0
    8.5182    4.4272   -5.7393 H   0  0  0  0  0  0  0  0  0  0  0  0
    8.4303    5.0512   -3.3749 H   0  0  0  0  0  0  0  0  0  0  0  0
    9.9070    4.1197   -3.6115 H   0  0  0  0  0  0  0  0  0  0  0  0
   10.4410    4.6278   -5.9393 H   0  0  0  0  0  0  0  0  0  0  0  0
   10.1177    6.3836   -7.6261 H   0  0  0  0  0  0  0  0  0  0  0  0
   10.3613    5.8025  -10.0310 H   0  0  0  0  0  0  0  0  0  0  0  0
   10.7855    3.4330  -10.6790 H   0  0  0  0  0  0  0  0  0  0  0  0
   10.4030    1.6321   -9.0038 H   0  0  0  0  0  0  0  0  0  0  0  0
  1  2  2  0  0  0  0
  2  3  1  0  0  0  0
  2 11  1  0  0  0  0
  3  4  1  0  0  0  0
  3 30  1  0  0  0  0
  3 31  1  0  0  0  0
  4  5  1  0  0  0  0
  4 32  1  0  0  0  0
  4 33  1  0  0  0  0
  5  6  2  0  0  0  0
  5 10  1  0  0  0  0
  6  7  1  0  0  0  0
  6 34  1  0  0  0  0
  7  8  2  0  0  0  0
  7 35  1  0  0  0  0
  8  9  1  0  0  0  0
  8 36  1  0  0  0  0
  9 10  2  0  0  0  0
 10 37  1  0  0  0  0
 11 12  1  0  0  0  0
 11 38  1  0  0  0  0
 12 13  1  0  0  0  0
 12 39  1  0  0  0  0
 12 40  1  0  0  0  0
 13 14  1  0  0  0  0
 13 41  1  0  0  0  0
 13 42  1  0  0  0  0
 14 15  1  0  0  0  0
 14 43  1  0  0  0  0
 14 44  1  0  0  0  0
 15 16  1  0  0  0  0
 15 45  1  0  0  0  0
 15 46  1  0  0  0  0
 16 17  1  0  0  0  0
 16 21  1  0  0  0  0
 16 47  1  0  0  0  0
 17 18  1  0  0  0  0
 17 48  1  0  0  0  0
 17 49  1  0  0  0  0
 18 19  1  0  0  0  0
 18 50  1  0  0  0  0
 18 51  1  0  0  0  0
 19 20  1  0  0  0  0
 19 22  1  0  0  0  0
 20 21  1  0  0  0  0
 20 52  1  0  0  0  0
 20 53  1  0  0  0  0
 21 54  1  0  0  0  0
 21 55  1  0  0  0  0
 22 23  2  0  0  0  0
 22 24  1  0  0  0  0
 24 25  2  0  0  0  0
 24 29  1  0  0  0  0
 25 26  1  0  0  0  0
 25 56  1  0  0  0  0
 26 27  2  0  0  0  0
 26 57  1  0  0  0  0
 27 28  1  0  0  0  0
 27 58  1  0  0  0  0
 28 29  2  0  0  0  0
 28 59  1  0  0  0  0
 29 60  1  0  0  0  0
M  END
$$$$
