DGD
 OpenBabel04121316103D

162163  0  0  1  0  0  0  0  0999 V2000
   20.5151   43.2428    1.8281 C   0  0  0  0  0  0  0  0  0  0  0  0
   20.1318   41.8498    2.2870 C   0  0  0  0  0  0  0  0  0  0  0  0
   20.9614   40.8043    1.5560 C   0  0  0  0  0  0  0  0  0  0  0  0
   20.5790   39.4067    2.0144 C   0  0  0  0  0  0  0  0  0  0  0  0
   21.4118   38.3702    1.2796 C   0  0  0  0  0  0  0  0  0  0  0  0
   21.0281   36.9753    1.7391 C   0  0  0  0  0  0  0  0  0  0  0  0
   21.8604   35.9409    1.0045 C   0  0  0  0  0  0  0  0  0  0  0  0
   21.4756   34.5475    1.4650 C   0  0  0  0  0  0  0  0  0  0  0  0
   22.3079   33.5137    0.7306 C   0  0  0  0  0  0  0  0  0  0  0  0
   21.9228   32.1208    1.1913 C   0  0  0  0  0  0  0  0  0  0  0  0
   22.7550   31.0872    0.4568 C   0  0  0  0  0  0  0  0  0  0  0  0
   22.3706   29.6939    0.9169 C   0  0  0  0  0  0  0  0  0  0  0  0
   23.2048   28.6627    0.1805 C   0  0  0  0  0  0  0  0  0  0  0  0
   22.8253   27.2679    0.6359 C   0  0  0  0  0  0  0  0  0  0  0  0
   23.6618   26.2353   -0.1032 C   0  0  0  0  0  0  0  0  0  0  0  0
   23.2647   24.8518    0.3655 C   0  0  0  0  0  0  0  0  0  0  0  0
   24.0514   23.7591   -0.3329 C   0  0  0  0  0  0  0  0  0  0  0  0
   23.5561   22.4307    0.1933 C   0  0  0  0  0  0  0  0  0  0  0  0
   22.7589   22.2696    1.0968 O   0  0  0  0  0  0  0  0  0  0  0  0
   24.1503   21.4282   -0.4838 O   0  0  0  0  0  0  0  0  0  0  0  0
   23.9105   20.1082    0.0032 C   0  0  0  0  0  0  0  0  0  0  0  0
   24.8233   19.1132   -0.7326 C   0  0  1  0  0  0  0  0  0  0  0  0
   24.7123   19.1825   -1.8231 H   0  0  0  0  0  0  0  0  0  0  0  0
   26.2086   19.3593   -0.3850 O   0  0  0  0  0  0  0  0  0  0  0  0
   26.7592   20.4559   -0.9762 C   0  0  0  0  0  0  0  0  0  0  0  0
   26.2063   21.1890   -1.7770 O   0  0  0  0  0  0  0  0  0  0  0  0
   28.1799   20.6562   -0.5375 C   0  0  0  0  0  0  0  0  0  0  0  0
   28.5916   22.0584   -0.9719 C   0  0  0  0  0  0  0  0  0  0  0  0
   30.0516   22.3158   -0.6863 C   0  0  0  0  0  0  0  0  0  0  0  0
   30.4244   23.7105   -1.1587 C   0  0  0  0  0  0  0  0  0  0  0  0
   31.8917   23.9612   -0.8753 C   0  0  0  0  0  0  0  0  0  0  0  0
   32.2804   25.3509   -1.3390 C   0  0  0  0  0  0  0  0  0  0  0  0
   33.7494   25.5930   -1.0500 C   0  0  0  0  0  0  0  0  0  0  0  0
   34.1423   26.9827   -1.5120 C   0  0  0  0  0  0  0  0  0  0  0  0
   35.6113   27.2249   -1.2229 C   0  0  0  0  0  0  0  0  0  0  0  0
   36.0044   28.6150   -1.6850 C   0  0  0  0  0  0  0  0  0  0  0  0
   37.4737   28.8579   -1.3962 C   0  0  0  0  0  0  0  0  0  0  0  0
   37.8673   30.2486   -1.8583 C   0  0  0  0  0  0  0  0  0  0  0  0
   39.3373   30.4935   -1.5701 C   0  0  0  0  0  0  0  0  0  0  0  0
   39.7325   31.8855   -2.0324 C   0  0  0  0  0  0  0  0  0  0  0  0
   41.2041   32.1332   -1.7449 C   0  0  0  0  0  0  0  0  0  0  0  0
   41.6093   33.5260   -2.2049 C   0  0  0  0  0  0  0  0  0  0  0  0
   43.0774   33.7704   -1.9169 C   0  0  0  0  0  0  0  0  0  0  0  0
   24.4367   17.7091   -0.2601 C   0  0  0  0  0  0  0  0  0  0  0  0
   25.1839   16.6999   -0.9369 O   0  0  0  0  0  0  0  0  0  0  0  0
   24.7364   15.3968   -0.5516 C   0  0  2  0  0  0  0  0  0  0  0  0
   23.6391   15.3965   -0.5801 H   0  0  0  0  0  0  0  0  0  0  0  0
   25.1438   15.1032    0.7853 O   0  0  0  0  0  0  0  0  0  0  0  0
   24.6821   13.8140    1.2127 C   0  0  2  0  0  0  0  0  0  0  0  0
   23.5857   13.7967    1.1825 H   0  0  0  0  0  0  0  0  0  0  0  0
   25.1411   13.6087    2.6372 C   0  0  0  0  0  0  0  0  0  0  0  0
   24.8364   12.3154    3.1362 O   0  0  0  0  0  0  0  0  0  0  0  0
   25.3675   12.0669    4.4557 C   0  0  1  0  0  0  0  0  0  0  0  0
   24.7149   12.5927    5.1614 H   0  0  0  0  0  0  0  0  0  0  0  0
   25.2428   10.6522    4.7152 O   0  0  0  0  0  0  0  0  0  0  0  0
   26.0847    9.8515    3.8686 C   0  0  2  0  0  0  0  0  0  0  0  0
   25.7812   10.0171    2.8257 H   0  0  0  0  0  0  0  0  0  0  0  0
   25.8872    8.3598    4.1648 C   0  0  0  0  0  0  0  0  0  0  0  0
   26.7430    7.5702    3.3392 O   0  0  0  0  0  0  0  0  0  0  0  0
   27.5740   10.2297    4.0233 C   0  0  1  0  0  0  0  0  0  0  0  0
   28.2003    9.6440    3.3413 H   0  0  0  0  0  0  0  0  0  0  0  0
   27.7377   11.7242    3.7186 C   0  0  1  0  0  0  0  0  0  0  0  0
   27.4290   11.8627    2.6873 H   0  0  0  0  0  0  0  0  0  0  0  0
   26.8445   12.5302    4.6846 C   0  0  1  0  0  0  0  0  0  0  0  0
   27.1303   12.2730    5.7067 H   0  0  0  0  0  0  0  0  0  0  0  0
   26.9899   13.9625    4.6528 O   0  0  0  0  0  0  0  0  0  0  0  0
   29.0966   12.1511    3.7566 O   0  0  0  0  0  0  0  0  0  0  0  0
   28.0446    9.9805    5.3513 O   0  0  0  0  0  0  0  0  0  0  0  0
   25.2806   12.7094    0.3202 C   0  0  1  0  0  0  0  0  0  0  0  0
   24.9857   11.7173    0.6757 H   0  0  0  0  0  0  0  0  0  0  0  0
   24.7836   12.9511   -1.0976 C   0  0  1  0  0  0  0  0  0  0  0  0
   23.6896   12.8973   -1.1130 H   0  0  0  0  0  0  0  0  0  0  0  0
   25.2423   14.3457   -1.5685 C   0  0  1  0  0  0  0  0  0  0  0  0
   26.3353   14.3932   -1.6514 H   0  0  0  0  0  0  0  0  0  0  0  0
   24.7145   14.6190   -2.8764 O   0  0  0  0  0  0  0  0  0  0  0  0
   25.2435   11.9214   -1.9752 O   0  0  0  0  0  0  0  0  0  0  0  0
   26.7142   12.7160    0.2462 O   0  0  0  0  0  0  0  0  0  0  0  0
   19.9185   43.9925    2.3540 H   0  0  0  0  0  0  0  0  0  0  0  0
   20.3440   43.3561    0.7528 H   0  0  0  0  0  0  0  0  0  0  0  0
   21.5732   43.4385    2.0296 H   0  0  0  0  0  0  0  0  0  0  0  0
   19.0656   41.6796    2.0975 H   0  0  0  0  0  0  0  0  0  0  0  0
   20.2891   41.7616    3.3684 H   0  0  0  0  0  0  0  0  0  0  0  0
   22.0286   40.9753    1.7441 H   0  0  0  0  0  0  0  0  0  0  0  0
   20.8056   40.8932    0.4737 H   0  0  0  0  0  0  0  0  0  0  0  0
   19.5134   39.2289    1.8245 H   0  0  0  0  0  0  0  0  0  0  0  0
   20.7371   39.3110    3.0956 H   0  0  0  0  0  0  0  0  0  0  0  0
   22.4783   38.5440    1.4686 H   0  0  0  0  0  0  0  0  0  0  0  0
   21.2548   38.4620    0.1977 H   0  0  0  0  0  0  0  0  0  0  0  0
   19.9621   36.7991    1.5495 H   0  0  0  0  0  0  0  0  0  0  0  0
   21.1857   36.8812    2.8206 H   0  0  0  0  0  0  0  0  0  0  0  0
   22.9268   36.1155    1.1939 H   0  0  0  0  0  0  0  0  0  0  0  0
   21.7031   36.0334   -0.0772 H   0  0  0  0  0  0  0  0  0  0  0  0
   20.4095   34.3721    1.2755 H   0  0  0  0  0  0  0  0  0  0  0  0
   21.6331   34.4541    2.5466 H   0  0  0  0  0  0  0  0  0  0  0  0
   23.3741   33.6887    0.9200 H   0  0  0  0  0  0  0  0  0  0  0  0
   22.1505   33.6066   -0.3511 H   0  0  0  0  0  0  0  0  0  0  0  0
   20.8566   31.9456    1.0018 H   0  0  0  0  0  0  0  0  0  0  0  0
   22.0803   32.0277    2.2729 H   0  0  0  0  0  0  0  0  0  0  0  0
   23.8212   31.2625    0.6462 H   0  0  0  0  0  0  0  0  0  0  0  0
   22.5976   31.1804   -0.6248 H   0  0  0  0  0  0  0  0  0  0  0  0
   21.3044   29.5183    0.7275 H   0  0  0  0  0  0  0  0  0  0  0  0
   22.5280   29.6004    1.9985 H   0  0  0  0  0  0  0  0  0  0  0  0
   24.2704   28.8392    0.3708 H   0  0  0  0  0  0  0  0  0  0  0  0
   23.0463   28.7571   -0.9006 H   0  0  0  0  0  0  0  0  0  0  0  0
   21.7585   27.0912    0.4484 H   0  0  0  0  0  0  0  0  0  0  0  0
   22.9810   27.1730    1.7182 H   0  0  0  0  0  0  0  0  0  0  0  0
   24.7271   26.4087    0.0894 H   0  0  0  0  0  0  0  0  0  0  0  0
   23.5018   26.3281   -1.1838 H   0  0  0  0  0  0  0  0  0  0  0  0
   22.1935   24.6965    0.1845 H   0  0  0  0  0  0  0  0  0  0  0  0
   23.4185   24.7746    1.4496 H   0  0  0  0  0  0  0  0  0  0  0  0
   25.1233   23.8672   -0.1266 H   0  0  0  0  0  0  0  0  0  0  0  0
   23.8953   23.8109   -1.4167 H   0  0  0  0  0  0  0  0  0  0  0  0
   22.8588   19.8658   -0.1775 H   0  0  0  0  0  0  0  0  0  0  0  0
   24.1275   20.0720    1.0783 H   0  0  0  0  0  0  0  0  0  0  0  0
   28.7964   19.9000   -1.0324 H   0  0  0  0  0  0  0  0  0  0  0  0
   28.2736   20.5564    0.5494 H   0  0  0  0  0  0  0  0  0  0  0  0
   27.9689   22.8069   -0.4626 H   0  0  0  0  0  0  0  0  0  0  0  0
   28.4120   22.1860   -2.0481 H   0  0  0  0  0  0  0  0  0  0  0  0
   30.6653   21.5704   -1.2057 H   0  0  0  0  0  0  0  0  0  0  0  0
   30.2442   22.2169    0.3876 H   0  0  0  0  0  0  0  0  0  0  0  0
   29.8085   24.4606   -0.6468 H   0  0  0  0  0  0  0  0  0  0  0  0
   30.2278   23.8123   -2.2338 H   0  0  0  0  0  0  0  0  0  0  0  0
   32.5033   23.2102   -1.3903 H   0  0  0  0  0  0  0  0  0  0  0  0
   32.0850   23.8573    0.1993 H   0  0  0  0  0  0  0  0  0  0  0  0
   31.6686   26.1022   -0.8246 H   0  0  0  0  0  0  0  0  0  0  0  0
   32.0879   25.4549   -2.4139 H   0  0  0  0  0  0  0  0  0  0  0  0
   34.3606   24.8409   -1.5641 H   0  0  0  0  0  0  0  0  0  0  0  0
   33.9413   25.4877    0.0250 H   0  0  0  0  0  0  0  0  0  0  0  0
   33.5308   27.7343   -0.9977 H   0  0  0  0  0  0  0  0  0  0  0  0
   33.9502   27.0874   -2.5869 H   0  0  0  0  0  0  0  0  0  0  0  0
   36.2224   26.4729   -1.7371 H   0  0  0  0  0  0  0  0  0  0  0  0
   35.8031   27.1197   -0.1479 H   0  0  0  0  0  0  0  0  0  0  0  0
   35.3927   29.3666   -1.1708 H   0  0  0  0  0  0  0  0  0  0  0  0
   35.8121   28.7197   -2.7599 H   0  0  0  0  0  0  0  0  0  0  0  0
   38.0847   28.1058   -1.9103 H   0  0  0  0  0  0  0  0  0  0  0  0
   37.6653   28.7526   -0.3212 H   0  0  0  0  0  0  0  0  0  0  0  0
   37.2551   30.9996   -1.3441 H   0  0  0  0  0  0  0  0  0  0  0  0
   37.6745   30.3528   -2.9332 H   0  0  0  0  0  0  0  0  0  0  0  0
   39.9478   29.7406   -2.0840 H   0  0  0  0  0  0  0  0  0  0  0  0
   39.5285   30.3874   -0.4950 H   0  0  0  0  0  0  0  0  0  0  0  0
   39.1192   32.6354   -1.5179 H   0  0  0  0  0  0  0  0  0  0  0  0
   39.5386   31.9885   -3.1071 H   0  0  0  0  0  0  0  0  0  0  0  0
   41.8125   31.3781   -2.2580 H   0  0  0  0  0  0  0  0  0  0  0  0
   41.3934   32.0246   -0.6697 H   0  0  0  0  0  0  0  0  0  0  0  0
   41.0022   34.2801   -1.6906 H   0  0  0  0  0  0  0  0  0  0  0  0
   41.4215   33.6334   -3.2796 H   0  0  0  0  0  0  0  0  0  0  0  0
   43.2796   33.6884   -0.8442 H   0  0  0  0  0  0  0  0  0  0  0  0
   43.3668   34.7711   -2.2479 H   0  0  0  0  0  0  0  0  0  0  0  0
   43.7009   33.0386   -2.4405 H   0  0  0  0  0  0  0  0  0  0  0  0
   23.3702   17.5500   -0.4636 H   0  0  0  0  0  0  0  0  0  0  0  0
   24.6151   17.6149    0.8166 H   0  0  0  0  0  0  0  0  0  0  0  0
   24.7956   14.3973    3.3120 H   0  0  0  0  0  0  0  0  0  0  0  0
   26.2130   13.6806    2.5332 H   0  0  0  0  0  0  0  0  0  0  0  0
   24.8514    8.0473    4.0048 H   0  0  0  0  0  0  0  0  0  0  0  0
   26.1215    8.1300    5.2091 H   0  0  0  0  0  0  0  0  0  0  0  0
   26.4969    7.7249    2.4098 H   0  0  0  0  0  0  0  0  0  0  0  0
   27.2681   14.2885    3.7826 H   0  0  0  0  0  0  0  0  0  0  0  0
   29.6313   11.4960    3.2727 H   0  0  0  0  0  0  0  0  0  0  0  0
   27.9596    9.0292    5.5362 H   0  0  0  0  0  0  0  0  0  0  0  0
   23.7507   14.5268   -2.8381 H   0  0  0  0  0  0  0  0  0  0  0  0
   25.0937   11.0674   -1.5373 H   0  0  0  0  0  0  0  0  0  0  0  0
   27.1203   12.7394    1.1192 H   0  0  0  0  0  0  0  0  0  0  0  0
  1  2  1  0  0  0  0
  1 78  1  0  0  0  0
  1 79  1  0  0  0  0
  1 80  1  0  0  0  0
  2  3  1  0  0  0  0
  2 81  1  0  0  0  0
  2 82  1  0  0  0  0
  3  4  1  0  0  0  0
  3 83  1  0  0  0  0
  3 84  1  0  0  0  0
  4  5  1  0  0  0  0
  4 85  1  0  0  0  0
  4 86  1  0  0  0  0
  5  6  1  0  0  0  0
  5 87  1  0  0  0  0
  5 88  1  0  0  0  0
  6  7  1  0  0  0  0
  6 89  1  0  0  0  0
  6 90  1  0  0  0  0
  7  8  1  0  0  0  0
  7 91  1  0  0  0  0
  7 92  1  0  0  0  0
  8  9  1  0  0  0  0
  8 93  1  0  0  0  0
  8 94  1  0  0  0  0
  9 10  1  0  0  0  0
  9 95  1  0  0  0  0
  9 96  1  0  0  0  0
 10 11  1  0  0  0  0
 10 97  1  0  0  0  0
 10 98  1  0  0  0  0
 11 12  1  0  0  0  0
 11 99  1  0  0  0  0
 11100  1  0  0  0  0
 12 13  1  0  0  0  0
 12101  1  0  0  0  0
 12102  1  0  0  0  0
 13 14  1  0  0  0  0
 13103  1  0  0  0  0
 13104  1  0  0  0  0
 14 15  1  0  0  0  0
 14105  1  0  0  0  0
 14106  1  0  0  0  0
 15 16  1  0  0  0  0
 15107  1  0  0  0  0
 15108  1  0  0  0  0
 16 17  1  0  0  0  0
 16109  1  0  0  0  0
 16110  1  0  0  0  0
 17 18  1  0  0  0  0
 17111  1  0  0  0  0
 17112  1  0  0  0  0
 18 19  2  0  0  0  0
 18 20  1  0  0  0  0
 20 21  1  0  0  0  0
 21 22  1  0  0  0  0
 21113  1  0  0  0  0
 21114  1  0  0  0  0
 22 23  1  6  0  0  0
 22 24  1  0  0  0  0
 22 44  1  0  0  0  0
 24 25  1  0  0  0  0
 25 26  2  0  0  0  0
 25 27  1  0  0  0  0
 27 28  1  0  0  0  0
 27115  1  0  0  0  0
 27116  1  0  0  0  0
 28 29  1  0  0  0  0
 28117  1  0  0  0  0
 28118  1  0  0  0  0
 29 30  1  0  0  0  0
 29119  1  0  0  0  0
 29120  1  0  0  0  0
 30 31  1  0  0  0  0
 30121  1  0  0  0  0
 30122  1  0  0  0  0
 31 32  1  0  0  0  0
 31123  1  0  0  0  0
 31124  1  0  0  0  0
 32 33  1  0  0  0  0
 32125  1  0  0  0  0
 32126  1  0  0  0  0
 33 34  1  0  0  0  0
 33127  1  0  0  0  0
 33128  1  0  0  0  0
 34 35  1  0  0  0  0
 34129  1  0  0  0  0
 34130  1  0  0  0  0
 35 36  1  0  0  0  0
 35131  1  0  0  0  0
 35132  1  0  0  0  0
 36 37  1  0  0  0  0
 36133  1  0  0  0  0
 36134  1  0  0  0  0
 37 38  1  0  0  0  0
 37135  1  0  0  0  0
 37136  1  0  0  0  0
 38 39  1  0  0  0  0
 38137  1  0  0  0  0
 38138  1  0  0  0  0
 39 40  1  0  0  0  0
 39139  1  0  0  0  0
 39140  1  0  0  0  0
 40 41  1  0  0  0  0
 40141  1  0  0  0  0
 40142  1  0  0  0  0
 41 42  1  0  0  0  0
 41143  1  0  0  0  0
 41144  1  0  0  0  0
 42 43  1  0  0  0  0
 42145  1  0  0  0  0
 42146  1  0  0  0  0
 43147  1  0  0  0  0
 43148  1  0  0  0  0
 43149  1  0  0  0  0
 44 45  1  0  0  0  0
 44150  1  0  0  0  0
 44151  1  0  0  0  0
 46 48  1  0  0  0  0
 46 73  1  0  0  0  0
 46 47  1  6  0  0  0
 46 45  1  0  0  0  0
 48 49  1  0  0  0  0
 49 50  1  6  0  0  0
 49 51  1  0  0  0  0
 49 69  1  0  0  0  0
 51 52  1  0  0  0  0
 51152  1  0  0  0  0
 51153  1  0  0  0  0
 52 53  1  0  0  0  0
 53 54  1  1  0  0  0
 53 55  1  0  0  0  0
 53 64  1  0  0  0  0
 55 56  1  0  0  0  0
 56 57  1  6  0  0  0
 56 58  1  0  0  0  0
 56 60  1  0  0  0  0
 58 59  1  0  0  0  0
 58154  1  0  0  0  0
 58155  1  0  0  0  0
 59156  1  0  0  0  0
 60 61  1  6  0  0  0
 60 62  1  0  0  0  0
 60 68  1  0  0  0  0
 62 63  1  6  0  0  0
 62 64  1  0  0  0  0
 62 67  1  0  0  0  0
 64 66  1  0  0  0  0
 64 65  1  1  0  0  0
 66157  1  0  0  0  0
 67158  1  0  0  0  0
 68159  1  0  0  0  0
 69 70  1  1  0  0  0
 69 71  1  0  0  0  0
 69 77  1  0  0  0  0
 71 72  1  1  0  0  0
 71 73  1  0  0  0  0
 71 76  1  0  0  0  0
 73 75  1  0  0  0  0
 73 74  1  6  0  0  0
 75160  1  0  0  0  0
 76161  1  0  0  0  0
 77162  1  0  0  0  0
M  END
$$$$
