DGL
 OpenBabel04121316103D

 19 18  0  0  1  0  0  0  0  0999 V2000
    5.9129    6.4603    0.8943 O   0  0  0  0  0  0  0  0  0  0  0  0
    5.1437    5.3815    1.1066 C   0  0  0  0  0  0  0  0  0  0  0  0
    3.9241    5.4706    1.0353 O   0  0  0  0  0  0  0  0  0  0  0  0
    5.9376    4.1243    1.3726 C   0  0  0  0  0  0  0  0  0  0  0  0
    4.9310    2.9779    1.5281 C   0  0  0  0  0  0  0  0  0  0  0  0
    5.4140    1.5468    1.7842 C   0  0  2  0  0  0  0  0  0  0  0  0
    4.8614    0.8630    1.1244 H   0  0  0  0  0  0  0  0  0  0  0  0
    5.0813    1.1013    3.2248 C   0  0  0  0  0  0  0  0  0  0  0  0
    5.9203    0.6918    4.0176 O   0  0  0  0  0  0  0  0  0  0  0  0
    3.7676    1.1623    3.5481 O   0  0  0  0  0  0  0  0  0  0  0  0
    6.8471    1.3472    1.5024 N   0  0  0  0  0  0  0  0  0  0  0  0
    5.2768    7.1547    0.6174 H   0  0  0  0  0  0  0  0  0  0  0  0
    6.5301    4.2589    2.2838 H   0  0  0  0  0  0  0  0  0  0  0  0
    6.6034    3.9607    0.5180 H   0  0  0  0  0  0  0  0  0  0  0  0
    4.3176    2.9526    0.6181 H   0  0  0  0  0  0  0  0  0  0  0  0
    4.2642    3.2775    2.3443 H   0  0  0  0  0  0  0  0  0  0  0  0
    3.1697    1.5024    2.8542 H   0  0  0  0  0  0  0  0  0  0  0  0
    7.0727    0.3716    1.7284 H   0  0  0  0  0  0  0  0  0  0  0  0
    7.3810    1.8620    2.2081 H   0  0  0  0  0  0  0  0  0  0  0  0
  1  2  1  0  0  0  0
  1 12  1  0  0  0  0
  2  3  2  0  0  0  0
  2  4  1  0  0  0  0
  4  5  1  0  0  0  0
  4 13  1  0  0  0  0
  4 14  1  0  0  0  0
  5 15  1  0  0  0  0
  5 16  1  0  0  0  0
  6  8  1  0  0  0  0
  6 11  1  0  0  0  0
  6  7  1  6  0  0  0
  6  5  1  0  0  0  0
  8  9  2  0  0  0  0
  8 10  1  0  0  0  0
 10 17  1  0  0  0  0
 11 18  1  0  0  0  0
 11 19  1  0  0  0  0
M  END
$$$$
