DH3
 OpenBabel04121316103D

 49 50  0  0  0  0  0  0  0  0999 V2000
    0.8567   -0.2427   -0.0928 C   0  0  0  0  0  0  0  0  0  0  0  0
    2.2652   -0.1078    0.0012 O   0  0  0  0  0  0  0  0  0  0  0  0
    2.8839    1.0817   -0.2586 C   0  0  0  0  0  0  0  0  0  0  0  0
    2.3174    2.3378   -0.1337 C   0  0  0  0  0  0  0  0  0  0  0  0
    1.1036    2.4080    0.4853 C   0  0  0  0  0  0  0  0  0  0  0  0
    0.0268    2.4415    0.9911 C   0  0  0  0  0  0  0  0  0  0  0  0
   -1.2797    2.4823    1.6048 C   0  0  0  0  0  0  0  0  0  0  0  0
   -2.2559    3.2449    0.7243 C   0  0  0  0  0  0  0  0  0  0  0  0
   -3.6558    3.3152    1.3339 C   0  0  0  0  0  0  0  0  0  0  0  0
   -4.5723    4.0816    0.4154 C   0  0  0  0  0  0  0  0  0  0  0  0
   -4.2263    4.5721   -0.6644 O   0  0  0  0  0  0  0  0  0  0  0  0
   -5.8337    4.1968    0.8682 O   0  0  0  0  0  0  0  0  0  0  0  0
    2.9097    3.5570   -0.4394 C   0  0  0  0  0  0  0  0  0  0  0  0
    4.2408    3.5212   -0.7309 C   0  0  0  0  0  0  0  0  0  0  0  0
    4.9027    2.3192   -0.4483 C   0  0  0  0  0  0  0  0  0  0  0  0
    4.2319    1.0869   -0.4955 C   0  0  0  0  0  0  0  0  0  0  0  0
    4.9931    0.0138   -0.8833 O   0  0  0  0  0  0  0  0  0  0  0  0
    4.3451   -1.2590   -0.8626 C   0  0  0  0  0  0  0  0  0  0  0  0
    4.9210    4.7117   -1.3472 C   0  0  0  0  0  0  0  0  0  0  0  0
    6.1973    4.4481   -2.1157 C   0  0  0  0  0  0  0  0  0  0  0  0
    7.0411    5.5242   -2.3076 C   0  0  0  0  0  0  0  0  0  0  0  0
    8.2810    5.4310   -2.8161 N   0  0  0  0  0  0  0  0  0  0  0  0
    8.7073    4.1975   -3.0809 C   0  0  0  0  0  0  0  0  0  0  0  0
    7.9610    3.1075   -3.0031 N   0  0  0  0  0  0  0  0  0  0  0  0
    6.6833    3.2600   -2.6571 C   0  0  0  0  0  0  0  0  0  0  0  0
    5.9552    2.1048   -2.8780 N   0  0  0  0  0  0  0  0  0  0  0  0
   10.0023    4.0102   -3.4887 N   0  0  0  0  0  0  0  0  0  0  0  0
    0.5984   -1.2993   -0.0246 H   0  0  0  0  0  0  0  0  0  0  0  0
    0.4675    0.1662   -1.0319 H   0  0  0  0  0  0  0  0  0  0  0  0
    0.3782    0.1729    0.7900 H   0  0  0  0  0  0  0  0  0  0  0  0
   -1.2153    2.9607    2.5889 H   0  0  0  0  0  0  0  0  0  0  0  0
   -1.6487    1.4637    1.7714 H   0  0  0  0  0  0  0  0  0  0  0  0
   -2.3091    2.7674   -0.2637 H   0  0  0  0  0  0  0  0  0  0  0  0
   -1.8784    4.2625    0.5535 H   0  0  0  0  0  0  0  0  0  0  0  0
   -3.6148    3.8222    2.3046 H   0  0  0  0  0  0  0  0  0  0  0  0
   -4.0526    2.3031    1.4737 H   0  0  0  0  0  0  0  0  0  0  0  0
   -6.0030    3.7745    1.7315 H   0  0  0  0  0  0  0  0  0  0  0  0
    2.3505    4.4915   -0.3730 H   0  0  0  0  0  0  0  0  0  0  0  0
    5.9862    2.3178   -0.4171 H   0  0  0  0  0  0  0  0  0  0  0  0
    5.0343   -2.0210   -1.2270 H   0  0  0  0  0  0  0  0  0  0  0  0
    3.4598   -1.3105   -1.5154 H   0  0  0  0  0  0  0  0  0  0  0  0
    4.1041   -1.5055    0.1758 H   0  0  0  0  0  0  0  0  0  0  0  0
    5.1194    5.4058   -0.5167 H   0  0  0  0  0  0  0  0  0  0  0  0
    4.2259    5.2348   -2.0244 H   0  0  0  0  0  0  0  0  0  0  0  0
    6.7329    6.5330   -2.0422 H   0  0  0  0  0  0  0  0  0  0  0  0
    6.3474    1.3217   -2.3498 H   0  0  0  0  0  0  0  0  0  0  0  0
    4.9546    2.1669   -2.7634 H   0  0  0  0  0  0  0  0  0  0  0  0
   10.4167    4.8229   -3.9115 H   0  0  0  0  0  0  0  0  0  0  0  0
   10.1450    3.0890   -3.8778 H   0  0  0  0  0  0  0  0  0  0  0  0
  1  2  1  0  0  0  0
  1 28  1  0  0  0  0
  1 29  1  0  0  0  0
  1 30  1  0  0  0  0
  2  3  1  0  0  0  0
  3  4  2  0  0  0  0
  3 16  1  0  0  0  0
  4  5  1  0  0  0  0
  4 13  1  0  0  0  0
  5  6  3  0  0  0  0
  6  7  1  0  0  0  0
  7  8  1  0  0  0  0
  7 31  1  0  0  0  0
  7 32  1  0  0  0  0
  8  9  1  0  0  0  0
  8 33  1  0  0  0  0
  8 34  1  0  0  0  0
  9 10  1  0  0  0  0
  9 35  1  0  0  0  0
  9 36  1  0  0  0  0
 10 11  2  0  0  0  0
 10 12  1  0  0  0  0
 12 37  1  0  0  0  0
 13 14  2  0  0  0  0
 13 38  1  0  0  0  0
 14 15  1  0  0  0  0
 14 19  1  0  0  0  0
 15 16  2  0  0  0  0
 15 39  1  0  0  0  0
 16 17  1  0  0  0  0
 17 18  1  0  0  0  0
 18 40  1  0  0  0  0
 18 41  1  0  0  0  0
 18 42  1  0  0  0  0
 19 20  1  0  0  0  0
 19 43  1  0  0  0  0
 19 44  1  0  0  0  0
 20 21  2  0  0  0  0
 20 25  1  0  0  0  0
 21 22  1  0  0  0  0
 21 45  1  0  0  0  0
 22 23  2  0  0  0  0
 23 24  1  0  0  0  0
 23 27  1  0  0  0  0
 24 25  2  0  0  0  0
 25 26  1  0  0  0  0
 26 46  1  0  0  0  0
 26 47  1  0  0  0  0
 27 48  1  0  0  0  0
 27 49  1  0  0  0  0
M  END
$$$$
