DHB
 OpenBabel04121316103D

 17 17  0  0  0  0  0  0  0  0999 V2000
    1.0403   -0.1865   -0.0870 O   0  0  0  0  0  0  0  0  0  0  0  0
    2.3781   -0.0817    0.0047 C   0  0  0  0  0  0  0  0  0  0  0  0
    2.9370    0.6912    0.7610 O   0  0  0  0  0  0  0  0  0  0  0  0
    3.0125   -0.9676   -0.9809 C   0  0  0  0  0  0  0  0  0  0  0  0
    3.7018   -0.4248   -2.0737 C   0  0  0  0  0  0  0  0  0  0  0  0
    4.2031   -1.2739   -3.0680 C   0  0  0  0  0  0  0  0  0  0  0  0
    3.9166   -2.6354   -3.0022 C   0  0  0  0  0  0  0  0  0  0  0  0
    3.2634   -3.1637   -1.8891 C   0  0  0  0  0  0  0  0  0  0  0  0
    2.8681   -2.3480   -0.8418 C   0  0  0  0  0  0  0  0  0  0  0  0
    2.9622   -4.4942   -1.8277 O   0  0  0  0  0  0  0  0  0  0  0  0
    4.2410   -3.4951   -4.0148 O   0  0  0  0  0  0  0  0  0  0  0  0
    0.6755    0.4444    0.5674 H   0  0  0  0  0  0  0  0  0  0  0  0
    3.8292    0.6521   -2.1595 H   0  0  0  0  0  0  0  0  0  0  0  0
    4.7864   -0.8567   -3.8830 H   0  0  0  0  0  0  0  0  0  0  0  0
    2.4268   -2.7773    0.0510 H   0  0  0  0  0  0  0  0  0  0  0  0
    3.2098   -4.8524   -2.7025 H   0  0  0  0  0  0  0  0  0  0  0  0
    4.6215   -2.9814   -4.7484 H   0  0  0  0  0  0  0  0  0  0  0  0
  1  2  1  0  0  0  0
  1 12  1  0  0  0  0
  2  3  2  0  0  0  0
  2  4  1  0  0  0  0
  4  5  2  0  0  0  0
  4  9  1  0  0  0  0
  5  6  1  0  0  0  0
  5 13  1  0  0  0  0
  6  7  2  0  0  0  0
  6 14  1  0  0  0  0
  7  8  1  0  0  0  0
  7 11  1  0  0  0  0
  8  9  2  0  0  0  0
  8 10  1  0  0  0  0
  9 15  1  0  0  0  0
 10 16  1  0  0  0  0
 11 17  1  0  0  0  0
M  END
$$$$
