DHM
 OpenBabel04121316103D

 31 30  0  0  1  0  0  0  0  0999 V2000
    0.9260   -0.0194    0.3741 C   0  0  0  0  0  0  0  0  0  0  0  0
    2.2521    0.0469    0.1462 C   0  0  0  0  0  0  0  0  0  0  0  0
    3.0074   -0.7717   -0.8892 C   0  0  1  0  0  0  0  0  0  0  0  0
    2.7547   -1.8321   -0.7499 H   0  0  0  0  0  0  0  0  0  0  0  0
    2.6845   -0.3633   -2.3473 C   0  0  0  0  0  0  0  0  0  0  0  0
    1.2082   -0.5352   -2.6479 C   0  0  0  0  0  0  0  0  0  0  0  0
    0.7768   -0.1492   -4.0462 C   0  0  0  0  0  0  0  0  0  0  0  0
   -0.7529   -0.2924   -4.2069 C   0  0  0  0  0  0  0  0  0  0  0  0
   -1.1279   -1.6634   -4.0507 O   0  0  0  0  0  0  0  0  0  0  0  0
   -1.5484    0.5524   -3.1986 C   0  0  0  0  0  0  0  0  0  0  0  0
   -1.1301    0.1194   -5.6241 C   0  0  0  0  0  0  0  0  0  0  0  0
    4.5157   -0.6207   -0.6773 C   0  0  0  0  0  0  0  0  0  0  0  0
    0.4340    0.6666    1.0525 H   0  0  0  0  0  0  0  0  0  0  0  0
    0.2828   -0.7074   -0.1643 H   0  0  0  0  0  0  0  0  0  0  0  0
    2.8244    0.7612    0.7316 H   0  0  0  0  0  0  0  0  0  0  0  0
    3.2684   -0.9752   -3.0457 H   0  0  0  0  0  0  0  0  0  0  0  0
    2.9677    0.6829   -2.5162 H   0  0  0  0  0  0  0  0  0  0  0  0
    0.6698    0.1520   -2.0040 H   0  0  0  0  0  0  0  0  0  0  0  0
    0.9104   -1.5623   -2.4100 H   0  0  0  0  0  0  0  0  0  0  0  0
    1.3042   -0.7797   -4.7710 H   0  0  0  0  0  0  0  0  0  0  0  0
    1.0702    0.8921   -4.2309 H   0  0  0  0  0  0  0  0  0  0  0  0
   -0.9617   -1.9277   -3.1299 H   0  0  0  0  0  0  0  0  0  0  0  0
   -1.3851    0.2323   -2.1634 H   0  0  0  0  0  0  0  0  0  0  0  0
   -2.6258    0.4422   -3.3599 H   0  0  0  0  0  0  0  0  0  0  0  0
   -1.2877    1.6132   -3.2767 H   0  0  0  0  0  0  0  0  0  0  0  0
   -0.6042   -0.5019   -6.3570 H   0  0  0  0  0  0  0  0  0  0  0  0
   -0.8768    1.1682   -5.8083 H   0  0  0  0  0  0  0  0  0  0  0  0
   -2.2014   -0.0222   -5.7976 H   0  0  0  0  0  0  0  0  0  0  0  0
    4.8070   -0.9271    0.3319 H   0  0  0  0  0  0  0  0  0  0  0  0
    4.8280    0.4203   -0.8220 H   0  0  0  0  0  0  0  0  0  0  0  0
    5.0715   -1.2373   -1.3923 H   0  0  0  0  0  0  0  0  0  0  0  0
  1  2  2  0  0  0  0
  1 13  1  0  0  0  0
  1 14  1  0  0  0  0
  2  3  1  0  0  0  0
  2 15  1  0  0  0  0
  3  4  1  1  0  0  0
  3  5  1  0  0  0  0
  3 12  1  0  0  0  0
  5  6  1  0  0  0  0
  5 16  1  0  0  0  0
  5 17  1  0  0  0  0
  6  7  1  0  0  0  0
  6 18  1  0  0  0  0
  6 19  1  0  0  0  0
  7  8  1  0  0  0  0
  7 20  1  0  0  0  0
  7 21  1  0  0  0  0
  8  9  1  0  0  0  0
  8 10  1  0  0  0  0
  8 11  1  0  0  0  0
  9 22  1  0  0  0  0
 10 23  1  0  0  0  0
 10 24  1  0  0  0  0
 10 25  1  0  0  0  0
 11 26  1  0  0  0  0
 11 27  1  0  0  0  0
 11 28  1  0  0  0  0
 12 29  1  0  0  0  0
 12 30  1  0  0  0  0
 12 31  1  0  0  0  0
M  END
$$$$
