DHY
 OpenBabel04121316103D

 20 20  0  0  0  0  0  0  0  0999 V2000
    1.0612   -0.1798   -0.2179 O   0  0  0  0  0  0  0  0  0  0  0  0
    2.3872   -0.1022    0.0134 C   0  0  0  0  0  0  0  0  0  0  0  0
    2.8240   -0.2727    1.1436 O   0  0  0  0  0  0  0  0  0  0  0  0
    3.1594    0.1285   -1.2552 C   0  0  0  0  0  0  0  0  0  0  0  0
    4.6511    0.0626   -1.0540 C   0  0  0  0  0  0  0  0  0  0  0  0
    5.4157    1.2353   -0.9690 C   0  0  0  0  0  0  0  0  0  0  0  0
    6.7997    1.1647   -0.7924 C   0  0  0  0  0  0  0  0  0  0  0  0
    7.4230   -0.0785   -0.8097 C   0  0  0  0  0  0  0  0  0  0  0  0
    6.6648   -1.2434   -0.8687 C   0  0  0  0  0  0  0  0  0  0  0  0
    5.2825   -1.1822   -0.9220 C   0  0  0  0  0  0  0  0  0  0  0  0
    7.2689   -2.4670   -0.9058 O   0  0  0  0  0  0  0  0  0  0  0  0
    8.7842   -0.2025   -0.7830 O   0  0  0  0  0  0  0  0  0  0  0  0
    0.6976   -0.5130    0.6291 H   0  0  0  0  0  0  0  0  0  0  0  0
    2.8742    1.0955   -1.6866 H   0  0  0  0  0  0  0  0  0  0  0  0
    2.8717   -0.6474   -1.9764 H   0  0  0  0  0  0  0  0  0  0  0  0
    4.9332    2.2086   -1.0327 H   0  0  0  0  0  0  0  0  0  0  0  0
    7.3623    2.0818   -0.6540 H   0  0  0  0  0  0  0  0  0  0  0  0
    4.7061   -2.1019   -0.8726 H   0  0  0  0  0  0  0  0  0  0  0  0
    8.2240   -2.2702   -0.9616 H   0  0  0  0  0  0  0  0  0  0  0  0
    9.1657    0.6918   -0.8053 H   0  0  0  0  0  0  0  0  0  0  0  0
  1  2  1  0  0  0  0
  1 13  1  0  0  0  0
  2  3  2  0  0  0  0
  2  4  1  0  0  0  0
  4  5  1  0  0  0  0
  4 14  1  0  0  0  0
  4 15  1  0  0  0  0
  5  6  2  0  0  0  0
  5 10  1  0  0  0  0
  6  7  1  0  0  0  0
  6 16  1  0  0  0  0
  7  8  2  0  0  0  0
  7 17  1  0  0  0  0
  8  9  1  0  0  0  0
  8 12  1  0  0  0  0
  9 10  2  0  0  0  0
  9 11  1  0  0  0  0
 10 18  1  0  0  0  0
 11 19  1  0  0  0  0
 12 20  1  0  0  0  0
M  END
$$$$
