DIO
 OpenBabel04121316103D

 14 14  0  0  0  0  0  0  0  0999 V2000
    0.7043    1.2170   -0.2016 O   0  0  0  0  0  0  0  0  0  0  0  0
   -0.6551    1.2006    0.2592 C   0  0  0  0  0  0  0  0  0  0  0  0
   -1.3738   -0.0517   -0.2400 C   0  0  0  0  0  0  0  0  0  0  0  0
   -0.6952   -1.2330    0.2119 O   0  0  0  0  0  0  0  0  0  0  0  0
    0.6641   -1.2217   -0.2485 C   0  0  0  0  0  0  0  0  0  0  0  0
    1.3880    0.0338    0.2376 C   0  0  0  0  0  0  0  0  0  0  0  0
   -1.1507    2.1003   -0.1174 H   0  0  0  0  0  0  0  0  0  0  0  0
   -0.6529    1.2411    1.3546 H   0  0  0  0  0  0  0  0  0  0  0  0
   -1.4124   -0.0699   -1.3352 H   0  0  0  0  0  0  0  0  0  0  0  0
   -2.3989   -0.0824    0.1411 H   0  0  0  0  0  0  0  0  0  0  0  0
    0.6604   -1.2722   -1.3433 H   0  0  0  0  0  0  0  0  0  0  0  0
    1.1588   -2.1194    0.1347 H   0  0  0  0  0  0  0  0  0  0  0  0
    2.4060    0.0642   -0.1625 H   0  0  0  0  0  0  0  0  0  0  0  0
    1.4477    0.0522    1.3317 H   0  0  0  0  0  0  0  0  0  0  0  0
  1  2  1  0  0  0  0
  1  6  1  0  0  0  0
  2  3  1  0  0  0  0
  2  7  1  0  0  0  0
  2  8  1  0  0  0  0
  3  4  1  0  0  0  0
  3  9  1  0  0  0  0
  3 10  1  0  0  0  0
  4  5  1  0  0  0  0
  5  6  1  0  0  0  0
  5 11  1  0  0  0  0
  5 12  1  0  0  0  0
  6 13  1  0  0  0  0
  6 14  1  0  0  0  0
M  END
$$$$
