DIU
 OpenBabel04121316103D

 16 16  0  0  0  0  0  0  0  0999 V2000
    0.9670    0.0603   -0.0362 I   0  0  0  0  0  0  0  0  0  0  0  0
    3.0509    0.0948   -0.0351 C   0  0  0  0  0  0  0  0  0  0  0  0
    3.7116    1.3189   -0.0339 C   0  0  0  0  0  0  0  0  0  0  0  0
    5.1043    1.3377   -0.0325 C   0  0  0  0  0  0  0  0  0  0  0  0
    6.0691    3.1971   -0.0379 I   0  0  0  0  0  0  0  0  0  0  0  0
    5.8341    0.1393   -0.0291 C   0  0  0  0  0  0  0  0  0  0  0  0
    5.1733   -1.1074   -0.0302 C   0  0  0  0  0  0  0  0  0  0  0  0
    3.7648   -1.1100   -0.0349 C   0  0  0  0  0  0  0  0  0  0  0  0
    5.9851   -2.3775   -0.0257 C   0  0  0  0  0  0  0  0  0  0  0  0
    7.2051   -2.4127   -0.0203 O   0  0  0  0  0  0  0  0  0  0  0  0
    5.2915   -3.5369   -0.0271 O   0  0  0  0  0  0  0  0  0  0  0  0
    7.2023    0.1858   -0.0245 O   0  0  0  0  0  0  0  0  0  0  0  0
    3.1476    2.2485   -0.0342 H   0  0  0  0  0  0  0  0  0  0  0  0
    3.1891   -2.0275   -0.0382 H   0  0  0  0  0  0  0  0  0  0  0  0
    4.3247   -3.5200   -0.0306 H   0  0  0  0  0  0  0  0  0  0  0  0
    7.5038    1.1099   -0.0225 H   0  0  0  0  0  0  0  0  0  0  0  0
  1  2  1  0  0  0  0
  2  3  2  0  0  0  0
  2  8  1  0  0  0  0
  3  4  1  0  0  0  0
  3 13  1  0  0  0  0
  4  5  1  0  0  0  0
  4  6  2  0  0  0  0
  6  7  1  0  0  0  0
  6 12  1  0  0  0  0
  7  8  2  0  0  0  0
  7  9  1  0  0  0  0
  8 14  1  0  0  0  0
  9 10  2  0  0  0  0
  9 11  1  0  0  0  0
 11 15  1  0  0  0  0
 12 16  1  0  0  0  0
M  END
$$$$
