DIX
 OpenBabel04121316103D

 29 29  0  0  0  0  0  0  0  0999 V2000
    0.8616   -0.0475   -0.0056 C   0  0  0  0  0  0  0  0  0  0  0  0
    2.3131   -0.0567    0.0437 N   0  0  0  0  0  0  0  0  0  0  0  0
    2.7738   -0.5344    1.3485 C   0  0  0  0  0  0  0  0  0  0  0  0
    4.2898   -0.5518    1.3105 C   0  0  0  0  0  0  0  0  0  0  0  0
    4.9141   -1.0789    2.5994 C   0  0  0  0  0  0  0  0  0  0  0  0
    6.4541   -1.1167    2.5658 C   0  0  0  0  0  0  0  0  0  0  0  0
    7.0129   -2.4770    2.9844 C   0  0  0  0  0  0  0  0  0  0  0  0
    8.4329   -2.4740    2.4410 C   0  0  0  0  0  0  0  0  0  0  0  0
    8.3468   -1.7325    1.1190 C   0  0  0  0  0  0  0  0  0  0  0  0
    7.1209   -0.8383    1.2090 C   0  0  0  0  0  0  0  0  0  0  0  0
    0.5328    0.3156   -0.9835 H   0  0  0  0  0  0  0  0  0  0  0  0
    0.4481    0.6102    0.7640 H   0  0  0  0  0  0  0  0  0  0  0  0
    0.4645   -1.0574    0.1274 H   0  0  0  0  0  0  0  0  0  0  0  0
    2.6756    0.8758   -0.1316 H   0  0  0  0  0  0  0  0  0  0  0  0
    2.4084   -1.5508    1.5287 H   0  0  0  0  0  0  0  0  0  0  0  0
    2.4219    0.1172    2.1546 H   0  0  0  0  0  0  0  0  0  0  0  0
    4.6769    0.4534    1.1014 H   0  0  0  0  0  0  0  0  0  0  0  0
    4.5676   -1.2097    0.4797 H   0  0  0  0  0  0  0  0  0  0  0  0
    4.5094   -2.0763    2.8120 H   0  0  0  0  0  0  0  0  0  0  0  0
    4.5936   -0.4494    3.4407 H   0  0  0  0  0  0  0  0  0  0  0  0
    6.8251   -0.3668    3.2801 H   0  0  0  0  0  0  0  0  0  0  0  0
    6.4388   -3.2936    2.5312 H   0  0  0  0  0  0  0  0  0  0  0  0
    6.9964   -2.6131    4.0709 H   0  0  0  0  0  0  0  0  0  0  0  0
    8.8186   -3.4891    2.3081 H   0  0  0  0  0  0  0  0  0  0  0  0
    9.1023   -1.9398    3.1230 H   0  0  0  0  0  0  0  0  0  0  0  0
    8.2077   -2.4451    0.2964 H   0  0  0  0  0  0  0  0  0  0  0  0
    9.2508   -1.1568    0.9030 H   0  0  0  0  0  0  0  0  0  0  0  0
    6.5003   -1.0889    0.3480 H   0  0  0  0  0  0  0  0  0  0  0  0
    7.3714    0.2239    1.1147 H   0  0  0  0  0  0  0  0  0  0  0  0
  1  2  1  0  0  0  0
  1 11  1  0  0  0  0
  1 12  1  0  0  0  0
  1 13  1  0  0  0  0
  2  3  1  0  0  0  0
  2 14  1  0  0  0  0
  3  4  1  0  0  0  0
  3 15  1  0  0  0  0
  3 16  1  0  0  0  0
  4  5  1  0  0  0  0
  4 17  1  0  0  0  0
  4 18  1  0  0  0  0
  5  6  1  0  0  0  0
  5 19  1  0  0  0  0
  5 20  1  0  0  0  0
  6  7  1  0  0  0  0
  6 10  1  0  0  0  0
  6 21  1  0  0  0  0
  7  8  1  0  0  0  0
  7 22  1  0  0  0  0
  7 23  1  0  0  0  0
  8  9  1  0  0  0  0
  8 24  1  0  0  0  0
  8 25  1  0  0  0  0
  9 10  1  0  0  0  0
  9 26  1  0  0  0  0
  9 27  1  0  0  0  0
 10 28  1  0  0  0  0
 10 29  1  0  0  0  0
M  END
$$$$
