DIZ
 OpenBabel04121316103D

 47 50  0  0  1  0  0  0  0  0999 V2000
    6.9120    2.9969   -6.0160 Cl  0  0  0  0  0  0  0  0  0  0  0  0
    7.0664    2.1704   -4.5231 C   0  0  0  0  0  0  0  0  0  0  0  0
    6.6165    0.8629   -4.3929 C   0  0  0  0  0  0  0  0  0  0  0  0
    6.5388    0.2829   -3.1276 C   0  0  0  0  0  0  0  0  0  0  0  0
    7.0414    0.9478   -1.9932 C   0  0  0  0  0  0  0  0  0  0  0  0
    7.6230    2.2005   -2.2015 C   0  0  0  0  0  0  0  0  0  0  0  0
    7.5977    2.8337   -3.4332 C   0  0  0  0  0  0  0  0  0  0  0  0
    6.9514    0.3283   -0.5794 C   0  0  2  0  0  0  0  0  0  0  0  0
    5.9048    0.5078   -0.2830 H   0  0  0  0  0  0  0  0  0  0  0  0
    7.8035    1.0748    0.4034 N   0  0  0  0  0  0  0  0  0  0  0  0
    9.3302    1.0212    0.4225 C   0  0  1  0  0  0  0  0  0  0  0  0
    9.5914    0.7637    1.4611 H   0  0  0  0  0  0  0  0  0  0  0  0
    9.9949   -0.0127   -0.5168 C   0  0  0  0  0  0  0  0  0  0  0  0
   10.3871    0.3091   -1.8392 C   0  0  0  0  0  0  0  0  0  0  0  0
   10.5533   -0.6714   -2.8230 C   0  0  0  0  0  0  0  0  0  0  0  0
   10.4719   -2.0117   -2.4750 C   0  0  0  0  0  0  0  0  0  0  0  0
   10.2835   -2.3682   -1.1338 C   0  0  0  0  0  0  0  0  0  0  0  0
   10.0261   -1.3744   -0.1589 C   0  0  0  0  0  0  0  0  0  0  0  0
   10.2448   -3.1737   -3.7285 Cl  0  0  0  0  0  0  0  0  0  0  0  0
    9.9208    2.4554    0.2395 C   0  0  0  0  0  0  0  0  0  0  0  0
   10.6097    2.8706   -0.6873 O   0  0  0  0  0  0  0  0  0  0  0  0
    9.4959    3.3056    1.2494 N   0  0  0  0  0  0  0  0  0  0  0  0
    8.3727    4.0731    0.8807 C   0  0  0  0  0  0  0  0  0  0  0  0
    7.1347    3.4278    0.9587 C   0  0  0  0  0  0  0  0  0  0  0  0
    7.1251    1.9528    1.2973 C   0  0  0  0  0  0  0  0  0  0  0  0
    6.5441    1.5734    2.3052 O   0  0  0  0  0  0  0  0  0  0  0  0
    5.9687    4.1743    0.7271 C   0  0  0  0  0  0  0  0  0  0  0  0
    6.0737    5.5029    0.2730 C   0  0  0  0  0  0  0  0  0  0  0  0
    4.3610    6.6061   -0.1845 I   0  0  0  0  0  0  0  0  0  0  0  0
    7.3224    6.1025    0.0808 C   0  0  0  0  0  0  0  0  0  0  0  0
    8.4797    5.3941    0.4176 C   0  0  0  0  0  0  0  0  0  0  0  0
    6.9704   -1.2488   -0.6308 C   0  0  0  0  0  0  0  0  0  0  0  0
    6.3681   -2.0115    0.0702 O   0  0  0  0  0  0  0  0  0  0  0  0
    7.7423   -1.7200   -1.6426 O   0  0  0  0  0  0  0  0  0  0  0  0
    6.2948    0.2966   -5.2618 H   0  0  0  0  0  0  0  0  0  0  0  0
    6.1060   -0.7170   -3.0608 H   0  0  0  0  0  0  0  0  0  0  0  0
    8.1249    2.7348   -1.4161 H   0  0  0  0  0  0  0  0  0  0  0  0
    7.9885    3.8436   -3.5080 H   0  0  0  0  0  0  0  0  0  0  0  0
   10.4399    1.3312   -2.2048 H   0  0  0  0  0  0  0  0  0  0  0  0
   10.5850   -0.3618   -3.8677 H   0  0  0  0  0  0  0  0  0  0  0  0
   10.0708   -3.4091   -0.8894 H   0  0  0  0  0  0  0  0  0  0  0  0
    9.6186   -1.6973    0.8025 H   0  0  0  0  0  0  0  0  0  0  0  0
   10.2471    3.7888    1.7225 H   0  0  0  0  0  0  0  0  0  0  0  0
    4.9897    3.7272    0.8765 H   0  0  0  0  0  0  0  0  0  0  0  0
    7.4060    7.1102   -0.3304 H   0  0  0  0  0  0  0  0  0  0  0  0
    9.4483    5.8557    0.2354 H   0  0  0  0  0  0  0  0  0  0  0  0
    8.3288   -1.0053   -1.9616 H   0  0  0  0  0  0  0  0  0  0  0  0
  1  2  1  0  0  0  0
  2  3  2  0  0  0  0
  2  7  1  0  0  0  0
  3  4  1  0  0  0  0
  3 35  1  0  0  0  0
  4  5  2  0  0  0  0
  4 36  1  0  0  0  0
  5  6  1  0  0  0  0
  6  7  2  0  0  0  0
  6 37  1  0  0  0  0
  7 38  1  0  0  0  0
  8 10  1  0  0  0  0
  8 32  1  0  0  0  0
  8  9  1  1  0  0  0
  8  5  1  0  0  0  0
 10 11  1  0  0  0  0
 10 25  1  0  0  0  0
 11 12  1  1  0  0  0
 11 13  1  0  0  0  0
 11 20  1  0  0  0  0
 13 14  2  0  0  0  0
 13 18  1  0  0  0  0
 14 15  1  0  0  0  0
 14 39  1  0  0  0  0
 15 16  2  0  0  0  0
 15 40  1  0  0  0  0
 16 17  1  0  0  0  0
 16 19  1  0  0  0  0
 17 18  2  0  0  0  0
 17 41  1  0  0  0  0
 18 42  1  0  0  0  0
 20 21  2  0  0  0  0
 20 22  1  0  0  0  0
 22 23  1  0  0  0  0
 22 43  1  0  0  0  0
 23 24  2  0  0  0  0
 23 31  1  0  0  0  0
 24 25  1  0  0  0  0
 24 27  1  0  0  0  0
 25 26  2  0  0  0  0
 27 28  2  0  0  0  0
 27 44  1  0  0  0  0
 28 29  1  0  0  0  0
 28 30  1  0  0  0  0
 30 31  2  0  0  0  0
 30 45  1  0  0  0  0
 31 46  1  0  0  0  0
 32 33  2  0  0  0  0
 32 34  1  0  0  0  0
 34 47  1  0  0  0  0
M  END
$$$$
