DJZ
 OpenBabel04121316103D

 64 67  0  0  0  0  0  0  0  0999 V2000
    0.9400    0.0012   -0.0731 N   0  0  0  0  0  0  0  0  0  0  0  0
    2.1146    0.0591   -0.1016 C   0  0  0  0  0  0  0  0  0  0  0  0
    3.5345    0.0717   -0.0895 C   0  0  0  0  0  0  0  0  0  0  0  0
    4.2804    1.2440   -0.0906 C   0  0  0  0  0  0  0  0  0  0  0  0
    5.7024    1.2159   -0.0890 C   0  0  0  0  0  0  0  0  0  0  0  0
    6.4253    2.5301   -0.0876 C   0  0  0  0  0  0  0  0  0  0  0  0
    6.4072   -0.0023    0.0097 C   0  0  0  0  0  0  0  0  0  0  0  0
    5.5963   -1.1065    0.3211 C   0  0  0  0  0  0  0  0  0  0  0  0
    4.2100   -1.1138    0.0632 C   0  0  0  0  0  0  0  0  0  0  0  0
    6.0812   -2.3814    0.8831 C   0  0  0  0  0  0  0  0  0  0  0  0
    7.8058    0.0724   -0.1324 O   0  0  0  0  0  0  0  0  0  0  0  0
    8.6831   -1.0222   -0.2609 C   0  0  0  0  0  0  0  0  0  0  0  0
    9.9709   -0.9177    0.1531 C   0  0  0  0  0  0  0  0  0  0  0  0
   10.5502   -2.1209    0.5269 C   0  0  0  0  0  0  0  0  0  0  0  0
    9.9915   -3.3476    0.3527 N   0  0  0  0  0  0  0  0  0  0  0  0
    8.8473   -3.3522   -0.3150 C   0  0  0  0  0  0  0  0  0  0  0  0
    8.2599   -2.2041   -0.6793 N   0  0  0  0  0  0  0  0  0  0  0  0
    8.1754   -4.5286   -0.5787 N   0  0  0  0  0  0  0  0  0  0  0  0
    6.7716   -4.5928   -1.0215 C   0  0  0  0  0  0  0  0  0  0  0  0
    6.2988   -3.3529   -1.8474 C   0  0  0  0  0  0  0  0  0  0  0  0
    7.0916   -3.2032   -3.1114 C   0  0  0  0  0  0  0  0  0  0  0  0
    6.7685   -4.3486   -3.9244 N   0  0  0  0  0  0  0  0  0  0  0  0
    7.2060   -5.5822   -3.2211 C   0  0  0  0  0  0  0  0  0  0  0  0
    6.5072   -5.8138   -1.8874 C   0  0  0  0  0  0  0  0  0  0  0  0
    5.3183   -4.2998   -4.2054 C   0  0  0  0  0  0  0  0  0  0  0  0
    5.0087   -5.3538   -5.1974 C   0  0  0  0  0  0  0  0  0  0  0  0
    4.6503   -6.6375   -4.7647 C   0  0  0  0  0  0  0  0  0  0  0  0
    4.8518   -7.7027   -5.6187 C   0  0  0  0  0  0  0  0  0  0  0  0
    5.2161   -7.4409   -6.9410 C   0  0  0  0  0  0  0  0  0  0  0  0
    5.3715   -6.1344   -7.4125 C   0  0  0  0  0  0  0  0  0  0  0  0
    5.3542   -5.0927   -6.5152 C   0  0  0  0  0  0  0  0  0  0  0  0
    5.5132   -8.8285   -7.9928 S   0  0  0  0  0  0  0  0  0  0  0  0
    6.6949   -9.4962   -7.4803 O   0  0  0  0  0  0  0  0  0  0  0  0
    4.2469   -9.5247   -8.1096 O   0  0  0  0  0  0  0  0  0  0  0  0
    5.9199   -8.1562   -9.5825 C   0  0  0  0  0  0  0  0  0  0  0  0
    3.7520    2.1943   -0.0862 H   0  0  0  0  0  0  0  0  0  0  0  0
    5.7164    3.3657   -0.0795 H   0  0  0  0  0  0  0  0  0  0  0  0
    7.0511    2.6178   -0.9771 H   0  0  0  0  0  0  0  0  0  0  0  0
    7.0341    2.6115    0.8188 H   0  0  0  0  0  0  0  0  0  0  0  0
    3.6700   -2.0640    0.0469 H   0  0  0  0  0  0  0  0  0  0  0  0
    7.1346   -2.3039    1.0104 H   0  0  0  0  0  0  0  0  0  0  0  0
    5.6844   -3.0957    0.1952 H   0  0  0  0  0  0  0  0  0  0  0  0
    5.7810   -2.8222    1.8205 H   0  0  0  0  0  0  0  0  0  0  0  0
   10.4776    0.0312    0.2037 H   0  0  0  0  0  0  0  0  0  0  0  0
   11.5089   -2.1314    1.0380 H   0  0  0  0  0  0  0  0  0  0  0  0
    8.6711   -5.3810   -0.3642 H   0  0  0  0  0  0  0  0  0  0  0  0
    6.1461   -4.7933   -0.1388 H   0  0  0  0  0  0  0  0  0  0  0  0
    6.4074   -2.3629   -1.4527 H   0  0  0  0  0  0  0  0  0  0  0  0
    5.2078   -3.3626   -1.9551 H   0  0  0  0  0  0  0  0  0  0  0  0
    8.1669   -3.1488   -2.9074 H   0  0  0  0  0  0  0  0  0  0  0  0
    6.8433   -2.2417   -3.5795 H   0  0  0  0  0  0  0  0  0  0  0  0
    8.2858   -5.5276   -3.0253 H   0  0  0  0  0  0  0  0  0  0  0  0
    7.0877   -6.4516   -3.8646 H   0  0  0  0  0  0  0  0  0  0  0  0
    6.8287   -6.7429   -1.4049 H   0  0  0  0  0  0  0  0  0  0  0  0
    5.4203   -5.9241   -2.0130 H   0  0  0  0  0  0  0  0  0  0  0  0
    5.0467   -3.3072   -4.5946 H   0  0  0  0  0  0  0  0  0  0  0  0
    4.6578   -4.4587   -3.3482 H   0  0  0  0  0  0  0  0  0  0  0  0
    4.3550   -6.8164   -3.7337 H   0  0  0  0  0  0  0  0  0  0  0  0
    4.7564   -8.7192   -5.2461 H   0  0  0  0  0  0  0  0  0  0  0  0
    5.5593   -5.8883   -8.4463 H   0  0  0  0  0  0  0  0  0  0  0  0
    5.6795   -4.0925   -6.7969 H   0  0  0  0  0  0  0  0  0  0  0  0
    6.8247   -7.5486   -9.4990 H   0  0  0  0  0  0  0  0  0  0  0  0
    5.0799   -7.5588   -9.9438 H   0  0  0  0  0  0  0  0  0  0  0  0
    6.1001   -8.9840  -10.2682 H   0  0  0  0  0  0  0  0  0  0  0  0
  1  2  3  0  0  0  0
  2  3  1  0  0  0  0
  3  4  2  0  0  0  0
  3  9  1  0  0  0  0
  4  5  1  0  0  0  0
  4 36  1  0  0  0  0
  5  6  1  0  0  0  0
  5  7  2  0  0  0  0
  6 37  1  0  0  0  0
  6 38  1  0  0  0  0
  6 39  1  0  0  0  0
  7  8  1  0  0  0  0
  7 11  1  0  0  0  0
  8  9  2  0  0  0  0
  8 10  1  0  0  0  0
  9 40  1  0  0  0  0
 10 41  1  0  0  0  0
 10 42  1  0  0  0  0
 10 43  1  0  0  0  0
 11 12  1  0  0  0  0
 12 13  2  0  0  0  0
 12 17  1  0  0  0  0
 13 14  1  0  0  0  0
 13 44  1  0  0  0  0
 14 15  2  0  0  0  0
 14 45  1  0  0  0  0
 15 16  1  0  0  0  0
 16 17  2  0  0  0  0
 16 18  1  0  0  0  0
 18 19  1  0  0  0  0
 18 46  1  0  0  0  0
 19 20  1  0  0  0  0
 19 24  1  0  0  0  0
 19 47  1  0  0  0  0
 20 21  1  0  0  0  0
 20 48  1  0  0  0  0
 20 49  1  0  0  0  0
 21 22  1  0  0  0  0
 21 50  1  0  0  0  0
 21 51  1  0  0  0  0
 22 23  1  0  0  0  0
 22 25  1  0  0  0  0
 23 24  1  0  0  0  0
 23 52  1  0  0  0  0
 23 53  1  0  0  0  0
 24 54  1  0  0  0  0
 24 55  1  0  0  0  0
 25 26  1  0  0  0  0
 25 56  1  0  0  0  0
 25 57  1  0  0  0  0
 26 27  2  0  0  0  0
 26 31  1  0  0  0  0
 27 28  1  0  0  0  0
 27 58  1  0  0  0  0
 28 29  2  0  0  0  0
 28 59  1  0  0  0  0
 29 30  1  0  0  0  0
 29 32  1  0  0  0  0
 30 31  2  0  0  0  0
 30 60  1  0  0  0  0
 31 61  1  0  0  0  0
 32 33  2  0  0  0  0
 32 34  2  0  0  0  0
 32 35  1  0  0  0  0
 35 62  1  0  0  0  0
 35 63  1  0  0  0  0
 35 64  1  0  0  0  0
M  END
$$$$
