DKX
 OpenBabel04121316103D

 32 33  0  0  1  0  0  0  0  0999 V2000
    0.7329   -0.0437    0.2702 O   0  0  0  0  0  0  0  0  0  0  0  0
    2.1362   -0.0464    0.1842 C   0  0  0  0  0  0  0  0  0  0  0  0
    2.9569    1.0658    0.8541 C   0  0  1  0  0  0  0  0  0  0  0  0
    2.7495    1.0327    1.9317 H   0  0  0  0  0  0  0  0  0  0  0  0
    4.3493    0.6843    0.6649 O   0  0  0  0  0  0  0  0  0  0  0  0
    4.8849    0.8475   -0.6782 C   0  0  2  0  0  0  0  0  0  0  0  0
    5.9572    0.6447   -0.5519 H   0  0  0  0  0  0  0  0  0  0  0  0
    4.6987    2.3012   -1.1516 C   0  0  1  0  0  0  0  0  0  0  0  0
    5.0777    2.3879   -2.1707 H   0  0  0  0  0  0  0  0  0  0  0  0
    3.2162    2.7312   -1.0259 C   0  0  2  0  0  0  0  0  0  0  0  0
    3.1441    3.7753   -1.3398 H   0  0  0  0  0  0  0  0  0  0  0  0
    2.6817    2.5180    0.3802 C   0  0  2  0  0  0  0  0  0  0  0  0
    1.6015    2.6976    0.3830 H   0  0  0  0  0  0  0  0  0  0  0  0
    3.2488    3.4832    1.2748 O   0  0  0  0  0  0  0  0  0  0  0  0
    2.3537    2.0501   -1.8258 F   0  0  0  0  0  0  0  0  0  0  0  0
    5.5235    3.2201   -0.4027 O   0  0  0  0  0  0  0  0  0  0  0  0
    4.3910   -0.1901   -1.6219 N   0  0  0  0  0  0  0  0  0  0  0  0
    4.5867   -1.5379   -1.3533 C   0  0  0  0  0  0  0  0  0  0  0  0
    4.0743   -2.4716   -2.1658 C   0  0  0  0  0  0  0  0  0  0  0  0
    3.1060   -2.0540   -3.2061 C   0  0  0  0  0  0  0  0  0  0  0  0
    2.6984   -2.8157   -4.0673 O   0  0  0  0  0  0  0  0  0  0  0  0
    2.7092   -0.7632   -3.1153 N   0  0  0  0  0  0  0  0  0  0  0  0
    2.0609   -0.4506   -3.8224 H   0  0  0  0  0  0  0  0  0  0  0  0
    3.6625    0.1505   -2.7797 C   0  0  0  0  0  0  0  0  0  0  0  0
    3.7790    1.1767   -3.4486 O   0  0  0  0  0  0  0  0  0  0  0  0
    0.4591   -0.6520   -0.4494 H   0  0  0  0  0  0  0  0  0  0  0  0
    2.2958    0.0253   -0.8707 H   0  0  0  0  0  0  0  0  0  0  0  0
    2.5157   -1.0257    0.5029 H   0  0  0  0  0  0  0  0  0  0  0  0
    3.3012    4.3328    0.7963 H   0  0  0  0  0  0  0  0  0  0  0  0
    6.4135    2.8363   -0.3109 H   0  0  0  0  0  0  0  0  0  0  0  0
    5.1904   -1.7935   -0.4865 H   0  0  0  0  0  0  0  0  0  0  0  0
    4.2756   -3.5286   -2.0804 H   0  0  0  0  0  0  0  0  0  0  0  0
  1  2  1  0  0  0  0
  1 26  1  0  0  0  0
  2  3  1  0  0  0  0
  2 27  1  0  0  0  0
  2 28  1  0  0  0  0
  3  4  1  1  0  0  0
  3  5  1  0  0  0  0
  3 12  1  0  0  0  0
  5  6  1  0  0  0  0
  6  8  1  0  0  0  0
  6 17  1  0  0  0  0
  6  7  1  1  0  0  0
  8  9  1  6  0  0  0
  8 10  1  0  0  0  0
  8 16  1  0  0  0  0
 10 12  1  0  0  0  0
 10 15  1  0  0  0  0
 10 11  1  6  0  0  0
 12 13  1  6  0  0  0
 12 14  1  0  0  0  0
 14 29  1  0  0  0  0
 16 30  1  0  0  0  0
 17 18  1  0  0  0  0
 17 24  1  0  0  0  0
 18 19  2  0  0  0  0
 18 31  1  0  0  0  0
 19 20  1  0  0  0  0
 19 32  1  0  0  0  0
 20 21  2  0  0  0  0
 20 22  1  0  0  0  0
 22 23  1  0  0  0  0
 22 24  1  0  0  0  0
 24 25  2  0  0  0  0
M  END
$$$$
