DM2
 OpenBabel04121316103D

 68 72  0  0  1  0  0  0  0  0999 V2000
    5.1375   -1.9780   -1.5240 O   0  0  0  0  0  0  0  0  0  0  0  0
    4.5029   -1.0190   -0.6995 C   0  0  0  0  0  0  0  0  0  0  0  0
    5.0770   -1.0202    0.7276 C   0  0  0  0  0  0  0  0  0  0  0  0
    6.0252   -1.7284    1.0706 O   0  0  0  0  0  0  0  0  0  0  0  0
    4.4436   -0.0395    1.7065 C   0  0  1  0  0  0  0  0  0  0  0  0
    3.0663   -0.0556    1.3482 O   0  0  0  0  0  0  0  0  0  0  0  0
    4.6481   -0.4821    3.1640 C   0  0  0  0  0  0  0  0  0  0  0  0
    3.8372    0.3998    4.1222 C   0  0  2  0  0  0  0  0  0  0  0  0
    4.0251    0.0738    5.1515 H   0  0  0  0  0  0  0  0  0  0  0  0
    2.4038    0.0976    3.8230 O   0  0  0  0  0  0  0  0  0  0  0  0
    1.4092    0.9473    4.4497 C   0  0  1  0  0  0  0  0  0  0  0  0
    1.6340    0.9607    5.5228 H   0  0  0  0  0  0  0  0  0  0  0  0
    1.4723    2.2738    3.7386 C   0  0  0  0  0  0  0  0  0  0  0  0
    1.0898    2.1865    2.2853 C   0  0  2  0  0  0  0  0  0  0  0  0
    1.4961    1.3306    1.7743 H   0  0  0  0  0  0  0  0  0  0  0  0
    1.5492    3.3548    1.5276 N   0  0  0  0  0  0  0  0  0  0  0  0
   -0.3713    1.9744    2.2987 C   0  0  1  0  0  0  0  0  0  0  0  0
   -0.7354    1.8826    1.2732 H   0  0  0  0  0  0  0  0  0  0  0  0
   -0.6025    0.6574    3.0872 C   0  0  1  0  0  0  0  0  0  0  0  0
   -0.2051   -0.1911    2.5194 H   0  0  0  0  0  0  0  0  0  0  0  0
    0.0286    0.5295    4.3765 O   0  0  0  0  0  0  0  0  0  0  0  0
   -2.1063    0.5426    3.1923 C   0  0  0  0  0  0  0  0  0  0  0  0
   -0.9531    3.1453    2.8824 O   0  0  0  0  0  0  0  0  0  0  0  0
    4.3600    1.8583    3.9110 C   0  0  0  0  0  0  0  0  0  0  0  0
    4.7274    2.3379    2.6167 C   0  0  0  0  0  0  0  0  0  0  0  0
    4.9944    1.3665    1.4822 C   0  0  0  0  0  0  0  0  0  0  0  0
    4.7434    3.7397    2.3502 C   0  0  0  0  0  0  0  0  0  0  0  0
    4.9795    4.2019    1.0839 O   0  0  0  0  0  0  0  0  0  0  0  0
    4.3284    4.6779    3.3076 C   0  0  0  0  0  0  0  0  0  0  0  0
    3.9687    4.2055    4.5596 C   0  0  0  0  0  0  0  0  0  0  0  0
    4.0658    2.8209    4.9015 C   0  0  0  0  0  0  0  0  0  0  0  0
    3.4982    2.3207    6.0594 O   0  0  0  0  0  0  0  0  0  0  0  0
    3.1117    5.0575    5.3858 C   0  0  0  0  0  0  0  0  0  0  0  0
    2.3549    4.4168    6.0748 O   0  0  0  0  0  0  0  0  0  0  0  0
    3.0852    6.5385    5.2455 C   0  0  0  0  0  0  0  0  0  0  0  0
    3.6179    7.0388    4.0467 C   0  0  0  0  0  0  0  0  0  0  0  0
    4.1647    6.1312    3.0051 C   0  0  0  0  0  0  0  0  0  0  0  0
    4.5026    6.6183    1.9391 O   0  0  0  0  0  0  0  0  0  0  0  0
    3.6791    8.4214    3.8028 C   0  0  0  0  0  0  0  0  0  0  0  0
    3.2239    9.3177    4.7586 C   0  0  0  0  0  0  0  0  0  0  0  0
    2.6827    8.8309    5.9446 C   0  0  0  0  0  0  0  0  0  0  0  0
    2.5912    7.4488    6.2089 C   0  0  0  0  0  0  0  0  0  0  0  0
    2.0416    7.2494    7.4529 O   0  0  0  0  0  0  0  0  0  0  0  0
    1.8299    5.9252    7.8943 C   0  0  0  0  0  0  0  0  0  0  0  0
    4.6629   -1.9977   -2.3694 H   0  0  0  0  0  0  0  0  0  0  0  0
    3.4309   -1.2455   -0.6734 H   0  0  0  0  0  0  0  0  0  0  0  0
    4.6485   -0.0282   -1.1426 H   0  0  0  0  0  0  0  0  0  0  0  0
    2.5703   -0.0462    2.1911 H   0  0  0  0  0  0  0  0  0  0  0  0
    5.7131   -0.4081    3.4162 H   0  0  0  0  0  0  0  0  0  0  0  0
    4.3386   -1.5267    3.2758 H   0  0  0  0  0  0  0  0  0  0  0  0
    2.4533    2.5666    3.5756 H   0  0  0  0  0  0  0  0  0  0  0  0
    1.0111    3.0750    4.3181 H   0  0  0  0  0  0  0  0  0  0  0  0
    2.5613    3.2572    1.4025 H   0  0  0  0  0  0  0  0  0  0  0  0
    1.4535    4.2064    2.0722 H   0  0  0  0  0  0  0  0  0  0  0  0
   -2.5146    0.5040    2.1754 H   0  0  0  0  0  0  0  0  0  0  0  0
   -2.5268    1.4251    3.6883 H   0  0  0  0  0  0  0  0  0  0  0  0
   -2.4165   -0.3365    3.7519 H   0  0  0  0  0  0  0  0  0  0  0  0
   -0.4938    3.8878    2.4429 H   0  0  0  0  0  0  0  0  0  0  0  0
    6.0810    1.3436    1.3522 H   0  0  0  0  0  0  0  0  0  0  0  0
    4.5435    1.7571    0.5594 H   0  0  0  0  0  0  0  0  0  0  0  0
    5.3751    3.5473    0.4930 H   0  0  0  0  0  0  0  0  0  0  0  0
    2.8048    2.9582    6.3680 H   0  0  0  0  0  0  0  0  0  0  0  0
    4.1040    8.8045    2.8749 H   0  0  0  0  0  0  0  0  0  0  0  0
    3.2975   10.3894    4.5867 H   0  0  0  0  0  0  0  0  0  0  0  0
    2.3336    9.5427    6.6934 H   0  0  0  0  0  0  0  0  0  0  0  0
    1.3984    5.8799    8.8937 H   0  0  0  0  0  0  0  0  0  0  0  0
    2.7983    5.4147    7.9677 H   0  0  0  0  0  0  0  0  0  0  0  0
    1.0713    5.4643    7.2539 H   0  0  0  0  0  0  0  0  0  0  0  0
  1  2  1  0  0  0  0
  1 45  1  0  0  0  0
  2  3  1  0  0  0  0
  2 46  1  0  0  0  0
  2 47  1  0  0  0  0
  3  4  2  0  0  0  0
  5  7  1  0  0  0  0
  5 26  1  0  0  0  0
  5  6  1  6  0  0  0
  5  3  1  0  0  0  0
  6 48  1  0  0  0  0
  7  8  1  0  0  0  0
  7 49  1  0  0  0  0
  7 50  1  0  0  0  0
  8 24  1  0  0  0  0
  8 10  1  0  0  0  0
  8  9  1  1  0  0  0
 10 11  1  0  0  0  0
 11 12  1  1  0  0  0
 11 13  1  0  0  0  0
 11 21  1  0  0  0  0
 13 14  1  0  0  0  0
 13 51  1  0  0  0  0
 13 52  1  0  0  0  0
 14 15  1  6  0  0  0
 14 16  1  0  0  0  0
 14 17  1  0  0  0  0
 16 53  1  0  0  0  0
 16 54  1  0  0  0  0
 17 18  1  6  0  0  0
 17 19  1  0  0  0  0
 17 23  1  0  0  0  0
 19 20  1  6  0  0  0
 19 21  1  0  0  0  0
 19 22  1  0  0  0  0
 22 55  1  0  0  0  0
 22 56  1  0  0  0  0
 22 57  1  0  0  0  0
 23 58  1  0  0  0  0
 24 25  2  0  0  0  0
 24 31  1  0  0  0  0
 25 26  1  0  0  0  0
 25 27  1  0  0  0  0
 26 59  1  0  0  0  0
 26 60  1  0  0  0  0
 27 28  1  0  0  0  0
 27 29  2  0  0  0  0
 28 61  1  0  0  0  0
 29 30  1  0  0  0  0
 29 37  1  0  0  0  0
 30 31  2  0  0  0  0
 30 33  1  0  0  0  0
 31 32  1  0  0  0  0
 32 62  1  0  0  0  0
 33 34  2  0  0  0  0
 33 35  1  0  0  0  0
 35 36  2  0  0  0  0
 35 42  1  0  0  0  0
 36 37  1  0  0  0  0
 36 39  1  0  0  0  0
 37 38  2  0  0  0  0
 39 40  2  0  0  0  0
 39 63  1  0  0  0  0
 40 41  1  0  0  0  0
 40 64  1  0  0  0  0
 41 42  2  0  0  0  0
 41 65  1  0  0  0  0
 42 43  1  0  0  0  0
 43 44  1  0  0  0  0
 44 66  1  0  0  0  0
 44 67  1  0  0  0  0
 44 68  1  0  0  0  0
M  END
$$$$
