DM8
 OpenBabel04121316103D

 67 71  0  0  1  0  0  0  0  0999 V2000
    6.0878    1.6429   -6.7046 C   0  0  0  0  0  0  0  0  0  0  0  0
    6.3457    2.7996   -5.9263 O   0  0  0  0  0  0  0  0  0  0  0  0
    5.6761    3.9608   -6.2017 C   0  0  0  0  0  0  0  0  0  0  0  0
    4.7589    4.0739   -7.2473 C   0  0  0  0  0  0  0  0  0  0  0  0
    4.1095    5.2843   -7.4829 C   0  0  0  0  0  0  0  0  0  0  0  0
    4.3798    6.3975   -6.6849 C   0  0  0  0  0  0  0  0  0  0  0  0
    5.2640    6.2886   -5.6043 C   0  0  0  0  0  0  0  0  0  0  0  0
    5.9027    5.0754   -5.3517 C   0  0  0  0  0  0  0  0  0  0  0  0
    6.7532    4.9743   -4.1473 C   0  0  0  0  0  0  0  0  0  0  0  0
    7.5317    4.0028   -4.0625 O   0  0  0  0  0  0  0  0  0  0  0  0
    6.7457    6.0571   -3.0881 C   0  0  0  0  0  0  0  0  0  0  0  0
    6.1593    7.2921   -3.3995 C   0  0  0  0  0  0  0  0  0  0  0  0
    5.4586    7.4626   -4.7120 C   0  0  0  0  0  0  0  0  0  0  0  0
    5.0697    8.5582   -5.0569 O   0  0  0  0  0  0  0  0  0  0  0  0
    6.4685    8.4342   -2.5922 C   0  0  0  0  0  0  0  0  0  0  0  0
    6.0256    9.6925   -2.9602 O   0  0  0  0  0  0  0  0  0  0  0  0
    7.4117    8.4006   -1.5023 C   0  0  0  0  0  0  0  0  0  0  0  0
    8.0228    7.1566   -1.1487 C   0  0  0  0  0  0  0  0  0  0  0  0
    7.6086    5.9794   -1.9332 C   0  0  0  0  0  0  0  0  0  0  0  0
    8.0868    4.7223   -1.6412 O   0  0  0  0  0  0  0  0  0  0  0  0
    9.4725    7.3200   -0.2997 C   0  0  1  0  0  0  0  0  0  0  0  0
    9.6328    6.3997    0.2782 H   0  0  0  0  0  0  0  0  0  0  0  0
   10.8840    7.7787   -0.8803 O   0  0  0  0  0  0  0  0  0  0  0  0
   11.2046    7.9250   -2.3388 C   0  0  2  0  0  0  0  0  0  0  0  0
   12.2061    7.5169   -2.5063 H   0  0  0  0  0  0  0  0  0  0  0  0
   11.2171    9.2407   -2.9483 O   0  0  0  0  0  0  0  0  0  0  0  0
   10.9992    9.2246   -4.4025 C   0  0  1  0  0  0  0  0  0  0  0  0
   11.1688   10.2404   -4.7761 H   0  0  0  0  0  0  0  0  0  0  0  0
   11.8680    8.2025   -5.1292 C   0  0  0  0  0  0  0  0  0  0  0  0
    9.5564    8.8606   -4.6986 C   0  0  1  0  0  0  0  0  0  0  0  0
    9.2528    8.9064   -5.7482 H   0  0  0  0  0  0  0  0  0  0  0  0
    9.3765    7.4092   -4.2004 C   0  0  2  0  0  0  0  0  0  0  0  0
    8.3149    7.4115   -4.0795 H   0  0  0  0  0  0  0  0  0  0  0  0
   10.0950    7.1711   -2.9013 C   0  0  1  0  0  0  0  0  0  0  0  0
    9.4185    7.7816   -2.3523 H   0  0  0  0  0  0  0  0  0  0  0  0
   10.7464    5.3250   -2.4031 Br  0  0  0  0  0  0  0  0  0  0  0  0
    9.5918    6.2324   -4.9920 N   0  0  0  0  0  0  0  0  0  0  0  0
    8.7021    9.8018   -4.0324 O   0  0  0  0  0  0  0  0  0  0  0  0
    9.3221    8.4373    0.7153 C   0  0  0  0  0  0  0  0  0  0  0  0
    9.2020    9.7443   -0.0450 C   0  0  2  0  0  0  0  0  0  0  0  0
    7.9058    9.7363   -0.8909 C   0  0  0  0  0  0  0  0  0  0  0  0
   10.3737   10.1786   -0.7641 O   0  0  0  0  0  0  0  0  0  0  0  0
    9.3891   10.9096    0.8950 C   0  0  0  0  0  0  0  0  0  0  0  0
    9.9103   10.7927    2.0138 O   0  0  0  0  0  0  0  0  0  0  0  0
    9.0869   12.2643    0.3275 C   0  0  0  0  0  0  0  0  0  0  0  0
    6.7189    0.8323   -6.3256 H   0  0  0  0  0  0  0  0  0  0  0  0
    6.3526    1.8089   -7.7532 H   0  0  0  0  0  0  0  0  0  0  0  0
    5.0445    1.3318   -6.5966 H   0  0  0  0  0  0  0  0  0  0  0  0
    4.5097    3.2248   -7.8776 H   0  0  0  0  0  0  0  0  0  0  0  0
    3.3734    5.3486   -8.2802 H   0  0  0  0  0  0  0  0  0  0  0  0
    3.8595    7.3331   -6.8800 H   0  0  0  0  0  0  0  0  0  0  0  0
    5.6316    9.6444   -3.8623 H   0  0  0  0  0  0  0  0  0  0  0  0
    8.9967    4.6022   -1.9931 H   0  0  0  0  0  0  0  0  0  0  0  0
   11.8753    7.2360   -4.6241 H   0  0  0  0  0  0  0  0  0  0  0  0
   12.9067    8.5005   -5.1363 H   0  0  0  0  0  0  0  0  0  0  0  0
   11.4852    8.0095   -6.1391 H   0  0  0  0  0  0  0  0  0  0  0  0
   10.4594    5.7675   -4.7176 H   0  0  0  0  0  0  0  0  0  0  0  0
    9.5152    6.3629   -5.9806 H   0  0  0  0  0  0  0  0  0  0  0  0
    8.8481   10.6982   -4.3948 H   0  0  0  0  0  0  0  0  0  0  0  0
   10.2161    8.4377    1.3527 H   0  0  0  0  0  0  0  0  0  0  0  0
    8.4466    8.2977    1.3584 H   0  0  0  0  0  0  0  0  0  0  0  0
    8.0316   10.4669   -1.6983 H   0  0  0  0  0  0  0  0  0  0  0  0
    7.0905   10.0679   -0.2442 H   0  0  0  0  0  0  0  0  0  0  0  0
   10.4478    9.7446   -1.6248 H   0  0  0  0  0  0  0  0  0  0  0  0
    9.2896   13.0122    1.0903 H   0  0  0  0  0  0  0  0  0  0  0  0
    8.0363   12.2803    0.0420 H   0  0  0  0  0  0  0  0  0  0  0  0
    9.7132   12.4645   -0.5501 H   0  0  0  0  0  0  0  0  0  0  0  0
  1  2  1  0  0  0  0
  1 46  1  0  0  0  0
  1 47  1  0  0  0  0
  1 48  1  0  0  0  0
  2  3  1  0  0  0  0
  3  4  2  0  0  0  0
  3  8  1  0  0  0  0
  4  5  1  0  0  0  0
  4 49  1  0  0  0  0
  5  6  2  0  0  0  0
  5 50  1  0  0  0  0
  6  7  1  0  0  0  0
  6 51  1  0  0  0  0
  7  8  2  0  0  0  0
  7 13  1  0  0  0  0
  8  9  1  0  0  0  0
  9 10  2  0  0  0  0
  9 11  1  0  0  0  0
 11 12  2  0  0  0  0
 11 19  1  0  0  0  0
 12 13  1  0  0  0  0
 12 15  1  0  0  0  0
 13 14  2  0  0  0  0
 15 16  1  0  0  0  0
 15 17  2  0  0  0  0
 16 52  1  0  0  0  0
 17 18  1  0  0  0  0
 17 41  1  0  0  0  0
 18 19  2  0  0  0  0
 18 21  1  0  0  0  0
 19 20  1  0  0  0  0
 20 53  1  0  0  0  0
 21 39  1  0  0  0  0
 21 23  1  0  0  0  0
 21 22  1  1  0  0  0
 24 26  1  0  0  0  0
 24 34  1  0  0  0  0
 24 25  1  6  0  0  0
 24 23  1  0  0  0  0
 26 27  1  0  0  0  0
 27 30  1  0  0  0  0
 27 29  1  0  0  0  0
 27 28  1  6  0  0  0
 29 54  1  0  0  0  0
 29 55  1  0  0  0  0
 29 56  1  0  0  0  0
 30 31  1  6  0  0  0
 30 32  1  0  0  0  0
 30 38  1  0  0  0  0
 32 34  1  0  0  0  0
 32 37  1  0  0  0  0
 32 33  1  1  0  0  0
 34 36  1  0  0  0  0
 34 35  1  1  0  0  0
 37 57  1  0  0  0  0
 37 58  1  0  0  0  0
 38 59  1  0  0  0  0
 39 40  1  0  0  0  0
 39 60  1  0  0  0  0
 39 61  1  0  0  0  0
 40 41  1  0  0  0  0
 40 43  1  1  0  0  0
 40 42  1  0  0  0  0
 41 62  1  0  0  0  0
 41 63  1  0  0  0  0
 42 64  1  0  0  0  0
 43 44  2  0  0  0  0
 43 45  1  0  0  0  0
 45 65  1  0  0  0  0
 45 66  1  0  0  0  0
 45 67  1  0  0  0  0
M  END
$$$$
