DM9
 OpenBabel04121316103D

 83 87  0  0  1  0  0  0  0  0999 V2000
    1.0406   -0.6661    0.2968 C   0  0  0  0  0  0  0  0  0  0  0  0
    2.4935   -0.6767    0.1568 O   0  0  0  0  0  0  0  0  0  0  0  0
    3.0989    0.6038   -0.0102 C   0  0  0  0  0  0  0  0  0  0  0  0
    4.5982    0.9509    0.4218 C   0  0  0  0  0  0  0  0  0  0  0  0
    5.0575    2.3408    0.8808 N   0  0  0  0  0  0  0  0  0  0  0  0
    4.6322    2.8740    2.2260 C   0  0  1  0  0  0  0  0  0  0  0  0
    5.0631    2.2253    2.9866 H   0  0  0  0  0  0  0  0  0  0  0  0
    4.9787    4.4274    2.5604 C   0  0  0  0  0  0  0  0  0  0  0  0
    4.3142    5.3856    1.5593 C   0  0  1  0  0  0  0  0  0  0  0  0
    4.7548    5.1126    0.6093 H   0  0  0  0  0  0  0  0  0  0  0  0
    2.9205    5.1190    1.6013 O   0  0  0  0  0  0  0  0  0  0  0  0
    2.6080    3.7625    1.2487 C   0  0  2  0  0  0  0  0  0  0  0  0
    1.5383    3.6969    1.4116 H   0  0  0  0  0  0  0  0  0  0  0  0
    3.1117    2.8557    2.3732 C   0  0  1  0  0  0  0  0  0  0  0  0
    2.8077    3.3316    3.3134 H   0  0  0  0  0  0  0  0  0  0  0  0
    2.4837    1.5870    2.4890 O   0  0  0  0  0  0  0  0  0  0  0  0
    3.1259    3.5047   -0.2697 C   0  0  0  0  0  0  0  0  0  0  0  0
    4.5163    6.7923    1.5265 O   0  0  0  0  0  0  0  0  0  0  0  0
    3.4842    7.7076    0.9701 C   0  0  1  0  0  0  0  0  0  0  0  0
    2.8603    7.7798    1.8590 H   0  0  0  0  0  0  0  0  0  0  0  0
    4.1647    9.0639    0.8090 C   0  0  0  0  0  0  0  0  0  0  0  0
    3.5068    9.9723   -0.2385 C   0  0  1  0  0  0  0  0  0  0  0  0
    3.9478    9.6272   -1.5655 O   0  0  0  0  0  0  0  0  0  0  0  0
    1.9668    9.9464   -0.1111 C   0  0  0  0  0  0  0  0  0  0  0  0
    1.4786    8.5835   -0.4358 C   0  0  0  0  0  0  0  0  0  0  0  0
    2.3014    7.5776   -0.0464 C   0  0  0  0  0  0  0  0  0  0  0  0
    1.9687    6.4380   -0.6874 C   0  0  0  0  0  0  0  0  0  0  0  0
    3.0849    5.7589   -0.8500 O   0  0  0  0  0  0  0  0  0  0  0  0
    0.7269    6.0555   -1.2486 C   0  0  0  0  0  0  0  0  0  0  0  0
   -0.1064    7.0157   -1.6542 C   0  0  0  0  0  0  0  0  0  0  0  0
    0.3143    8.3452   -1.2342 C   0  0  0  0  0  0  0  0  0  0  0  0
   -0.3615    9.4867   -1.5259 O   0  0  0  0  0  0  0  0  0  0  0  0
   -1.2203    6.4806   -2.4238 C   0  0  0  0  0  0  0  0  0  0  0  0
   -2.1542    7.2867   -2.9988 O   0  0  0  0  0  0  0  0  0  0  0  0
   -1.4539    5.0741   -2.6808 C   0  0  0  0  0  0  0  0  0  0  0  0
   -0.6686    4.1132   -2.1385 C   0  0  0  0  0  0  0  0  0  0  0  0
    0.3019    4.6933   -1.3127 C   0  0  0  0  0  0  0  0  0  0  0  0
    0.3623    4.0436   -0.1195 O   0  0  0  0  0  0  0  0  0  0  0  0
   -0.9738    2.7097   -2.3437 C   0  0  0  0  0  0  0  0  0  0  0  0
   -0.3847    1.5592   -1.9683 O   0  0  0  0  0  0  0  0  0  0  0  0
    0.9089    1.6634   -1.5333 C   0  0  0  0  0  0  0  0  0  0  0  0
   -2.0576    2.3202   -3.0936 C   0  0  0  0  0  0  0  0  0  0  0  0
   -2.8496    3.2825   -3.6304 C   0  0  0  0  0  0  0  0  0  0  0  0
   -2.5604    4.6330   -3.4272 C   0  0  0  0  0  0  0  0  0  0  0  0
    3.9280   11.4111    0.0112 C   0  0  0  0  0  0  0  0  0  0  0  0
    4.6551   11.7364    0.9509 O   0  0  0  0  0  0  0  0  0  0  0  0
    3.3560   12.4559   -0.9042 C   0  0  0  0  0  0  0  0  0  0  0  0
    6.4842    2.5026    0.6211 C   0  0  0  0  0  0  0  0  0  0  0  0
    6.9520    3.8300    0.7604 O   0  0  0  0  0  0  0  0  0  0  0  0
    0.6910   -1.6954    0.2891 H   0  0  0  0  0  0  0  0  0  0  0  0
    0.4382   -0.2648   -0.5209 H   0  0  0  0  0  0  0  0  0  0  0  0
    0.7214   -0.1282    1.1969 H   0  0  0  0  0  0  0  0  0  0  0  0
    2.4119    1.2800    0.4729 H   0  0  0  0  0  0  0  0  0  0  0  0
    3.1184    0.7973   -1.0898 H   0  0  0  0  0  0  0  0  0  0  0  0
    5.1112    0.8191   -0.5462 H   0  0  0  0  0  0  0  0  0  0  0  0
    4.9696    0.2041    1.1101 H   0  0  0  0  0  0  0  0  0  0  0  0
    6.0458    4.6099    2.6407 H   0  0  0  0  0  0  0  0  0  0  0  0
    4.5589    4.6565    3.5487 H   0  0  0  0  0  0  0  0  0  0  0  0
    3.1229    0.8762    2.3174 H   0  0  0  0  0  0  0  0  0  0  0  0
    4.1502    3.7991   -0.5233 H   0  0  0  0  0  0  0  0  0  0  0  0
    2.5933    3.9164   -1.1286 H   0  0  0  0  0  0  0  0  0  0  0  0
    3.0364    2.5281   -0.5992 H   0  0  0  0  0  0  0  0  0  0  0  0
    5.2489    8.9839    0.6394 H   0  0  0  0  0  0  0  0  0  0  0  0
    4.0579    9.5181    1.8017 H   0  0  0  0  0  0  0  0  0  0  0  0
    3.6926    8.7064   -1.7685 H   0  0  0  0  0  0  0  0  0  0  0  0
    1.5075   10.6400   -0.8119 H   0  0  0  0  0  0  0  0  0  0  0  0
    1.6400   10.1892    0.9035 H   0  0  0  0  0  0  0  0  0  0  0  0
    3.0296    5.5194    0.0957 H   0  0  0  0  0  0  0  0  0  0  0  0
   -0.9833    9.3502   -2.2385 H   0  0  0  0  0  0  0  0  0  0  0  0
   -1.9622    8.1886   -2.7635 H   0  0  0  0  0  0  0  0  0  0  0  0
    1.0625    3.4349   -0.3382 H   0  0  0  0  0  0  0  0  0  0  0  0
    1.3849    0.7213   -1.7597 H   0  0  0  0  0  0  0  0  0  0  0  0
    0.8187    1.7830   -0.4480 H   0  0  0  0  0  0  0  0  0  0  0  0
    1.5184    2.3957   -2.0541 H   0  0  0  0  0  0  0  0  0  0  0  0
   -2.2373    1.2545   -3.2267 H   0  0  0  0  0  0  0  0  0  0  0  0
   -3.7107    2.9792   -4.2033 H   0  0  0  0  0  0  0  0  0  0  0  0
   -3.2304    5.3703   -3.8297 H   0  0  0  0  0  0  0  0  0  0  0  0
    2.7308   12.0154   -1.6853 H   0  0  0  0  0  0  0  0  0  0  0  0
    4.1754   12.9815   -1.3893 H   0  0  0  0  0  0  0  0  0  0  0  0
    2.7362   13.1239   -0.3021 H   0  0  0  0  0  0  0  0  0  0  0  0
    6.7285    2.2236   -0.4085 H   0  0  0  0  0  0  0  0  0  0  0  0
    7.0335    1.8716    1.3156 H   0  0  0  0  0  0  0  0  0  0  0  0
    6.5288    4.3786    0.0805 H   0  0  0  0  0  0  0  0  0  0  0  0
  1  2  1  0  0  0  0
  1 50  1  0  0  0  0
  1 51  1  0  0  0  0
  1 52  1  0  0  0  0
  2  3  1  0  0  0  0
  3  4  1  0  0  0  0
  3 53  1  0  0  0  0
  3 54  1  0  0  0  0
  4  5  1  0  0  0  0
  4 55  1  0  0  0  0
  4 56  1  0  0  0  0
  5  6  1  0  0  0  0
  5 48  1  0  0  0  0
  6  7  1  1  0  0  0
  6  8  1  0  0  0  0
  6 14  1  0  0  0  0
  8  9  1  0  0  0  0
  8 57  1  0  0  0  0
  8 58  1  0  0  0  0
  9 10  1  6  0  0  0
  9 11  1  0  0  0  0
  9 18  1  0  0  0  0
 11 12  1  0  0  0  0
 12 14  1  0  0  0  0
 12 17  1  0  0  0  0
 12 13  1  6  0  0  0
 14 16  1  0  0  0  0
 14 15  1  1  0  0  0
 16 59  1  0  0  0  0
 17 60  1  0  0  0  0
 17 61  1  0  0  0  0
 17 62  1  0  0  0  0
 18 19  1  0  0  0  0
 19 20  1  1  0  0  0
 19 21  1  0  0  0  0
 19 26  1  0  0  0  0
 21 22  1  0  0  0  0
 21 63  1  0  0  0  0
 21 64  1  0  0  0  0
 22 23  1  6  0  0  0
 22 24  1  0  0  0  0
 22 45  1  0  0  0  0
 23 65  1  0  0  0  0
 24 25  1  0  0  0  0
 24 66  1  0  0  0  0
 24 67  1  0  0  0  0
 25 26  2  0  0  0  0
 25 31  1  0  0  0  0
 26 27  1  0  0  0  0
 27 28  1  0  0  0  0
 27 29  2  0  0  0  0
 28 68  1  0  0  0  0
 29 30  1  0  0  0  0
 29 37  1  0  0  0  0
 30 31  2  0  0  0  0
 30 33  1  0  0  0  0
 31 32  1  0  0  0  0
 32 69  1  0  0  0  0
 33 34  1  0  0  0  0
 33 35  2  0  0  0  0
 34 70  1  0  0  0  0
 35 36  1  0  0  0  0
 35 44  1  0  0  0  0
 36 37  2  0  0  0  0
 36 39  1  0  0  0  0
 37 38  1  0  0  0  0
 38 71  1  0  0  0  0
 39 40  1  0  0  0  0
 39 42  2  0  0  0  0
 40 41  1  0  0  0  0
 41 72  1  0  0  0  0
 41 73  1  0  0  0  0
 41 74  1  0  0  0  0
 42 43  1  0  0  0  0
 42 75  1  0  0  0  0
 43 44  2  0  0  0  0
 43 76  1  0  0  0  0
 44 77  1  0  0  0  0
 45 46  2  0  0  0  0
 45 47  1  0  0  0  0
 47 78  1  0  0  0  0
 47 79  1  0  0  0  0
 47 80  1  0  0  0  0
 48 49  1  0  0  0  0
 48 81  1  0  0  0  0
 48 82  1  0  0  0  0
 49 83  1  0  0  0  0
M  END
$$$$
