DMA
 OpenBabel04121316103D

 26 25  0  0  0  0  0  0  0  0999 V2000
    1.5510   -8.5476   -4.0242 C   0  0  0  0  0  0  0  0  0  0  0  0
    1.5950   -7.1438   -4.5914 C   0  0  0  0  0  0  0  0  0  0  0  0
    1.8303   -6.0628   -3.8364 C   0  0  0  0  0  0  0  0  0  0  0  0
    2.0133   -6.2347   -2.3764 C   0  0  0  0  0  0  0  0  0  0  0  0
    2.2405   -5.0350   -1.6998 O   0  0  0  0  0  0  0  0  0  0  0  0
    2.3987   -5.0614   -0.0523 P   0  0  2  0  0  0  0  0  0  0  0  0
    3.1709   -3.7240   -0.0526 O   0  0  0  0  0  0  0  0  0  0  0  0
    3.9545   -5.7982    0.1312 O   0  0  0  0  0  0  0  0  0  0  0  0
    5.1004   -4.6492    0.5719 P   0  0  0  0  0  0  0  0  0  0  0  0
    5.4673   -3.5057   -0.3472 O   0  0  0  0  0  0  0  0  0  0  0  0
    4.6307   -4.2482    2.0577 O   0  0  0  0  0  0  0  0  0  0  0  0
    6.5510   -5.1952    0.9150 O   0  0  0  0  0  0  0  0  0  0  0  0
    1.5337   -6.5596   -0.0520 O   0  0  0  0  0  0  0  0  0  0  0  0
    1.3550   -7.0059   -6.0606 C   0  0  0  0  0  0  0  0  0  0  0  0
    1.6973   -8.5936   -2.9391 H   0  0  0  0  0  0  0  0  0  0  0  0
    2.3448   -9.1552   -4.4643 H   0  0  0  0  0  0  0  0  0  0  0  0
    0.5790   -9.0090   -4.2147 H   0  0  0  0  0  0  0  0  0  0  0  0
    1.8258   -5.0523   -4.2435 H   0  0  0  0  0  0  0  0  0  0  0  0
    2.8546   -6.9046   -2.1742 H   0  0  0  0  0  0  0  0  0  0  0  0
    1.0560   -6.6525   -2.0477 H   0  0  0  0  0  0  0  0  0  0  0  0
    4.5935   -5.0272    2.6409 H   0  0  0  0  0  0  0  0  0  0  0  0
    7.0458   -4.3616    0.6719 H   0  0  0  0  0  0  0  0  0  0  0  0
    1.3623   -6.8581    0.8601 H   0  0  0  0  0  0  0  0  0  0  0  0
    1.2149   -7.9844   -6.5270 H   0  0  0  0  0  0  0  0  0  0  0  0
    2.2138   -6.5229   -6.5357 H   0  0  0  0  0  0  0  0  0  0  0  0
    0.4562   -6.4093   -6.2460 H   0  0  0  0  0  0  0  0  0  0  0  0
  1  2  1  0  0  0  0
  1 15  1  0  0  0  0
  1 16  1  0  0  0  0
  1 17  1  0  0  0  0
  2  3  2  0  0  0  0
  2 14  1  0  0  0  0
  3  4  1  0  0  0  0
  3 18  1  0  0  0  0
  4  5  1  0  0  0  0
  4 19  1  0  0  0  0
  4 20  1  0  0  0  0
  6  8  1  6  0  0  0
  6 13  1  0  0  0  0
  6  7  2  0  0  0  0
  6  5  1  0  0  0  0
  8  9  1  0  0  0  0
  9 10  2  0  0  0  0
  9 11  1  0  0  0  0
  9 12  1  0  0  0  0
 11 21  1  0  0  0  0
 12 22  1  0  0  0  0
 13 23  1  0  0  0  0
 14 24  1  0  0  0  0
 14 25  1  0  0  0  0
 14 26  1  0  0  0  0
M  END
$$$$
