DME
 OpenBabel04121316103D

 56 55  0  0  0  0  0  0  0  0999 V2000
    0.8899    0.0814   -0.1497 C   0  0  0  0  0  0  0  0  0  0  0  0
    2.4145    0.1048   -0.0965 N   0  3  0  0  0  0  0  0  0  0  0  0
    2.9258   -0.2714    1.2982 C   0  0  0  0  0  0  0  0  0  0  0  0
    2.4465    0.7118    2.3538 C   0  0  0  0  0  0  0  0  0  0  0  0
    2.9593    0.3273    3.7258 C   0  0  0  0  0  0  0  0  0  0  0  0
    2.4427    1.3494    4.7223 C   0  0  0  0  0  0  0  0  0  0  0  0
    2.9357    0.9973    6.1065 C   0  0  0  0  0  0  0  0  0  0  0  0
    2.4141    2.0233    7.0908 C   0  0  0  0  0  0  0  0  0  0  0  0
    2.9070    1.6712    8.4751 C   0  0  0  0  0  0  0  0  0  0  0  0
    2.3904    2.6932    9.4716 C   0  0  0  0  0  0  0  0  0  0  0  0
    2.9032    2.3088   10.8436 C   0  0  0  0  0  0  0  0  0  0  0  0
    2.4240    3.2920   11.8991 C   0  0  0  0  0  0  0  0  0  0  0  0
    2.9353    2.9157   13.2939 N   0  3  0  0  0  0  0  0  0  0  0  0
    2.4187    1.5446   13.7192 C   0  0  0  0  0  0  0  0  0  0  0  0
    4.4599    2.9392   13.3471 C   0  0  0  0  0  0  0  0  0  0  0  0
    2.4056    3.9548   14.2825 C   0  0  0  0  0  0  0  0  0  0  0  0
    2.9441   -0.9342   -1.0851 C   0  0  0  0  0  0  0  0  0  0  0  0
    2.9311    1.4760   -0.5219 C   0  0  0  0  0  0  0  0  0  0  0  0
    0.5490   -0.9047    0.1778 H   0  0  0  0  0  0  0  0  0  0  0  0
    0.5762    0.2811   -1.1771 H   0  0  0  0  0  0  0  0  0  0  0  0
    0.4946    0.8626    0.5051 H   0  0  0  0  0  0  0  0  0  0  0  0
    4.0211   -0.2901    1.2530 H   0  0  0  0  0  0  0  0  0  0  0  0
    2.5668   -1.2837    1.5182 H   0  0  0  0  0  0  0  0  0  0  0  0
    1.3541    0.7404    2.3968 H   0  0  0  0  0  0  0  0  0  0  0  0
    2.7951    1.7248    2.1341 H   0  0  0  0  0  0  0  0  0  0  0  0
    4.0547    0.3126    3.7330 H   0  0  0  0  0  0  0  0  0  0  0  0
    2.6094   -0.6748    3.9965 H   0  0  0  0  0  0  0  0  0  0  0  0
    1.3462    1.3701    4.7097 H   0  0  0  0  0  0  0  0  0  0  0  0
    2.7863    2.3539    4.4471 H   0  0  0  0  0  0  0  0  0  0  0  0
    4.0312    0.9815    6.1213 H   0  0  0  0  0  0  0  0  0  0  0  0
    2.5885   -0.0042    6.3844 H   0  0  0  0  0  0  0  0  0  0  0  0
    1.3185    2.0391    7.0760 H   0  0  0  0  0  0  0  0  0  0  0  0
    2.7613    3.0248    6.8130 H   0  0  0  0  0  0  0  0  0  0  0  0
    4.0035    1.6505    8.4877 H   0  0  0  0  0  0  0  0  0  0  0  0
    2.5634    0.6666    8.7502 H   0  0  0  0  0  0  0  0  0  0  0  0
    1.2951    2.7080    9.4644 H   0  0  0  0  0  0  0  0  0  0  0  0
    2.7404    3.6954    9.2009 H   0  0  0  0  0  0  0  0  0  0  0  0
    3.9956    2.2802   10.8005 H   0  0  0  0  0  0  0  0  0  0  0  0
    2.5546    1.2958   11.0632 H   0  0  0  0  0  0  0  0  0  0  0  0
    1.3286    3.3107   11.9443 H   0  0  0  0  0  0  0  0  0  0  0  0
    2.7830    4.3043   11.6792 H   0  0  0  0  0  0  0  0  0  0  0  0
    2.8394    0.7807   13.0598 H   0  0  0  0  0  0  0  0  0  0  0  0
    1.3271    1.5520   13.6528 H   0  0  0  0  0  0  0  0  0  0  0  0
    2.7458    1.3540   14.7442 H   0  0  0  0  0  0  0  0  0  0  0  0
    4.8552    2.1579   12.6923 H   0  0  0  0  0  0  0  0  0  0  0  0
    4.7736    2.7394   14.3745 H   0  0  0  0  0  0  0  0  0  0  0  0
    4.8008    3.9253   13.0195 H   0  0  0  0  0  0  0  0  0  0  0  0
    1.3125    3.9347   14.2511 H   0  0  0  0  0  0  0  0  0  0  0  0
    2.7807    4.9377   13.9834 H   0  0  0  0  0  0  0  0  0  0  0  0
    2.7666    3.6930   15.2813 H   0  0  0  0  0  0  0  0  0  0  0  0
    2.5691   -1.9171   -0.7860 H   0  0  0  0  0  0  0  0  0  0  0  0
    4.0373   -0.9141   -1.0537 H   0  0  0  0  0  0  0  0  0  0  0  0
    2.5832   -0.6724   -2.0839 H   0  0  0  0  0  0  0  0  0  0  0  0
    2.5104    2.2399    0.1376 H   0  0  0  0  0  0  0  0  0  0  0  0
    2.6040    1.6666   -1.5468 H   0  0  0  0  0  0  0  0  0  0  0  0
    4.0227    1.4685   -0.4555 H   0  0  0  0  0  0  0  0  0  0  0  0
  1  2  1  0  0  0  0
  1 19  1  0  0  0  0
  1 20  1  0  0  0  0
  1 21  1  0  0  0  0
  2  3  1  0  0  0  0
  2 17  1  0  0  0  0
  2 18  1  0  0  0  0
  3  4  1  0  0  0  0
  3 22  1  0  0  0  0
  3 23  1  0  0  0  0
  4  5  1  0  0  0  0
  4 24  1  0  0  0  0
  4 25  1  0  0  0  0
  5  6  1  0  0  0  0
  5 26  1  0  0  0  0
  5 27  1  0  0  0  0
  6  7  1  0  0  0  0
  6 28  1  0  0  0  0
  6 29  1  0  0  0  0
  7  8  1  0  0  0  0
  7 30  1  0  0  0  0
  7 31  1  0  0  0  0
  8  9  1  0  0  0  0
  8 32  1  0  0  0  0
  8 33  1  0  0  0  0
  9 10  1  0  0  0  0
  9 34  1  0  0  0  0
  9 35  1  0  0  0  0
 10 11  1  0  0  0  0
 10 36  1  0  0  0  0
 10 37  1  0  0  0  0
 11 12  1  0  0  0  0
 11 38  1  0  0  0  0
 11 39  1  0  0  0  0
 12 13  1  0  0  0  0
 12 40  1  0  0  0  0
 12 41  1  0  0  0  0
 13 14  1  0  0  0  0
 13 15  1  0  0  0  0
 13 16  1  0  0  0  0
 14 42  1  0  0  0  0
 14 43  1  0  0  0  0
 14 44  1  0  0  0  0
 15 45  1  0  0  0  0
 15 46  1  0  0  0  0
 15 47  1  0  0  0  0
 16 48  1  0  0  0  0
 16 49  1  0  0  0  0
 16 50  1  0  0  0  0
 17 51  1  0  0  0  0
 17 52  1  0  0  0  0
 17 53  1  0  0  0  0
 18 54  1  0  0  0  0
 18 55  1  0  0  0  0
 18 56  1  0  0  0  0
M  CHG  2   2   1  13   1
M  END
$$$$
