DMG
 OpenBabel04121316103D

 16 15  0  0  0  0  0  0  0  0999 V2000
    1.0713   -0.0390   -0.0357 C   0  0  0  0  0  0  0  0  0  0  0  0
    2.5373   -0.0057    0.0132 N   0  0  0  0  0  0  0  0  0  0  0  0
    3.0277    0.1699    1.4007 C   0  0  0  0  0  0  0  0  0  0  0  0
    2.5815    1.5111    2.0203 C   0  0  0  0  0  0  0  0  0  0  0  0
    1.9530    2.3997    1.4581 O   0  0  0  0  0  0  0  0  0  0  0  0
    2.9478    1.6542    3.3188 O   0  0  0  0  0  0  0  0  0  0  0  0
    3.0649   -1.2318   -0.5876 C   0  0  0  0  0  0  0  0  0  0  0  0
    0.6147    0.8758    0.3487 H   0  0  0  0  0  0  0  0  0  0  0  0
    0.6690   -0.8795    0.5398 H   0  0  0  0  0  0  0  0  0  0  0  0
    0.7270   -0.1207   -1.0718 H   0  0  0  0  0  0  0  0  0  0  0  0
    4.1255    0.1731    1.3996 H   0  0  0  0  0  0  0  0  0  0  0  0
    2.6796   -0.6546    2.0352 H   0  0  0  0  0  0  0  0  0  0  0  0
    3.4801    0.9262    3.6848 H   0  0  0  0  0  0  0  0  0  0  0  0
    2.7324   -1.3181   -1.6294 H   0  0  0  0  0  0  0  0  0  0  0  0
    2.7331   -2.1275   -0.0500 H   0  0  0  0  0  0  0  0  0  0  0  0
    4.1598   -1.2250   -0.6095 H   0  0  0  0  0  0  0  0  0  0  0  0
  1  2  1  0  0  0  0
  1  8  1  0  0  0  0
  1  9  1  0  0  0  0
  1 10  1  0  0  0  0
  2  3  1  0  0  0  0
  2  7  1  0  0  0  0
  3  4  1  0  0  0  0
  3 11  1  0  0  0  0
  3 12  1  0  0  0  0
  4  5  2  0  0  0  0
  4  6  1  0  0  0  0
  6 13  1  0  0  0  0
  7 14  1  0  0  0  0
  7 15  1  0  0  0  0
  7 16  1  0  0  0  0
M  END
$$$$
