DMI
 OpenBabel04121316103D

 16 16  0  0  0  0  0  0  0  0999 V2000
    0.9510   -0.0919    0.0044 C   0  0  0  0  0  0  0  0  0  0  0  0
    2.4118   -0.0947    0.0037 N   0  0  0  0  0  0  0  0  0  0  0  0
    3.2148   -1.2285    0.0024 C   0  0  0  0  0  0  0  0  0  0  0  0
    4.5086   -0.7968   -0.0058 C   0  0  0  0  0  0  0  0  0  0  0  0
    4.4545    0.5753   -0.0057 N   0  3  0  0  0  0  0  0  0  0  0  0
    5.2634    1.1923   -0.0106 H   0  0  0  0  0  0  0  0  0  0  0  0
    3.1861    1.0100    0.0034 C   0  0  0  0  0  0  0  0  0  0  0  0
    2.7456    2.4313    0.0114 C   0  0  0  0  0  0  0  0  0  0  0  0
    0.5714   -1.1171    0.0041 H   0  0  0  0  0  0  0  0  0  0  0  0
    0.5962    0.4248   -0.8912 H   0  0  0  0  0  0  0  0  0  0  0  0
    0.5964    0.4248    0.9000 H   0  0  0  0  0  0  0  0  0  0  0  0
    2.7559   -2.2027    0.0062 H   0  0  0  0  0  0  0  0  0  0  0  0
    5.4669   -1.2853   -0.0114 H   0  0  0  0  0  0  0  0  0  0  0  0
    3.6375    3.0594    0.0091 H   0  0  0  0  0  0  0  0  0  0  0  0
    2.1591    2.5846    0.9180 H   0  0  0  0  0  0  0  0  0  0  0  0
    2.1486    2.5922   -0.8870 H   0  0  0  0  0  0  0  0  0  0  0  0
  1  2  1  0  0  0  0
  1  9  1  0  0  0  0
  1 10  1  0  0  0  0
  1 11  1  0  0  0  0
  2  3  1  0  0  0  0
  2  7  1  0  0  0  0
  3  4  2  0  0  0  0
  3 12  1  0  0  0  0
  4  5  1  0  0  0  0
  4 13  1  0  0  0  0
  5  6  1  0  0  0  0
  5  7  2  0  0  0  0
  7  8  1  0  0  0  0
  8 14  1  0  0  0  0
  8 15  1  0  0  0  0
  8 16  1  0  0  0  0
M  CHG  1   5   1
M  END
$$$$
