DMM
 OpenBabel04121316103D

 83 88  0  0  1  0  0  0  0  0999 V2000
    3.2807   -7.7701   -6.2680 C   0  0  0  0  0  0  0  0  0  0  0  0
    2.9526   -8.5030   -5.1012 O   0  0  0  0  0  0  0  0  0  0  0  0
    3.9843   -8.2783   -4.1766 C   0  0  1  0  0  0  0  0  0  0  0  0
    4.8574   -8.8100   -4.5114 H   0  0  0  0  0  0  0  0  0  0  0  0
    4.2873   -6.8809   -4.1158 O   0  0  0  0  0  0  0  0  0  0  0  0
    3.3074   -6.1145   -3.4663 C   0  0  0  0  0  0  0  0  0  0  0  0
    3.2622   -6.7309   -2.1260 C   0  0  0  0  0  0  0  0  0  0  0  0
    2.7097   -8.1185   -2.1597 N   0  0  3  0  0  0  0  0  0  0  0  0
    3.7174   -8.9158   -2.8419 C   0  0  0  0  0  0  0  0  0  0  0  0
    2.5112   -8.7452   -0.8685 C   0  0  1  0  0  0  0  0  0  0  0  0
    2.7231   -9.8290   -0.9531 H   0  0  0  0  0  0  0  0  0  0  0  0
    3.4060   -8.1880    0.1456 C   0  0  0  0  0  0  0  0  0  0  0  0
    3.3103   -6.7563    0.6121 C   0  0  1  0  0  0  0  0  0  0  0  0
    3.4633   -5.9237   -0.0435 H   0  0  0  0  0  0  0  0  0  0  0  0
    1.9356   -6.6063    1.0414 O   0  0  0  0  0  0  0  0  0  0  0  0
    0.9005   -7.1370    0.1005 C   0  0  2  0  0  0  0  0  0  0  0  0
   -0.0253   -7.1076    0.6750 H   0  0  0  0  0  0  0  0  0  0  0  0
    1.1251   -8.6125   -0.2998 C   0  0  1  0  0  0  0  0  0  0  0  0
    1.0589   -9.2610    0.5863 H   0  0  0  0  0  0  0  0  0  0  0  0
    0.2283   -9.1043   -1.2899 O   0  0  0  0  0  0  0  0  0  0  0  0
    0.5941   -6.2869   -1.1533 C   0  0  0  0  0  0  0  0  0  0  0  0
    4.4323   -6.4320    1.5181 O   0  0  0  0  0  0  0  0  0  0  0  0
    5.8698   -6.5879    1.0639 C   0  0  1  0  0  0  0  0  0  0  0  0
    6.3493   -5.6568    1.3850 H   0  0  0  0  0  0  0  0  0  0  0  0
    6.5591   -7.6905    1.9456 C   0  0  0  0  0  0  0  0  0  0  0  0
    5.8770   -8.9885    1.6267 C   0  0  1  0  0  0  0  0  0  0  0  0
    4.5658   -8.7254    2.1295 O   0  0  0  0  0  0  0  0  0  0  0  0
    6.2233   -9.3496    0.0917 C   0  0  0  0  0  0  0  0  0  0  0  0
    6.5309   -8.1248   -0.8898 C   0  0  0  0  0  0  0  0  0  0  0  0
    6.2811   -6.8065   -0.4144 C   0  0  0  0  0  0  0  0  0  0  0  0
    6.3091   -5.7411   -1.3624 C   0  0  0  0  0  0  0  0  0  0  0  0
    5.8621   -4.5059   -0.9541 O   0  0  0  0  0  0  0  0  0  0  0  0
    6.5504   -5.9354   -2.7797 C   0  0  0  0  0  0  0  0  0  0  0  0
    6.8125   -7.2278   -3.2720 C   0  0  0  0  0  0  0  0  0  0  0  0
    6.7929   -8.3172   -2.3131 C   0  0  0  0  0  0  0  0  0  0  0  0
    6.7392   -9.6501   -2.7041 O   0  0  0  0  0  0  0  0  0  0  0  0
    6.7579   -7.4456   -4.7965 C   0  0  0  0  0  0  0  0  0  0  0  0
    6.8543   -8.5722   -5.2639 O   0  0  0  0  0  0  0  0  0  0  0  0
    6.3670   -6.3272   -5.7324 C   0  0  0  0  0  0  0  0  0  0  0  0
    6.1260   -5.0532   -5.2312 C   0  0  0  0  0  0  0  0  0  0  0  0
    6.1933   -4.8106   -3.7456 C   0  0  0  0  0  0  0  0  0  0  0  0
    5.8420   -3.7421   -3.3166 O   0  0  0  0  0  0  0  0  0  0  0  0
    5.7404   -4.0247   -6.1328 C   0  0  0  0  0  0  0  0  0  0  0  0
    5.5414   -2.7700   -5.6211 O   0  0  0  0  0  0  0  0  0  0  0  0
    5.5139   -1.6935   -6.5419 C   0  0  0  0  0  0  0  0  0  0  0  0
    5.5730   -4.2947   -7.5051 C   0  0  0  0  0  0  0  0  0  0  0  0
    5.7065   -5.5845   -7.9879 C   0  0  0  0  0  0  0  0  0  0  0  0
    6.1060   -6.5921   -7.1070 C   0  0  0  0  0  0  0  0  0  0  0  0
    5.9322  -10.2486    2.4881 C   0  0  0  0  0  0  0  0  0  0  0  0
    6.9914  -10.8753    2.6245 O   0  0  0  0  0  0  0  0  0  0  0  0
    4.5698  -10.8045    3.0965 C   0  0  0  0  0  0  0  0  0  0  0  0
    4.7197  -11.9630    3.8842 O   0  0  0  0  0  0  0  0  0  0  0  0
    2.4994   -7.9052   -6.9979 H   0  0  0  0  0  0  0  0  0  0  0  0
    4.2267   -8.1454   -6.6535 H   0  0  0  0  0  0  0  0  0  0  0  0
    3.3503   -6.6931   -6.0619 H   0  0  0  0  0  0  0  0  0  0  0  0
    2.3415   -6.1270   -3.9696 H   0  0  0  0  0  0  0  0  0  0  0  0
    3.6108   -5.0641   -3.3583 H   0  0  0  0  0  0  0  0  0  0  0  0
    2.7487   -5.9645   -1.5711 H   0  0  0  0  0  0  0  0  0  0  0  0
    4.2599   -6.7642   -1.7267 H   0  0  0  0  0  0  0  0  0  0  0  0
    3.5057   -9.9832   -2.9507 H   0  0  0  0  0  0  0  0  0  0  0  0
    4.5880   -8.8913   -2.2063 H   0  0  0  0  0  0  0  0  0  0  0  0
    4.3819   -8.3288   -0.2121 H   0  0  0  0  0  0  0  0  0  0  0  0
    3.1701   -8.9057    0.9271 H   0  0  0  0  0  0  0  0  0  0  0  0
    0.6256   -8.8208   -2.1431 H   0  0  0  0  0  0  0  0  0  0  0  0
    1.1101   -6.6160   -2.0450 H   0  0  0  0  0  0  0  0  0  0  0  0
    0.8384   -5.2324   -1.0273 H   0  0  0  0  0  0  0  0  0  0  0  0
   -0.3995   -6.4636   -1.5614 H   0  0  0  0  0  0  0  0  0  0  0  0
    6.4040   -7.4407    2.9994 H   0  0  0  0  0  0  0  0  0  0  0  0
    7.6281   -7.7728    1.7425 H   0  0  0  0  0  0  0  0  0  0  0  0
    4.3848   -7.7856    2.3540 H   0  0  0  0  0  0  0  0  0  0  0  0
    5.4254   -9.9815   -0.3383 H   0  0  0  0  0  0  0  0  0  0  0  0
    7.1247   -9.9688    0.0739 H   0  0  0  0  0  0  0  0  0  0  0  0
    5.7421   -4.3974   -0.0008 H   0  0  0  0  0  0  0  0  0  0  0  0
    6.4280   -9.7521   -3.6289 H   0  0  0  0  0  0  0  0  0  0  0  0
    5.5175   -0.7611   -5.9737 H   0  0  0  0  0  0  0  0  0  0  0  0
    4.5962   -1.7262   -7.1374 H   0  0  0  0  0  0  0  0  0  0  0  0
    6.4053   -1.7059   -7.1781 H   0  0  0  0  0  0  0  0  0  0  0  0
    5.3413   -3.5129   -8.2242 H   0  0  0  0  0  0  0  0  0  0  0  0
    5.5113   -5.7929   -9.0408 H   0  0  0  0  0  0  0  0  0  0  0  0
    6.1432   -7.6064   -7.5047 H   0  0  0  0  0  0  0  0  0  0  0  0
    3.8659  -11.0347    2.2806 H   0  0  0  0  0  0  0  0  0  0  0  0
    4.0914  -10.0555    3.7460 H   0  0  0  0  0  0  0  0  0  0  0  0
    5.2993  -12.5415    3.3620 H   0  0  0  0  0  0  0  0  0  0  0  0
  1  2  1  0  0  0  0
  1 53  1  0  0  0  0
  1 54  1  0  0  0  0
  1 55  1  0  0  0  0
  2  3  1  0  0  0  0
  3  4  1  6  0  0  0
  3  5  1  0  0  0  0
  3  9  1  0  0  0  0
  5  6  1  0  0  0  0
  6  7  1  0  0  0  0
  6 56  1  0  0  0  0
  6 57  1  0  0  0  0
  7  8  1  0  0  0  0
  7 58  1  0  0  0  0
  7 59  1  0  0  0  0
  8  9  1  0  0  0  0
  8 10  1  0  0  0  0
  9 60  1  0  0  0  0
  9 61  1  0  0  0  0
 10 11  1  6  0  0  0
 10 12  1  0  0  0  0
 10 18  1  0  0  0  0
 12 13  1  0  0  0  0
 12 62  1  0  0  0  0
 12 63  1  0  0  0  0
 13 14  1  6  0  0  0
 13 15  1  0  0  0  0
 13 22  1  0  0  0  0
 15 16  1  0  0  0  0
 16 18  1  0  0  0  0
 16 21  1  0  0  0  0
 16 17  1  1  0  0  0
 18 20  1  0  0  0  0
 18 19  1  1  0  0  0
 20 64  1  0  0  0  0
 21 65  1  0  0  0  0
 21 66  1  0  0  0  0
 21 67  1  0  0  0  0
 23 25  1  0  0  0  0
 23 30  1  0  0  0  0
 23 24  1  1  0  0  0
 23 22  1  0  0  0  0
 25 26  1  0  0  0  0
 25 68  1  0  0  0  0
 25 69  1  0  0  0  0
 26 28  1  0  0  0  0
 26 49  1  1  0  0  0
 26 27  1  0  0  0  0
 27 70  1  0  0  0  0
 28 29  1  0  0  0  0
 28 71  1  0  0  0  0
 28 72  1  0  0  0  0
 29 30  2  0  0  0  0
 29 35  1  0  0  0  0
 30 31  1  0  0  0  0
 31 32  1  0  0  0  0
 31 33  2  0  0  0  0
 32 73  1  0  0  0  0
 33 34  1  0  0  0  0
 33 41  1  0  0  0  0
 34 35  2  0  0  0  0
 34 37  1  0  0  0  0
 35 36  1  0  0  0  0
 36 74  1  0  0  0  0
 37 38  2  0  0  0  0
 37 39  1  0  0  0  0
 39 40  2  0  0  0  0
 39 48  1  0  0  0  0
 40 41  1  0  0  0  0
 40 43  1  0  0  0  0
 41 42  2  0  0  0  0
 43 44  1  0  0  0  0
 43 46  2  0  0  0  0
 44 45  1  0  0  0  0
 45 75  1  0  0  0  0
 45 76  1  0  0  0  0
 45 77  1  0  0  0  0
 46 47  1  0  0  0  0
 46 78  1  0  0  0  0
 47 48  2  0  0  0  0
 47 79  1  0  0  0  0
 48 80  1  0  0  0  0
 49 50  2  0  0  0  0
 49 51  1  0  0  0  0
 51 52  1  0  0  0  0
 51 81  1  0  0  0  0
 51 82  1  0  0  0  0
 52 83  1  0  0  0  0
M  END
$$$$
