DMO
 OpenBabel04121316103D

 24 23  0  0  1  0  0  0  0  0999 V2000
    5.3607   -2.6546    7.0451 N   0  0  0  0  0  0  0  0  0  0  0  0
    4.6538   -1.8729    6.0437 C   0  0  0  0  0  0  0  0  0  0  0  0
    5.1402   -2.3213    4.6798 C   0  0  0  0  0  0  0  0  0  0  0  0
    4.4569   -1.5443    3.5563 C   0  0  0  0  0  0  0  0  0  0  0  0
    4.9206   -1.9513    2.1411 C   0  0  2  0  0  0  0  0  0  0  0  0
    4.3896   -1.0151    1.0376 C   0  0  0  0  0  0  0  0  0  0  0  0
    4.7522   -1.1265   -0.1347 O   0  0  0  0  0  0  0  0  0  0  0  0
    3.5041   -0.0589    1.3861 O   0  0  0  0  0  0  0  0  0  0  0  0
    4.3836   -3.3465    1.7467 C   0  0  0  0  0  0  0  0  0  0  0  0
    4.8464   -4.2939    2.6054 F   0  0  0  0  0  0  0  0  0  0  0  0
    3.0300   -3.3736    1.8458 F   0  0  0  0  0  0  0  0  0  0  0  0
    6.4218   -1.8885    2.1083 N   0  0  0  0  0  0  0  0  0  0  0  0
    5.0940   -2.3458    7.9761 H   0  0  0  0  0  0  0  0  0  0  0  0
    6.3649   -2.4968    6.9586 H   0  0  0  0  0  0  0  0  0  0  0  0
    4.8548   -0.8058    6.1851 H   0  0  0  0  0  0  0  0  0  0  0  0
    3.5754   -2.0368    6.1318 H   0  0  0  0  0  0  0  0  0  0  0  0
    4.9531   -3.3929    4.5710 H   0  0  0  0  0  0  0  0  0  0  0  0
    6.2241   -2.1676    4.6334 H   0  0  0  0  0  0  0  0  0  0  0  0
    4.6495   -0.4748    3.7199 H   0  0  0  0  0  0  0  0  0  0  0  0
    3.3693   -1.6786    3.6397 H   0  0  0  0  0  0  0  0  0  0  0  0
    3.2461    0.0136    2.3227 H   0  0  0  0  0  0  0  0  0  0  0  0
    4.6768   -3.6532    0.7393 H   0  0  0  0  0  0  0  0  0  0  0  0
    6.7344   -2.1521    1.1687 H   0  0  0  0  0  0  0  0  0  0  0  0
    6.7926   -2.6238    2.7155 H   0  0  0  0  0  0  0  0  0  0  0  0
  1  2  1  0  0  0  0
  1 13  1  0  0  0  0
  1 14  1  0  0  0  0
  2  3  1  0  0  0  0
  2 15  1  0  0  0  0
  2 16  1  0  0  0  0
  3  4  1  0  0  0  0
  3 17  1  0  0  0  0
  3 18  1  0  0  0  0
  4 19  1  0  0  0  0
  4 20  1  0  0  0  0
  5  9  1  6  0  0  0
  5 12  1  0  0  0  0
  5  6  1  0  0  0  0
  5  4  1  0  0  0  0
  6  7  2  0  0  0  0
  6  8  1  0  0  0  0
  8 21  1  0  0  0  0
  9 10  1  0  0  0  0
  9 11  1  0  0  0  0
  9 22  1  0  0  0  0
 12 23  1  0  0  0  0
 12 24  1  0  0  0  0
M  END
$$$$
