DND
 OpenBabel04121316103D

 71 75  0  0  1  0  0  0  0  0999 V2000
   -1.5526    1.0422    7.0628 O   0  0  0  0  0  0  0  0  0  0  0  0
   -0.2243    1.1767    7.5641 C   0  0  2  0  0  0  0  0  0  0  0  0
   -0.3254    1.6858    8.5187 H   0  0  0  0  0  0  0  0  0  0  0  0
    0.7064    1.9508    6.6549 C   0  0  1  0  0  0  0  0  0  0  0  0
    0.2474    2.8199    6.1781 H   0  0  0  0  0  0  0  0  0  0  0  0
    1.8110    2.3350    7.4727 O   0  0  0  0  0  0  0  0  0  0  0  0
    1.1345    0.8844    5.6580 C   0  0  2  0  0  0  0  0  0  0  0  0
    0.3112    0.6779    4.9548 H   0  0  0  0  0  0  0  0  0  0  0  0
    1.2970   -0.3011    6.4664 O   0  0  0  0  0  0  0  0  0  0  0  0
    0.5119   -0.1623    7.6890 C   0  0  1  0  0  0  0  0  0  0  0  0
   -0.2069   -0.9875    7.7272 H   0  0  0  0  0  0  0  0  0  0  0  0
    1.3985   -0.2467    8.9425 N   0  3  0  0  0  0  0  0  0  0  0  0
    0.9417    0.1773   10.1340 C   0  0  0  0  0  0  0  0  0  0  0  0
    1.7482    0.1209   11.2607 C   0  0  0  0  0  0  0  0  0  0  0  0
    3.0215   -0.4048   11.1938 C   0  0  0  0  0  0  0  0  0  0  0  0
    3.5052   -0.8993   10.0122 C   0  0  0  0  0  0  0  0  0  0  0  0
    2.6546   -0.7742    8.8954 C   0  0  0  0  0  0  0  0  0  0  0  0
    4.9108   -1.4493   10.2380 C   0  0  0  0  0  0  0  0  0  0  0  0
    5.4749   -1.4855   11.2908 O   0  0  0  0  0  0  0  0  0  0  0  0
    5.5407   -1.8878    9.1623 O   0  0  0  0  0  0  0  0  0  0  0  0
    2.3926    1.1454    4.8072 C   0  0  0  0  0  0  0  0  0  0  0  0
    3.5595    1.5462    5.5219 O   0  0  0  0  0  0  0  0  0  0  0  0
    4.6859    2.3593    4.6841 P   0  0  2  0  0  0  0  0  0  0  0  0
    4.2727    2.7695    3.3136 O   0  0  0  0  0  0  0  0  0  0  0  0
    6.0176    1.4289    4.6916 O   0  0  0  0  0  0  0  0  0  0  0  0
    5.8976    0.3359    3.3560 P   0  0  1  0  0  0  0  0  0  0  0  0
    7.3524    0.5903    2.9866 O   0  0  0  0  0  0  0  0  0  0  0  0
    5.7679   -0.9434    4.3566 O   0  0  0  0  0  0  0  0  0  0  0  0
    5.7975   -0.7308    5.7413 C   0  0  0  0  0  0  0  0  0  0  0  0
    5.5926   -2.0095    6.5081 C   0  0  1  0  0  0  0  0  0  0  0  0
    6.3818   -1.8816    7.2617 H   0  0  0  0  0  0  0  0  0  0  0  0
    4.2660   -2.0776    7.1204 O   0  0  0  0  0  0  0  0  0  0  0  0
    4.0024   -3.4583    7.5678 C   0  0  2  0  0  0  0  0  0  0  0  0
    4.4480   -3.6137    8.5531 H   0  0  0  0  0  0  0  0  0  0  0  0
    4.7063   -4.2805    6.5325 C   0  0  1  0  0  0  0  0  0  0  0  0
    3.9682   -4.6068    5.8006 H   0  0  0  0  0  0  0  0  0  0  0  0
    5.7241   -3.3336    5.8416 C   0  0  2  0  0  0  0  0  0  0  0  0
    5.4606   -3.2343    4.7907 H   0  0  0  0  0  0  0  0  0  0  0  0
    7.0721   -3.7248    5.9756 O   0  0  0  0  0  0  0  0  0  0  0  0
    5.3252   -5.3987    7.1438 O   0  0  0  0  0  0  0  0  0  0  0  0
    2.5864   -3.7319    7.8583 N   0  0  0  0  0  0  0  0  0  0  0  0
    1.4910   -3.1064    7.3396 C   0  0  0  0  0  0  0  0  0  0  0  0
    0.4056   -3.2688    8.0650 N   0  0  0  0  0  0  0  0  0  0  0  0
    0.7388   -4.2785    8.9347 C   0  0  0  0  0  0  0  0  0  0  0  0
    2.0991   -4.5520    8.8574 C   0  0  0  0  0  0  0  0  0  0  0  0
    2.7707   -5.4611    9.5770 N   0  0  0  0  0  0  0  0  0  0  0  0
    1.9199   -6.1795   10.3557 C   0  0  0  0  0  0  0  0  0  0  0  0
    0.5784   -6.0392   10.4961 N   0  0  0  0  0  0  0  0  0  0  0  0
   -0.0418   -5.0583    9.8062 C   0  0  0  0  0  0  0  0  0  0  0  0
   -1.4031   -4.8626    9.9506 N   0  0  0  0  0  0  0  0  0  0  0  0
    5.7775   -0.7571    2.0204 O   0  0  0  0  0  0  0  0  0  0  0  0
    5.0915    3.5047    5.7193 O   0  0  0  0  0  0  0  0  0  0  0  0
   -1.5856    0.5913    6.1999 H   0  0  0  0  0  0  0  0  0  0  0  0
    1.5823    3.1622    7.9354 H   0  0  0  0  0  0  0  0  0  0  0  0
   -0.0505    0.6018   10.1876 H   0  0  0  0  0  0  0  0  0  0  0  0
    1.4044    0.4979   12.2127 H   0  0  0  0  0  0  0  0  0  0  0  0
    3.6650   -0.4186   12.0708 H   0  0  0  0  0  0  0  0  0  0  0  0
    2.8557   -1.0769    7.9025 H   0  0  0  0  0  0  0  0  0  0  0  0
    5.0072   -1.6342    8.4022 H   0  0  0  0  0  0  0  0  0  0  0  0
    2.6776    0.2227    4.2935 H   0  0  0  0  0  0  0  0  0  0  0  0
    2.1310    1.9012    4.0606 H   0  0  0  0  0  0  0  0  0  0  0  0
    5.0050   -0.0454    6.0412 H   0  0  0  0  0  0  0  0  0  0  0  0
    6.7544   -0.2551    6.0118 H   0  0  0  0  0  0  0  0  0  0  0  0
    7.0954   -4.6728    5.7678 H   0  0  0  0  0  0  0  0  0  0  0  0
    4.7204   -5.7604    7.8245 H   0  0  0  0  0  0  0  0  0  0  0  0
    1.5692   -2.4532    6.4911 H   0  0  0  0  0  0  0  0  0  0  0  0
    2.3700   -6.9860   10.9313 H   0  0  0  0  0  0  0  0  0  0  0  0
   -1.9354   -5.6106   10.3772 H   0  0  0  0  0  0  0  0  0  0  0  0
   -1.8620   -4.2402    9.2992 H   0  0  0  0  0  0  0  0  0  0  0  0
    6.1024   -0.2889    1.2267 H   0  0  0  0  0  0  0  0  0  0  0  0
    6.0536    3.6661    5.7530 H   0  0  0  0  0  0  0  0  0  0  0  0
  1 53  1  0  0  0  0
  2  4  1  0  0  0  0
  2 10  1  0  0  0  0
  2  3  1  1  0  0  0
  2  1  1  0  0  0  0
  4  5  1  6  0  0  0
  4  6  1  0  0  0  0
  4  7  1  0  0  0  0
  6 54  1  0  0  0  0
  7  9  1  0  0  0  0
  7 21  1  0  0  0  0
  7  8  1  6  0  0  0
  9 10  1  0  0  0  0
 10 12  1  0  0  0  0
 10 11  1  1  0  0  0
 12 13  2  0  0  0  0
 12 17  1  0  0  0  0
 13 14  1  0  0  0  0
 13 55  1  0  0  0  0
 14 15  2  0  0  0  0
 14 56  1  0  0  0  0
 15 16  1  0  0  0  0
 15 57  1  0  0  0  0
 16 17  2  0  0  0  0
 16 18  1  0  0  0  0
 17 58  1  0  0  0  0
 18 19  2  0  0  0  0
 18 20  1  0  0  0  0
 20 59  1  0  0  0  0
 21 22  1  0  0  0  0
 21 60  1  0  0  0  0
 21 61  1  0  0  0  0
 23 25  1  6  0  0  0
 23 52  1  0  0  0  0
 23 24  2  0  0  0  0
 23 22  1  0  0  0  0
 26 25  1  1  0  0  0
 26 27  2  0  0  0  0
 26 28  1  0  0  0  0
 26 51  1  0  0  0  0
 28 29  1  0  0  0  0
 29 30  1  0  0  0  0
 29 62  1  0  0  0  0
 29 63  1  0  0  0  0
 30 31  1  1  0  0  0
 30 32  1  0  0  0  0
 30 37  1  0  0  0  0
 32 33  1  0  0  0  0
 33 35  1  0  0  0  0
 33 41  1  0  0  0  0
 33 34  1  1  0  0  0
 35 36  1  6  0  0  0
 35 37  1  0  0  0  0
 35 40  1  0  0  0  0
 37 38  1  6  0  0  0
 37 39  1  0  0  0  0
 39 64  1  0  0  0  0
 40 65  1  0  0  0  0
 41 42  1  0  0  0  0
 41 45  1  0  0  0  0
 42 43  2  0  0  0  0
 42 66  1  0  0  0  0
 43 44  1  0  0  0  0
 44 45  2  0  0  0  0
 44 49  1  0  0  0  0
 45 46  1  0  0  0  0
 46 47  2  0  0  0  0
 47 48  1  0  0  0  0
 47 67  1  0  0  0  0
 48 49  2  0  0  0  0
 49 50  1  0  0  0  0
 50 68  1  0  0  0  0
 50 69  1  0  0  0  0
 51 70  1  0  0  0  0
 52 71  1  0  0  0  0
M  CHG  1  12   1
M  END
$$$$
