DNF
 OpenBabel04121316103D

 17 17  0  0  0  0  0  0  0  0999 V2000
    1.0300    0.0442   -0.0528 O   0  5  0  0  0  0  0  0  0  0  0  0
    2.2686   -0.0098   -0.0646 N   0  3  0  0  0  0  0  0  0  0  0  0
    2.9659   -0.8332    0.5343 O   0  0  0  0  0  0  0  0  0  0  0  0
    2.9521    0.9910   -0.8664 C   0  0  0  0  0  0  0  0  0  0  0  0
    2.6802    2.3390   -0.6221 C   0  0  0  0  0  0  0  0  0  0  0  0
    3.2148    3.3043   -1.4750 C   0  0  0  0  0  0  0  0  0  0  0  0
    3.9155    2.9139   -2.6230 C   0  0  0  0  0  0  0  0  0  0  0  0
    4.1924    1.5535   -2.8518 C   0  0  0  0  0  0  0  0  0  0  0  0
    3.7670    0.5836   -1.9251 C   0  0  0  0  0  0  0  0  0  0  0  0
    4.8467    1.0936   -4.0919 N   0  3  0  0  0  0  0  0  0  0  0  0
    5.1278    1.9075   -4.9742 O   0  0  0  0  0  0  0  0  0  0  0  0
    5.0495   -0.1297   -4.1937 O   0  5  0  0  0  0  0  0  0  0  0  0
    4.3010    3.8830   -3.5011 O   0  0  0  0  0  0  0  0  0  0  0  0
    2.0486    2.6367    0.2131 H   0  0  0  0  0  0  0  0  0  0  0  0
    3.0498    4.3552   -1.2495 H   0  0  0  0  0  0  0  0  0  0  0  0
    4.0188   -0.4691   -2.0478 H   0  0  0  0  0  0  0  0  0  0  0  0
    3.9243    4.7481   -3.2703 H   0  0  0  0  0  0  0  0  0  0  0  0
  1  2  1  0  0  0  0
  2  3  2  0  0  0  0
  2  4  1  0  0  0  0
  4  5  2  0  0  0  0
  4  9  1  0  0  0  0
  5  6  1  0  0  0  0
  5 14  1  0  0  0  0
  6  7  2  0  0  0  0
  6 15  1  0  0  0  0
  7  8  1  0  0  0  0
  7 13  1  0  0  0  0
  8  9  2  0  0  0  0
  8 10  1  0  0  0  0
  9 16  1  0  0  0  0
 10 11  2  0  0  0  0
 10 12  1  0  0  0  0
 13 17  1  0  0  0  0
M  CHG  4   1  -1   2   1  10   1  12  -1
M  END
$$$$
