DNH
 OpenBabel04121316103D

 22 22  0  0  1  0  0  0  0  0999 V2000
    2.9850    0.3376    1.4854 N   0  0  0  0  0  0  0  0  0  0  0  0
    2.5456    0.0230    0.1209 C   0  0  2  0  0  0  0  0  0  0  0  0
    1.4478    0.0146    0.1272 H   0  0  0  0  0  0  0  0  0  0  0  0
    3.0386   -1.3777   -0.2695 C   0  0  0  0  0  0  0  0  0  0  0  0
    2.5940   -1.7413   -1.6836 C   0  0  0  0  0  0  0  0  0  0  0  0
    3.0915   -0.7138   -2.6942 C   0  0  0  0  0  0  0  0  0  0  0  0
    2.6014    0.6885   -2.3382 C   0  0  0  0  0  0  0  0  0  0  0  0
    3.0289    1.0851   -0.9165 C   0  0  1  0  0  0  0  0  0  0  0  0
    4.1252    1.1306   -0.8859 H   0  0  0  0  0  0  0  0  0  0  0  0
    2.5299    2.4291   -0.6024 N   0  0  0  0  0  0  0  0  0  0  0  0
    4.0003    0.4000    1.5116 H   0  0  0  0  0  0  0  0  0  0  0  0
    2.7120   -0.4050    2.1253 H   0  0  0  0  0  0  0  0  0  0  0  0
    2.6534   -2.1267    0.4330 H   0  0  0  0  0  0  0  0  0  0  0  0
    4.1345   -1.4215   -0.2139 H   0  0  0  0  0  0  0  0  0  0  0  0
    1.4985   -1.7915   -1.7212 H   0  0  0  0  0  0  0  0  0  0  0  0
    2.9702   -2.7357   -1.9470 H   0  0  0  0  0  0  0  0  0  0  0  0
    2.7466   -0.9842   -3.6982 H   0  0  0  0  0  0  0  0  0  0  0  0
    4.1884   -0.7240   -2.7180 H   0  0  0  0  0  0  0  0  0  0  0  0
    1.5072    0.7180   -2.4254 H   0  0  0  0  0  0  0  0  0  0  0  0
    2.9982    1.4043   -3.0685 H   0  0  0  0  0  0  0  0  0  0  0  0
    1.5132    2.4188   -0.5698 H   0  0  0  0  0  0  0  0  0  0  0  0
    2.8036    3.0899   -1.3263 H   0  0  0  0  0  0  0  0  0  0  0  0
  1 11  1  0  0  0  0
  1 12  1  0  0  0  0
  2  4  1  0  0  0  0
  2  8  1  0  0  0  0
  2  3  1  6  0  0  0
  2  1  1  0  0  0  0
  4  5  1  0  0  0  0
  4 13  1  0  0  0  0
  4 14  1  0  0  0  0
  5  6  1  0  0  0  0
  5 15  1  0  0  0  0
  5 16  1  0  0  0  0
  6  7  1  0  0  0  0
  6 17  1  0  0  0  0
  6 18  1  0  0  0  0
  7  8  1  0  0  0  0
  7 19  1  0  0  0  0
  7 20  1  0  0  0  0
  8 10  1  0  0  0  0
  8  9  1  1  0  0  0
 10 21  1  0  0  0  0
 10 22  1  0  0  0  0
M  END
$$$$
