DO3
 OpenBabel04121316103D

 60 60  0  0  1  0  0  0  0  0999 V2000
    3.1240   -0.7801    1.2424 C   0  0  0  0  0  0  0  0  0  0  0  0
    2.6218   -0.0487    0.0048 C   0  0  2  0  0  0  0  0  0  0  0  0
    1.5314    0.0314    0.0549 H   0  0  0  0  0  0  0  0  0  0  0  0
    3.0602   -0.7718   -1.2882 C   0  0  0  0  0  0  0  0  0  0  0  0
    2.5030   -2.1338   -1.3949 N   0  0  0  0  0  0  0  0  0  0  0  0
    1.0203   -2.1039   -1.4490 C   0  0  0  0  0  0  0  0  0  0  0  0
    0.4033   -2.6175   -0.1276 C   0  0  0  0  0  0  0  0  0  0  0  0
   -0.6305   -3.6398   -0.3658 N   0  0  0  0  0  0  0  0  0  0  0  0
   -0.3426   -4.8854    0.3638 C   0  0  0  0  0  0  0  0  0  0  0  0
   -0.0764   -6.0782   -0.5969 C   0  0  0  0  0  0  0  0  0  0  0  0
    1.2204   -6.7843   -0.4703 N   0  0  0  0  0  0  0  0  0  0  0  0
    1.8894   -6.8820   -1.7928 C   0  0  0  0  0  0  0  0  0  0  0  0
    3.3515   -6.3806   -1.8882 C   0  0  0  0  0  0  0  0  0  0  0  0
    3.5580   -5.2954   -2.8449 N   0  0  0  0  0  0  0  0  0  0  0  0
    3.9741   -4.0332   -2.1598 C   0  0  0  0  0  0  0  0  0  0  0  0
    3.0651   -2.8470   -2.5652 C   0  0  0  0  0  0  0  0  0  0  0  0
    4.5488   -5.7459   -3.8387 C   0  0  0  0  0  0  0  0  0  0  0  0
    4.7426   -4.7252   -4.9572 C   0  0  0  0  0  0  0  0  0  0  0  0
    4.1493   -3.6580   -5.0741 O   0  0  0  0  0  0  0  0  0  0  0  0
    5.6863   -5.0891   -5.8538 O   0  0  0  0  0  0  0  0  0  0  0  0
    2.0642   -6.2604    0.6185 C   0  0  0  0  0  0  0  0  0  0  0  0
    3.3329   -7.0749    0.9006 C   0  0  0  0  0  0  0  0  0  0  0  0
    3.6024   -8.1732    0.4477 O   0  0  0  0  0  0  0  0  0  0  0  0
    4.2321   -6.3705    1.6432 O   0  0  0  0  0  0  0  0  0  0  0  0
   -1.9940   -3.1774   -0.0607 C   0  0  0  0  0  0  0  0  0  0  0  0
   -3.0488   -4.2352   -0.4527 C   0  0  0  0  0  0  0  0  0  0  0  0
   -2.8294   -5.3046   -1.0165 O   0  0  0  0  0  0  0  0  0  0  0  0
   -4.3058   -3.9093   -0.0811 O   0  0  0  0  0  0  0  0  0  0  0  0
    3.1183    1.2877    0.0252 O   0  0  0  0  0  0  0  0  0  0  0  0
    4.2174   -0.7830    1.2735 H   0  0  0  0  0  0  0  0  0  0  0  0
    2.7881   -1.8188    1.2740 H   0  0  0  0  0  0  0  0  0  0  0  0
    2.7664   -0.2861    2.1500 H   0  0  0  0  0  0  0  0  0  0  0  0
    4.1597   -0.8034   -1.3020 H   0  0  0  0  0  0  0  0  0  0  0  0
    2.7741   -0.1699   -2.1622 H   0  0  0  0  0  0  0  0  0  0  0  0
    0.6268   -2.6885   -2.2854 H   0  0  0  0  0  0  0  0  0  0  0  0
    0.6527   -1.0870   -1.6375 H   0  0  0  0  0  0  0  0  0  0  0  0
    0.0057   -1.7735    0.4510 H   0  0  0  0  0  0  0  0  0  0  0  0
    1.2129   -3.0108    0.4970 H   0  0  0  0  0  0  0  0  0  0  0  0
   -1.1416   -5.1697    1.0592 H   0  0  0  0  0  0  0  0  0  0  0  0
    0.4669   -4.6917    1.0595 H   0  0  0  0  0  0  0  0  0  0  0  0
   -0.2690   -5.7507   -1.6287 H   0  0  0  0  0  0  0  0  0  0  0  0
   -0.8593   -6.8301   -0.4196 H   0  0  0  0  0  0  0  0  0  0  0  0
    1.3029   -6.4186   -2.5981 H   0  0  0  0  0  0  0  0  0  0  0  0
    1.8819   -7.9484   -2.0657 H   0  0  0  0  0  0  0  0  0  0  0  0
    4.0073   -7.2467   -2.0440 H   0  0  0  0  0  0  0  0  0  0  0  0
    3.7190   -5.9900   -0.9565 H   0  0  0  0  0  0  0  0  0  0  0  0
    5.0219   -3.7940   -2.3877 H   0  0  0  0  0  0  0  0  0  0  0  0
    3.9692   -4.1132   -1.0639 H   0  0  0  0  0  0  0  0  0  0  0  0
    2.2721   -3.2258   -3.2175 H   0  0  0  0  0  0  0  0  0  0  0  0
    3.6499   -2.1600   -3.1872 H   0  0  0  0  0  0  0  0  0  0  0  0
    4.1876   -6.6749   -4.3007 H   0  0  0  0  0  0  0  0  0  0  0  0
    5.5091   -5.9500   -3.3466 H   0  0  0  0  0  0  0  0  0  0  0  0
    6.0812   -5.9643   -5.6882 H   0  0  0  0  0  0  0  0  0  0  0  0
    1.5267   -6.2657    1.5711 H   0  0  0  0  0  0  0  0  0  0  0  0
    2.3466   -5.2288    0.3627 H   0  0  0  0  0  0  0  0  0  0  0  0
    3.9410   -5.4721    1.8912 H   0  0  0  0  0  0  0  0  0  0  0  0
   -2.2103   -2.2651   -0.6253 H   0  0  0  0  0  0  0  0  0  0  0  0
   -2.0750   -2.9708    1.0139 H   0  0  0  0  0  0  0  0  0  0  0  0
   -4.3924   -3.0394    0.3458 H   0  0  0  0  0  0  0  0  0  0  0  0
    2.7485    1.7439   -0.7514 H   0  0  0  0  0  0  0  0  0  0  0  0
  1 30  1  0  0  0  0
  1 31  1  0  0  0  0
  1 32  1  0  0  0  0
  2  4  1  0  0  0  0
  2 29  1  0  0  0  0
  2  3  1  1  0  0  0
  2  1  1  0  0  0  0
  4  5  1  0  0  0  0
  4 33  1  0  0  0  0
  4 34  1  0  0  0  0
  5  6  1  0  0  0  0
  5 16  1  0  0  0  0
  6  7  1  0  0  0  0
  6 35  1  0  0  0  0
  6 36  1  0  0  0  0
  7  8  1  0  0  0  0
  7 37  1  0  0  0  0
  7 38  1  0  0  0  0
  8  9  1  0  0  0  0
  8 25  1  0  0  0  0
  9 10  1  0  0  0  0
  9 39  1  0  0  0  0
  9 40  1  0  0  0  0
 10 11  1  0  0  0  0
 10 41  1  0  0  0  0
 10 42  1  0  0  0  0
 11 12  1  0  0  0  0
 11 21  1  0  0  0  0
 12 13  1  0  0  0  0
 12 43  1  0  0  0  0
 12 44  1  0  0  0  0
 13 14  1  0  0  0  0
 13 45  1  0  0  0  0
 13 46  1  0  0  0  0
 14 15  1  0  0  0  0
 14 17  1  0  0  0  0
 15 16  1  0  0  0  0
 15 47  1  0  0  0  0
 15 48  1  0  0  0  0
 16 49  1  0  0  0  0
 16 50  1  0  0  0  0
 17 18  1  0  0  0  0
 17 51  1  0  0  0  0
 17 52  1  0  0  0  0
 18 19  2  0  0  0  0
 18 20  1  0  0  0  0
 20 53  1  0  0  0  0
 21 22  1  0  0  0  0
 21 54  1  0  0  0  0
 21 55  1  0  0  0  0
 22 23  2  0  0  0  0
 22 24  1  0  0  0  0
 24 56  1  0  0  0  0
 25 26  1  0  0  0  0
 25 57  1  0  0  0  0
 25 58  1  0  0  0  0
 26 27  2  0  0  0  0
 26 28  1  0  0  0  0
 28 59  1  0  0  0  0
 29 60  1  0  0  0  0
M  END
$$$$
