DOM
 OpenBabel04121316103D

 44 45  0  0  1  0  0  0  0  0999 V2000
    1.0223    0.0589    0.3290 O   0  0  0  0  0  0  0  0  0  0  0  0
    2.4369    0.0955    0.4898 C   0  0  0  0  0  0  0  0  0  0  0  0
    3.1106   -1.1561   -0.1100 C   0  0  1  0  0  0  0  0  0  0  0  0
    3.6368   -0.6799   -0.9049 H   0  0  0  0  0  0  0  0  0  0  0  0
    4.2248   -1.6417    0.6133 O   0  0  0  0  0  0  0  0  0  0  0  0
    3.8116   -2.3210    1.7698 C   0  0  2  0  0  0  0  0  0  0  0  0
    3.2514   -1.6367    2.4089 H   0  0  0  0  0  0  0  0  0  0  0  0
    5.0155   -2.6462    2.4298 O   0  0  0  0  0  0  0  0  0  0  0  0
    2.9926   -3.5520    1.4244 C   0  0  0  0  0  0  0  0  0  0  0  0
    1.7828   -3.1748    0.5788 C   0  0  2  0  0  0  0  0  0  0  0  0
    1.2726   -4.0869    0.2427 H   0  0  0  0  0  0  0  0  0  0  0  0
    2.2131   -2.3328   -0.6366 C   0  0  2  0  0  0  0  0  0  0  0  0
    1.2745   -1.9840   -1.0611 H   0  0  0  0  0  0  0  0  0  0  0  0
    2.8756   -3.1785   -1.6102 O   0  0  0  0  0  0  0  0  0  0  0  0
    3.1088   -2.7566   -2.9825 C   0  0  1  0  0  0  0  0  0  0  0  0
    3.8981   -3.4430   -3.3202 H   0  0  0  0  0  0  0  0  0  0  0  0
    2.0161   -2.9835   -3.8880 O   0  0  0  0  0  0  0  0  0  0  0  0
    0.8896   -2.1382   -3.6748 C   0  0  2  0  0  0  0  0  0  0  0  0
    0.4581   -2.4394   -2.7195 H   0  0  0  0  0  0  0  0  0  0  0  0
   -0.2298   -2.4207   -4.6818 C   0  0  0  0  0  0  0  0  0  0  0  0
   -1.4458   -1.7762   -4.3074 O   0  0  0  0  0  0  0  0  0  0  0  0
    1.2310   -0.6287   -3.6867 C   0  0  2  0  0  0  0  0  0  0  0  0
    1.3614   -0.2402   -4.6994 H   0  0  0  0  0  0  0  0  0  0  0  0
    2.4969   -0.3475   -2.8934 C   0  0  1  0  0  0  0  0  0  0  0  0
    2.1013   -0.4745   -1.9131 H   0  0  0  0  0  0  0  0  0  0  0  0
    3.6643   -1.3322   -3.1793 C   0  0  1  0  0  0  0  0  0  0  0  0
    3.9656   -1.1680   -4.2160 H   0  0  0  0  0  0  0  0  0  0  0  0
    4.8859   -1.1628   -2.4316 O   0  0  0  0  0  0  0  0  0  0  0  0
    2.8446    1.0312   -2.8480 O   0  0  0  0  0  0  0  0  0  0  0  0
    0.1773    0.1367   -3.0571 O   0  0  0  0  0  0  0  0  0  0  0  0
    0.8377   -2.4758    1.3998 O   0  0  0  0  0  0  0  0  0  0  0  0
    0.6887    0.9276    0.6236 H   0  0  0  0  0  0  0  0  0  0  0  0
    2.6840    0.2502    1.5381 H   0  0  0  0  0  0  0  0  0  0  0  0
    2.8002    0.9813   -0.0523 H   0  0  0  0  0  0  0  0  0  0  0  0
    5.5200   -1.8344    2.3617 H   0  0  0  0  0  0  0  0  0  0  0  0
    2.6754   -4.0357    2.3527 H   0  0  0  0  0  0  0  0  0  0  0  0
    3.6044   -4.2680    0.8622 H   0  0  0  0  0  0  0  0  0  0  0  0
   -0.4259   -3.4936   -4.7521 H   0  0  0  0  0  0  0  0  0  0  0  0
    0.0520   -2.0676   -5.6783 H   0  0  0  0  0  0  0  0  0  0  0  0
   -1.5801   -1.8874   -3.3500 H   0  0  0  0  0  0  0  0  0  0  0  0
    4.9324   -1.8234   -1.7056 H   0  0  0  0  0  0  0  0  0  0  0  0
    2.0752    1.4698   -2.4269 H   0  0  0  0  0  0  0  0  0  0  0  0
   -0.0852   -0.2997   -2.2247 H   0  0  0  0  0  0  0  0  0  0  0  0
    0.8908   -1.5094    1.2317 H   0  0  0  0  0  0  0  0  0  0  0  0
  1  2  1  0  0  0  0
  1 32  1  0  0  0  0
  2  3  1  0  0  0  0
  2 33  1  0  0  0  0
  2 34  1  0  0  0  0
  3  4  1  6  0  0  0
  3  5  1  0  0  0  0
  3 12  1  0  0  0  0
  5  6  1  0  0  0  0
  6  7  1  1  0  0  0
  6  8  1  0  0  0  0
  6  9  1  0  0  0  0
  8 35  1  0  0  0  0
  9 10  1  0  0  0  0
  9 36  1  0  0  0  0
  9 37  1  0  0  0  0
 10 12  1  0  0  0  0
 10 31  1  0  0  0  0
 10 11  1  6  0  0  0
 12 13  1  6  0  0  0
 12 14  1  0  0  0  0
 14 15  1  0  0  0  0
 15 16  1  6  0  0  0
 15 17  1  0  0  0  0
 15 26  1  0  0  0  0
 17 18  1  0  0  0  0
 18 19  1  1  0  0  0
 18 20  1  0  0  0  0
 18 22  1  0  0  0  0
 20 21  1  0  0  0  0
 20 38  1  0  0  0  0
 20 39  1  0  0  0  0
 21 40  1  0  0  0  0
 22 24  1  0  0  0  0
 22 30  1  0  0  0  0
 22 23  1  6  0  0  0
 24 25  1  1  0  0  0
 24 26  1  0  0  0  0
 24 29  1  0  0  0  0
 26 28  1  0  0  0  0
 26 27  1  6  0  0  0
 28 41  1  0  0  0  0
 29 42  1  0  0  0  0
 30 43  1  0  0  0  0
 31 44  1  0  0  0  0
M  END
$$$$
