DOR
 OpenBabel04121316103D

 17 17  0  0  1  0  0  0  0  0999 V2000
    1.1743   -0.0306    0.0866 O   0  0  0  0  0  0  0  0  0  0  0  0
    2.3859    0.0280    0.0044 C   0  0  0  0  0  0  0  0  0  0  0  0
    3.1817   -1.0821   -0.0418 N   0  0  0  0  0  0  0  0  0  0  0  0
    4.0809   -1.1552   -1.0580 C   0  0  0  0  0  0  0  0  0  0  0  0
    4.2407   -2.1690   -1.7335 O   0  0  0  0  0  0  0  0  0  0  0  0
    4.7802   -0.0053   -1.2571 N   0  0  0  0  0  0  0  0  0  0  0  0
    4.0770    1.2671   -1.2642 C   0  0  1  0  0  0  0  0  0  0  0  0
    3.5181    1.3079   -2.2094 H   0  0  0  0  0  0  0  0  0  0  0  0
    3.1478    1.3269   -0.0719 C   0  0  0  0  0  0  0  0  0  0  0  0
    5.0795    2.4191   -1.2526 C   0  0  0  0  0  0  0  0  0  0  0  0
    6.2938    2.2630   -1.2193 O   0  0  0  0  0  0  0  0  0  0  0  0
    4.5216    3.6495   -1.3202 O   0  0  0  0  0  0  0  0  0  0  0  0
    2.6990   -1.9529    0.1180 H   0  0  0  0  0  0  0  0  0  0  0  0
    5.7406   -0.0659   -1.5853 H   0  0  0  0  0  0  0  0  0  0  0  0
    2.4489    2.1654   -0.1411 H   0  0  0  0  0  0  0  0  0  0  0  0
    3.7105    1.4292    0.8629 H   0  0  0  0  0  0  0  0  0  0  0  0
    3.5490    3.6887   -1.3946 H   0  0  0  0  0  0  0  0  0  0  0  0
  1  2  2  0  0  0  0
  2  3  1  0  0  0  0
  2  9  1  0  0  0  0
  3  4  1  0  0  0  0
  3 13  1  0  0  0  0
  4  5  2  0  0  0  0
  4  6  1  0  0  0  0
  6  7  1  0  0  0  0
  6 14  1  0  0  0  0
  7  8  1  6  0  0  0
  7  9  1  0  0  0  0
  7 10  1  0  0  0  0
  9 15  1  0  0  0  0
  9 16  1  0  0  0  0
 10 11  2  0  0  0  0
 10 12  1  0  0  0  0
 12 17  1  0  0  0  0
M  END
$$$$
