DP6
 OpenBabel04121316103D

 32 31  0  0  1  0  0  0  0  0999 V2000
    9.1680    2.5054    3.9591 O   0  0  0  0  0  0  0  0  0  0  0  0
    8.8377    3.7769    4.2070 C   0  0  0  0  0  0  0  0  0  0  0  0
    8.2149    4.0625    5.2368 O   0  0  0  0  0  0  0  0  0  0  0  0
    9.3106    4.7417    3.1596 C   0  0  0  0  0  0  0  0  0  0  0  0
    8.7423    6.1648    3.3868 C   0  0  1  0  0  0  0  0  0  0  0  0
    7.1842    6.2309    3.3635 C   0  0  0  0  0  0  0  0  0  0  0  0
    6.6774    5.7067    2.0225 C   0  0  0  0  0  0  0  0  0  0  0  0
    5.3251    5.8800    1.7162 O   0  0  0  0  0  0  0  0  0  0  0  0
    4.6259    5.1068    0.4784 P   0  0  2  0  0  0  0  0  0  0  0  0
    3.9889    3.7919    0.7809 O   0  0  0  0  0  0  0  0  0  0  0  0
    5.5741    5.0455   -0.8733 O   0  0  0  0  0  0  0  0  0  0  0  0
    6.2945    3.4769   -0.9890 P   0  0  0  0  0  0  0  0  0  0  0  0
    6.8973    3.8191   -2.3474 O   0  0  0  0  0  0  0  0  0  0  0  0
    7.3909    3.9196    0.1103 O   0  0  0  0  0  0  0  0  0  0  0  0
    7.0148    1.9083   -1.1048 O   0  0  0  0  0  0  0  0  0  0  0  0
    3.5621    6.2294    0.0544 O   0  0  0  0  0  0  0  0  0  0  0  0
    9.2223    6.6601    4.6409 O   0  0  0  0  0  0  0  0  0  0  0  0
    9.3063    7.1189    2.3154 C   0  0  0  0  0  0  0  0  0  0  0  0
    8.7801    2.0035    4.7085 H   0  0  0  0  0  0  0  0  0  0  0  0
    9.0208    4.3578    2.1757 H   0  0  0  0  0  0  0  0  0  0  0  0
   10.4059    4.7574    3.1972 H   0  0  0  0  0  0  0  0  0  0  0  0
    6.8336    7.2489    3.5716 H   0  0  0  0  0  0  0  0  0  0  0  0
    6.7489    5.6392    4.1791 H   0  0  0  0  0  0  0  0  0  0  0  0
    6.8962    4.6440    2.0339 H   0  0  0  0  0  0  0  0  0  0  0  0
    7.1847    6.2363    1.2218 H   0  0  0  0  0  0  0  0  0  0  0  0
    7.8303    4.7308   -0.1934 H   0  0  0  0  0  0  0  0  0  0  0  0
    6.9783    1.6522   -2.0464 H   0  0  0  0  0  0  0  0  0  0  0  0
    3.7847    6.6870   -0.7720 H   0  0  0  0  0  0  0  0  0  0  0  0
    8.8786    6.0698    5.3424 H   0  0  0  0  0  0  0  0  0  0  0  0
    9.0470    6.8179    1.2963 H   0  0  0  0  0  0  0  0  0  0  0  0
   10.3976    7.1720    2.3546 H   0  0  0  0  0  0  0  0  0  0  0  0
    8.9272    8.1356    2.4747 H   0  0  0  0  0  0  0  0  0  0  0  0
  1  2  1  0  0  0  0
  1 19  1  0  0  0  0
  2  3  2  0  0  0  0
  2  4  1  0  0  0  0
  4 20  1  0  0  0  0
  4 21  1  0  0  0  0
  5  4  1  6  0  0  0
  5  6  1  0  0  0  0
  5 17  1  0  0  0  0
  5 18  1  0  0  0  0
  6  7  1  0  0  0  0
  6 22  1  0  0  0  0
  6 23  1  0  0  0  0
  7  8  1  0  0  0  0
  7 24  1  0  0  0  0
  7 25  1  0  0  0  0
  9 11  1  6  0  0  0
  9 16  1  0  0  0  0
  9 10  2  0  0  0  0
  9  8  1  0  0  0  0
 11 12  1  0  0  0  0
 12 13  2  0  0  0  0
 12 14  1  0  0  0  0
 12 15  1  0  0  0  0
 14 26  1  0  0  0  0
 15 27  1  0  0  0  0
 16 28  1  0  0  0  0
 17 29  1  0  0  0  0
 18 30  1  0  0  0  0
 18 31  1  0  0  0  0
 18 32  1  0  0  0  0
M  END
$$$$
