DPW
 OpenBabel04121316103D

 55 54  0  0  0  0  0  0  0  0999 V2000
    0.9960   -0.0316    0.0663 C   0  0  0  0  0  0  0  0  0  0  0  0
    2.5131   -0.0406    0.0695 C   0  0  0  0  0  0  0  0  0  0  0  0
    3.0409   -1.3708    0.5913 C   0  0  0  0  0  0  0  0  0  0  0  0
    4.5628   -1.3831    0.5953 C   0  0  0  0  0  0  0  0  0  0  0  0
    5.0773   -2.7154    1.1198 C   0  0  0  0  0  0  0  0  0  0  0  0
    6.5976   -2.7256    1.1363 C   0  0  0  0  0  0  0  0  0  0  0  0
    7.1079   -4.0459    1.6935 C   0  0  0  0  0  0  0  0  0  0  0  0
    8.6240   -4.0185    1.8106 C   0  0  0  0  0  0  0  0  0  0  0  0
    9.1365   -5.3283    2.4036 C   0  0  0  0  0  0  0  0  0  0  0  0
   10.6431   -5.2896    2.6012 C   0  0  0  0  0  0  0  0  0  0  0  0
   11.1315   -6.6381    2.6616 O   0  0  0  0  0  0  0  0  0  0  0  0
   12.8615   -6.6381    2.6616 P   0  0  1  0  0  0  0  0  0  0  0  0
   12.7154   -8.1105    3.0863 O   0  0  0  0  0  0  0  0  0  0  0  0
   12.8343   -6.6344    0.9686 O   0  0  0  0  0  0  0  0  0  0  0  0
   11.6724   -7.0883    0.3276 C   0  0  0  0  0  0  0  0  0  0  0  0
   11.6442   -7.0015   -1.1803 C   0  0  0  0  0  0  0  0  0  0  0  0
   10.1362   -6.9604   -1.6869 N   0  3  0  0  0  0  0  0  0  0  0  0
    9.3584   -8.1380   -1.0942 C   0  0  0  0  0  0  0  0  0  0  0  0
    9.4313   -5.6655   -1.2996 C   0  0  0  0  0  0  0  0  0  0  0  0
   10.1457   -7.0322   -3.1912 C   0  0  0  0  0  0  0  0  0  0  0  0
   14.5915   -6.6381    2.6616 O   0  5  0  0  0  0  0  0  0  0  0  0
    0.6235    0.9252   -0.3095 H   0  0  0  0  0  0  0  0  0  0  0  0
    0.6048   -0.1804    1.0778 H   0  0  0  0  0  0  0  0  0  0  0  0
    0.6046   -0.8290   -0.5735 H   0  0  0  0  0  0  0  0  0  0  0  0
    2.8832    0.7792    0.6961 H   0  0  0  0  0  0  0  0  0  0  0  0
    2.8830    0.1341   -0.9475 H   0  0  0  0  0  0  0  0  0  0  0  0
    2.6679   -2.1911   -0.0342 H   0  0  0  0  0  0  0  0  0  0  0  0
    2.6687   -1.5456    1.6085 H   0  0  0  0  0  0  0  0  0  0  0  0
    4.9405   -0.5670    1.2236 H   0  0  0  0  0  0  0  0  0  0  0  0
    4.9415   -1.2131   -0.4199 H   0  0  0  0  0  0  0  0  0  0  0  0
    4.7061   -3.5344    0.4916 H   0  0  0  0  0  0  0  0  0  0  0  0
    4.6958   -2.8867    2.1341 H   0  0  0  0  0  0  0  0  0  0  0  0
    6.9662   -1.8964    1.7523 H   0  0  0  0  0  0  0  0  0  0  0  0
    6.9841   -2.5718    0.1210 H   0  0  0  0  0  0  0  0  0  0  0  0
    6.7887   -4.8700    1.0423 H   0  0  0  0  0  0  0  0  0  0  0  0
    6.6721   -4.2260    2.6830 H   0  0  0  0  0  0  0  0  0  0  0  0
    8.9414   -3.1776    2.4357 H   0  0  0  0  0  0  0  0  0  0  0  0
    9.0564   -3.8355    0.8191 H   0  0  0  0  0  0  0  0  0  0  0  0
    8.8488   -6.1728    1.7641 H   0  0  0  0  0  0  0  0  0  0  0  0
    8.6593   -5.5271    3.3679 H   0  0  0  0  0  0  0  0  0  0  0  0
   10.9211   -4.7388    3.5022 H   0  0  0  0  0  0  0  0  0  0  0  0
   11.1178   -4.7662    1.7587 H   0  0  0  0  0  0  0  0  0  0  0  0
   10.9258   -6.3509    0.5740 H   0  0  0  0  0  0  0  0  0  0  0  0
   11.3539   -8.0599    0.7016 H   0  0  0  0  0  0  0  0  0  0  0  0
   12.1166   -7.8830   -1.6359 H   0  0  0  0  0  0  0  0  0  0  0  0
   12.1273   -6.0966   -1.5523 H   0  0  0  0  0  0  0  0  0  0  0  0
    9.2755   -8.0105   -0.0105 H   0  0  0  0  0  0  0  0  0  0  0  0
    9.8961   -9.0593   -1.3371 H   0  0  0  0  0  0  0  0  0  0  0  0
    8.3546   -8.1405   -1.5241 H   0  0  0  0  0  0  0  0  0  0  0  0
    9.3262   -5.6363   -0.2257 H   0  0  0  0  0  0  0  0  0  0  0  0
    8.4229   -5.6683   -1.7280 H   0  0  0  0  0  0  0  0  0  0  0  0
   10.0106   -4.8114   -1.6564 H   0  0  0  0  0  0  0  0  0  0  0  0
   10.6551   -7.9512   -3.4899 H   0  0  0  0  0  0  0  0  0  0  0  0
   10.6716   -6.1513   -3.5685 H   0  0  0  0  0  0  0  0  0  0  0  0
    9.1086   -7.0315   -3.5393 H   0  0  0  0  0  0  0  0  0  0  0  0
  1  2  1  0  0  0  0
  1 22  1  0  0  0  0
  1 23  1  0  0  0  0
  1 24  1  0  0  0  0
  2  3  1  0  0  0  0
  2 25  1  0  0  0  0
  2 26  1  0  0  0  0
  3  4  1  0  0  0  0
  3 27  1  0  0  0  0
  3 28  1  0  0  0  0
  4  5  1  0  0  0  0
  4 29  1  0  0  0  0
  4 30  1  0  0  0  0
  5  6  1  0  0  0  0
  5 31  1  0  0  0  0
  5 32  1  0  0  0  0
  6  7  1  0  0  0  0
  6 33  1  0  0  0  0
  6 34  1  0  0  0  0
  7  8  1  0  0  0  0
  7 35  1  0  0  0  0
  7 36  1  0  0  0  0
  8  9  1  0  0  0  0
  8 37  1  0  0  0  0
  8 38  1  0  0  0  0
  9 10  1  0  0  0  0
  9 39  1  0  0  0  0
  9 40  1  0  0  0  0
 10 11  1  0  0  0  0
 10 41  1  0  0  0  0
 10 42  1  0  0  0  0
 12 11  1  1  0  0  0
 12 13  2  0  0  0  0
 12 14  1  0  0  0  0
 12 21  1  0  0  0  0
 14 15  1  0  0  0  0
 15 16  1  0  0  0  0
 15 43  1  0  0  0  0
 15 44  1  0  0  0  0
 16 17  1  0  0  0  0
 16 45  1  0  0  0  0
 16 46  1  0  0  0  0
 17 18  1  0  0  0  0
 17 19  1  0  0  0  0
 17 20  1  0  0  0  0
 18 47  1  0  0  0  0
 18 48  1  0  0  0  0
 18 49  1  0  0  0  0
 19 50  1  0  0  0  0
 19 51  1  0  0  0  0
 19 52  1  0  0  0  0
 20 53  1  0  0  0  0
 20 54  1  0  0  0  0
 20 55  1  0  0  0  0
M  CHG  2  17   1  21  -1
M  END
$$$$
