DPX
 OpenBabel04121316103D

 46 46  0  0  1  0  0  0  0  0999 V2000
    1.0166   -0.0685    0.0351 C   0  0  0  0  0  0  0  0  0  0  0  0
    2.5102   -0.0865    0.0396 C   0  0  0  0  0  0  0  0  0  0  0  0
    3.1209    1.0916    0.0359 N   0  0  0  0  0  0  0  0  0  0  0  0
    4.4617    1.0379   -0.0006 C   0  0  0  0  0  0  0  0  0  0  0  0
    5.1710   -0.1550   -0.0475 C   0  0  0  0  0  0  0  0  0  0  0  0
    4.4517   -1.3039    0.0362 C   0  0  0  0  0  0  0  0  0  0  0  0
    3.1057   -1.3011    0.0595 N   0  0  0  0  0  0  0  0  0  0  0  0
    5.0320   -2.5735    0.2126 N   0  0  0  0  0  0  0  0  0  0  0  0
    6.6514    0.0093   -0.1705 C   0  0  0  0  0  0  0  0  0  0  0  0
    7.3734   -1.2177   -0.4780 N   0  0  0  0  0  0  0  0  0  0  0  0
    8.7859   -1.3633   -0.5954 C   0  0  0  0  0  0  0  0  0  0  0  0
    9.7451   -0.3690   -0.6537 C   0  0  0  0  0  0  0  0  0  0  0  0
   11.2726   -0.5161   -0.3749 C   0  0  1  0  0  0  0  0  0  0  0  0
   11.7947   -0.1238   -1.2514 H   0  0  0  0  0  0  0  0  0  0  0  0
   11.9016    0.1799    0.8865 C   0  0  0  0  0  0  0  0  0  0  0  0
   11.2849    1.4159    1.3041 O   0  0  0  0  0  0  0  0  0  0  0  0
   11.9657    2.1425    2.7189 P   0  0  1  0  0  0  0  0  0  0  0  0
   11.3715    3.4951    2.3416 O   0  0  0  0  0  0  0  0  0  0  0  0
   10.8295    1.2878    3.7046 O   0  0  0  0  0  0  0  0  0  0  0  0
    9.8089    0.3179    2.6993 P   0  0  0  0  0  0  0  0  0  0  0  0
   10.3130   -0.9813    3.3322 O   0  0  0  0  0  0  0  0  0  0  0  0
    8.5521    0.7457    3.6413 O   0  0  0  0  0  0  0  0  0  0  0  0
    8.7884   -0.6520    1.6940 O   0  0  0  0  0  0  0  0  0  0  0  0
   12.6465    2.8691    4.1336 O   0  0  0  0  0  0  0  0  0  0  0  0
   11.6823   -1.8795   -0.2427 O   0  0  0  0  0  0  0  0  0  0  0  0
    9.3331    1.3414   -0.9936 S   0  0  0  0  0  0  0  0  0  0  0  0
    9.1333   -2.8367   -0.2782 C   0  0  0  0  0  0  0  0  0  0  0  0
    0.6488    0.9624    0.0345 H   0  0  0  0  0  0  0  0  0  0  0  0
    0.6481   -0.5759    0.9279 H   0  0  0  0  0  0  0  0  0  0  0  0
    0.6510   -0.5739   -0.8607 H   0  0  0  0  0  0  0  0  0  0  0  0
    4.9589    1.9984    0.0052 H   0  0  0  0  0  0  0  0  0  0  0  0
    5.7834   -2.7358   -0.4535 H   0  0  0  0  0  0  0  0  0  0  0  0
    4.2966   -3.2619    0.1257 H   0  0  0  0  0  0  0  0  0  0  0  0
    6.9775    0.4346    0.7847 H   0  0  0  0  0  0  0  0  0  0  0  0
    6.7945    0.7145   -0.9868 H   0  0  0  0  0  0  0  0  0  0  0  0
    7.1187   -1.8057    0.3299 H   0  0  0  0  0  0  0  0  0  0  0  0
   12.9756    0.3362    0.7429 H   0  0  0  0  0  0  0  0  0  0  0  0
   11.8833   -0.5317    1.7184 H   0  0  0  0  0  0  0  0  0  0  0  0
    8.7363    0.4208    4.5434 H   0  0  0  0  0  0  0  0  0  0  0  0
    9.1981   -1.5239    1.8618 H   0  0  0  0  0  0  0  0  0  0  0  0
   13.1639    3.6470    3.8537 H   0  0  0  0  0  0  0  0  0  0  0  0
   11.4119   -2.3348   -1.0557 H   0  0  0  0  0  0  0  0  0  0  0  0
    8.4328    1.5921   -0.0210 H   0  0  0  0  0  0  0  0  0  0  0  0
    8.2302   -3.4357   -0.0889 H   0  0  0  0  0  0  0  0  0  0  0  0
    9.7199   -2.9456    0.6406 H   0  0  0  0  0  0  0  0  0  0  0  0
    9.6440   -3.3183   -1.1111 H   0  0  0  0  0  0  0  0  0  0  0  0
  1  2  1  0  0  0  0
  1 28  1  0  0  0  0
  1 29  1  0  0  0  0
  1 30  1  0  0  0  0
  2  3  2  0  0  0  0
  2  7  1  0  0  0  0
  3  4  1  0  0  0  0
  4  5  2  0  0  0  0
  4 31  1  0  0  0  0
  5  6  1  0  0  0  0
  5  9  1  0  0  0  0
  6  7  2  0  0  0  0
  6  8  1  0  0  0  0
  8 32  1  0  0  0  0
  8 33  1  0  0  0  0
  9 10  1  0  0  0  0
  9 34  1  0  0  0  0
  9 35  1  0  0  0  0
 10 11  1  0  0  0  0
 10 36  1  0  0  0  0
 11 12  2  0  0  0  0
 11 27  1  0  0  0  0
 12 13  1  0  0  0  0
 12 26  1  0  0  0  0
 13 14  1  6  0  0  0
 13 15  1  0  0  0  0
 13 25  1  0  0  0  0
 15 16  1  0  0  0  0
 15 37  1  0  0  0  0
 15 38  1  0  0  0  0
 17 16  1  6  0  0  0
 17 18  2  0  0  0  0
 17 19  1  0  0  0  0
 17 24  1  0  0  0  0
 19 20  1  0  0  0  0
 20 21  2  0  0  0  0
 20 22  1  0  0  0  0
 20 23  1  0  0  0  0
 22 39  1  0  0  0  0
 23 40  1  0  0  0  0
 24 41  1  0  0  0  0
 25 42  1  0  0  0  0
 26 43  1  0  0  0  0
 27 44  1  0  0  0  0
 27 45  1  0  0  0  0
 27 46  1  0  0  0  0
M  END
$$$$
