DQO
 OpenBabel04121316103D

 53 57  0  0  0  0  0  0  0  0999 V2000
    0.7927    0.2188   -0.0255 F   0  0  0  0  0  0  0  0  0  0  0  0
    2.1237    0.1405   -0.0561 C   0  0  0  0  0  0  0  0  0  0  0  0
    2.8997    1.2818   -0.1281 C   0  0  0  0  0  0  0  0  0  0  0  0
    4.2926    1.1809   -0.1890 C   0  0  0  0  0  0  0  0  0  0  0  0
    4.9463   -0.0626   -0.2885 C   0  0  0  0  0  0  0  0  0  0  0  0
    4.0876   -1.1669   -0.0622 C   0  0  0  0  0  0  0  0  0  0  0  0
    2.7157   -1.0842    0.0348 C   0  0  0  0  0  0  0  0  0  0  0  0
    4.4764   -2.4231    0.1345 F   0  0  0  0  0  0  0  0  0  0  0  0
    6.4154   -0.1130   -0.6379 C   0  0  0  0  0  0  0  0  0  0  0  0
    7.1480    1.1100   -0.7956 C   0  0  0  0  0  0  0  0  0  0  0  0
    8.5107    1.1591   -1.0195 C   0  0  0  0  0  0  0  0  0  0  0  0
    9.1274   -0.0782   -0.9843 C   0  0  0  0  0  0  0  0  0  0  0  0
    8.5281   -1.3095   -1.1041 C   0  0  0  0  0  0  0  0  0  0  0  0
    7.1411   -1.3190   -0.8940 C   0  0  0  0  0  0  0  0  0  0  0  0
    6.5054   -2.6710   -0.8382 C   0  0  0  0  0  0  0  0  0  0  0  0
    7.3349   -3.7185   -1.2995 N   0  0  0  0  0  0  0  0  0  0  0  0
    8.5808   -3.6787   -0.7333 C   0  0  0  0  0  0  0  0  0  0  0  0
    9.0246   -4.5941   -0.0179 O   0  0  0  0  0  0  0  0  0  0  0  0
    9.2805   -2.5409   -1.1825 N   0  0  0  0  0  0  0  0  0  0  0  0
   10.5864   -2.7099   -1.8603 C   0  0  0  0  0  0  0  0  0  0  0  0
   11.5246   -1.7259   -2.2822 C   0  0  0  0  0  0  0  0  0  0  0  0
   11.7198   -0.0572   -2.0713 Cl  0  0  0  0  0  0  0  0  0  0  0  0
   12.7672   -2.0241   -2.8475 C   0  0  0  0  0  0  0  0  0  0  0  0
   13.2754   -3.2715   -2.7479 C   0  0  0  0  0  0  0  0  0  0  0  0
   12.3791   -4.2846   -2.5397 C   0  0  0  0  0  0  0  0  0  0  0  0
   11.0362   -4.0226   -2.2064 C   0  0  0  0  0  0  0  0  0  0  0  0
   10.0488   -5.4400   -2.4723 Cl  0  0  0  0  0  0  0  0  0  0  0  0
    9.1924    2.3290   -1.2747 N   0  0  0  0  0  0  0  0  0  0  0  0
   10.2388    2.3745   -2.3100 C   0  0  0  0  0  0  0  0  0  0  0  0
   10.1935    3.6820   -3.0942 C   0  0  0  0  0  0  0  0  0  0  0  0
   10.3502    4.8419   -2.2047 N   0  0  0  0  0  0  0  0  0  0  0  0
    9.3132    4.7714   -1.1471 C   0  0  0  0  0  0  0  0  0  0  0  0
    9.3168    3.4436   -0.3302 C   0  0  0  0  0  0  0  0  0  0  0  0
    2.4256    2.2546   -0.1393 H   0  0  0  0  0  0  0  0  0  0  0  0
    4.8375    2.1195   -0.1579 H   0  0  0  0  0  0  0  0  0  0  0  0
    2.1627   -2.0031    0.1847 H   0  0  0  0  0  0  0  0  0  0  0  0
    6.6738    2.0833   -0.7480 H   0  0  0  0  0  0  0  0  0  0  0  0
   10.1164   -0.0938   -0.5733 H   0  0  0  0  0  0  0  0  0  0  0  0
    5.6424   -2.7079   -1.5048 H   0  0  0  0  0  0  0  0  0  0  0  0
    6.3263   -2.8890    0.2250 H   0  0  0  0  0  0  0  0  0  0  0  0
    6.9150   -4.6040   -1.5462 H   0  0  0  0  0  0  0  0  0  0  0  0
   13.4116   -1.2270   -3.2232 H   0  0  0  0  0  0  0  0  0  0  0  0
   14.3341   -3.4077   -2.8962 H   0  0  0  0  0  0  0  0  0  0  0  0
   12.7227   -5.2981   -2.7021 H   0  0  0  0  0  0  0  0  0  0  0  0
   10.0999    1.5822   -3.0507 H   0  0  0  0  0  0  0  0  0  0  0  0
   11.2288    2.3371   -1.8356 H   0  0  0  0  0  0  0  0  0  0  0  0
    9.2429    3.7353   -3.6354 H   0  0  0  0  0  0  0  0  0  0  0  0
   11.0007    3.6732   -3.8364 H   0  0  0  0  0  0  0  0  0  0  0  0
   10.2334    5.6892   -2.7554 H   0  0  0  0  0  0  0  0  0  0  0  0
    8.3311    4.8825   -1.6225 H   0  0  0  0  0  0  0  0  0  0  0  0
    9.4569    5.6176   -0.4711 H   0  0  0  0  0  0  0  0  0  0  0  0
    8.5113    3.4490    0.4090 H   0  0  0  0  0  0  0  0  0  0  0  0
   10.2683    3.3644    0.2171 H   0  0  0  0  0  0  0  0  0  0  0  0
  1  2  1  0  0  0  0
  2  3  2  0  0  0  0
  2  7  1  0  0  0  0
  3  4  1  0  0  0  0
  3 34  1  0  0  0  0
  4  5  2  0  0  0  0
  4 35  1  0  0  0  0
  5  6  1  0  0  0  0
  5  9  1  0  0  0  0
  6  7  2  0  0  0  0
  6  8  1  0  0  0  0
  7 36  1  0  0  0  0
  9 10  2  0  0  0  0
  9 14  1  0  0  0  0
 10 11  1  0  0  0  0
 10 37  1  0  0  0  0
 11 12  2  0  0  0  0
 11 28  1  0  0  0  0
 12 13  1  0  0  0  0
 12 38  1  0  0  0  0
 13 14  2  0  0  0  0
 13 19  1  0  0  0  0
 14 15  1  0  0  0  0
 15 16  1  0  0  0  0
 15 39  1  0  0  0  0
 15 40  1  0  0  0  0
 16 17  1  0  0  0  0
 16 41  1  0  0  0  0
 17 18  2  0  0  0  0
 17 19  1  0  0  0  0
 19 20  1  0  0  0  0
 20 21  2  0  0  0  0
 20 26  1  0  0  0  0
 21 22  1  0  0  0  0
 21 23  1  0  0  0  0
 23 24  2  0  0  0  0
 23 42  1  0  0  0  0
 24 25  1  0  0  0  0
 24 43  1  0  0  0  0
 25 26  2  0  0  0  0
 25 44  1  0  0  0  0
 26 27  1  0  0  0  0
 28 29  1  0  0  0  0
 28 33  1  0  0  0  0
 29 30  1  0  0  0  0
 29 45  1  0  0  0  0
 29 46  1  0  0  0  0
 30 31  1  0  0  0  0
 30 47  1  0  0  0  0
 30 48  1  0  0  0  0
 31 32  1  0  0  0  0
 31 49  1  0  0  0  0
 32 33  1  0  0  0  0
 32 50  1  0  0  0  0
 32 51  1  0  0  0  0
 33 52  1  0  0  0  0
 33 53  1  0  0  0  0
M  END
$$$$
