DQU
 OpenBabel04121316103D

 21 22  0  0  0  0  0  0  0  0999 V2000
    0.8767   -0.0355   -0.1875 N   0  0  0  0  0  0  0  0  0  0  0  0
    2.2423   -0.0084    0.0999 C   0  0  0  0  0  0  0  0  0  0  0  0
    2.9805    1.1628   -0.0003 C   0  0  0  0  0  0  0  0  0  0  0  0
    4.3593    1.1520    0.2503 C   0  0  0  0  0  0  0  0  0  0  0  0
    5.0670   -0.0409    0.3392 C   0  0  0  0  0  0  0  0  0  0  0  0
    4.3482   -1.2325    0.2986 C   0  0  0  0  0  0  0  0  0  0  0  0
    2.9316   -1.2064    0.2536 C   0  0  0  0  0  0  0  0  0  0  0  0
    5.1383   -2.3792    0.2716 C   0  0  0  0  0  0  0  0  0  0  0  0
    4.6156   -3.6389    0.1847 O   0  0  0  0  0  0  0  0  0  0  0  0
    6.4760   -2.3697    0.2782 N   0  0  0  0  0  0  0  0  0  0  0  0
    7.0528   -1.1765    0.3438 C   0  0  0  0  0  0  0  0  0  0  0  0
    6.4075   -0.0080    0.3977 N   0  0  0  0  0  0  0  0  0  0  0  0
    8.4186   -1.1491    0.3373 N   0  0  0  0  0  0  0  0  0  0  0  0
    0.3959    0.8443   -0.0289 H   0  0  0  0  0  0  0  0  0  0  0  0
    0.3807   -0.8197    0.2266 H   0  0  0  0  0  0  0  0  0  0  0  0
    2.5002    2.1003   -0.2685 H   0  0  0  0  0  0  0  0  0  0  0  0
    4.8936    2.0959    0.3234 H   0  0  0  0  0  0  0  0  0  0  0  0
    2.3560   -2.1223    0.3009 H   0  0  0  0  0  0  0  0  0  0  0  0
    3.6553   -3.5837    0.1059 H   0  0  0  0  0  0  0  0  0  0  0  0
    8.8935   -2.0327    0.2762 H   0  0  0  0  0  0  0  0  0  0  0  0
    8.8809   -0.2606    0.3702 H   0  0  0  0  0  0  0  0  0  0  0  0
  1  2  1  0  0  0  0
  1 14  1  0  0  0  0
  1 15  1  0  0  0  0
  2  3  2  0  0  0  0
  2  7  1  0  0  0  0
  3  4  1  0  0  0  0
  3 16  1  0  0  0  0
  4  5  2  0  0  0  0
  4 17  1  0  0  0  0
  5  6  1  0  0  0  0
  5 12  1  0  0  0  0
  6  7  2  0  0  0  0
  6  8  1  0  0  0  0
  7 18  1  0  0  0  0
  8  9  1  0  0  0  0
  8 10  2  0  0  0  0
  9 19  1  0  0  0  0
 10 11  1  0  0  0  0
 11 12  2  0  0  0  0
 11 13  1  0  0  0  0
 13 20  1  0  0  0  0
 13 21  1  0  0  0  0
M  END
$$$$
