DR0
 OpenBabel04121316103D

 33 32  0  0  0  0  0  0  0  0999 V2000
    0.9026    0.0335    0.0747 C   0  0  0  0  0  0  0  0  0  0  0  0
    2.4181    0.0421    0.0720 C   0  0  0  0  0  0  0  0  0  0  0  0
    2.9586   -1.3103    0.5024 C   0  0  0  0  0  0  0  0  0  0  0  0
    4.4816   -1.2990    0.4985 C   0  0  0  0  0  0  0  0  0  0  0  0
    4.9829   -2.6638    0.9311 C   0  0  0  0  0  0  0  0  0  0  0  0
    6.5051   -2.7156    0.9392 C   0  0  0  0  0  0  0  0  0  0  0  0
    7.0341   -4.0898    1.3799 N   0  3  0  0  0  0  0  0  0  0  0  0
    6.5920   -4.3920    2.7899 C   0  0  0  0  0  0  0  0  0  0  0  0
    6.9241   -3.3736    3.7035 O   0  0  0  0  0  0  0  0  0  0  0  0
    6.5501   -5.1833    0.4354 C   0  0  0  0  0  0  0  0  0  0  0  0
    8.5546   -4.0625    1.3256 C   0  0  0  0  0  0  0  0  0  0  0  0
    0.5208    1.0093   -0.2358 H   0  0  0  0  0  0  0  0  0  0  0  0
    0.5177   -0.1868    1.0756 H   0  0  0  0  0  0  0  0  0  0  0  0
    0.5177   -0.7247   -0.6149 H   0  0  0  0  0  0  0  0  0  0  0  0
    2.7846    0.8196    0.7518 H   0  0  0  0  0  0  0  0  0  0  0  0
    2.7846    0.2838   -0.9321 H   0  0  0  0  0  0  0  0  0  0  0  0
    2.5914   -2.0937   -0.1734 H   0  0  0  0  0  0  0  0  0  0  0  0
    2.5917   -1.5593    1.5066 H   0  0  0  0  0  0  0  0  0  0  0  0
    4.8562   -0.5288    1.1828 H   0  0  0  0  0  0  0  0  0  0  0  0
    4.8556   -1.0643   -0.5048 H   0  0  0  0  0  0  0  0  0  0  0  0
    4.5714   -3.4080    0.2423 H   0  0  0  0  0  0  0  0  0  0  0  0
    4.5755   -2.8752    1.9246 H   0  0  0  0  0  0  0  0  0  0  0  0
    6.9214   -1.9630    1.6200 H   0  0  0  0  0  0  0  0  0  0  0  0
    6.9040   -2.5239   -0.0643 H   0  0  0  0  0  0  0  0  0  0  0  0
    7.0333   -5.3441    3.1035 H   0  0  0  0  0  0  0  0  0  0  0  0
    5.5060   -4.5209    2.7938 H   0  0  0  0  0  0  0  0  0  0  0  0
    7.8651   -3.4354    3.9102 H   0  0  0  0  0  0  0  0  0  0  0  0
    5.4618   -5.2582    0.4865 H   0  0  0  0  0  0  0  0  0  0  0  0
    6.9906   -6.1332    0.7486 H   0  0  0  0  0  0  0  0  0  0  0  0
    6.8703   -4.9251   -0.5792 H   0  0  0  0  0  0  0  0  0  0  0  0
    8.9199   -3.2690    1.9839 H   0  0  0  0  0  0  0  0  0  0  0  0
    8.8644   -3.8658    0.2955 H   0  0  0  0  0  0  0  0  0  0  0  0
    8.9277   -5.0355    1.6593 H   0  0  0  0  0  0  0  0  0  0  0  0
  1  2  1  0  0  0  0
  1 12  1  0  0  0  0
  1 13  1  0  0  0  0
  1 14  1  0  0  0  0
  2  3  1  0  0  0  0
  2 15  1  0  0  0  0
  2 16  1  0  0  0  0
  3  4  1  0  0  0  0
  3 17  1  0  0  0  0
  3 18  1  0  0  0  0
  4  5  1  0  0  0  0
  4 19  1  0  0  0  0
  4 20  1  0  0  0  0
  5  6  1  0  0  0  0
  5 21  1  0  0  0  0
  5 22  1  0  0  0  0
  6  7  1  0  0  0  0
  6 23  1  0  0  0  0
  6 24  1  0  0  0  0
  7  8  1  0  0  0  0
  7 10  1  0  0  0  0
  7 11  1  0  0  0  0
  8  9  1  0  0  0  0
  8 25  1  0  0  0  0
  8 26  1  0  0  0  0
  9 27  1  0  0  0  0
 10 28  1  0  0  0  0
 10 29  1  0  0  0  0
 10 30  1  0  0  0  0
 11 31  1  0  0  0  0
 11 32  1  0  0  0  0
 11 33  1  0  0  0  0
M  CHG  1   7   1
M  END
$$$$
