DR2
 OpenBabel04121316103D

 71 73  0  0  1  0  0  0  0  0999 V2000
    2.9646   -0.2334   -3.7058 O   0  0  0  0  0  0  0  0  0  0  0  0
    2.6986   -1.6855   -2.8979 C   0  0  0  0  0  0  0  0  0  0  0  0
    3.6579   -2.9137   -1.7783 C   0  0  1  0  0  0  0  0  0  0  0  0
    2.9379   -3.1323   -0.9895 H   0  0  0  0  0  0  0  0  0  0  0  0
    4.0431   -4.7031   -2.2960 O   0  0  0  0  0  0  0  0  0  0  0  0
    5.7646   -5.2245   -2.9445 C   0  0  1  0  0  0  0  0  0  0  0  0
    6.0550   -6.2319   -3.1668 H   0  0  0  0  0  0  0  0  0  0  0  0
    5.2058   -4.8213   -4.1899 O   0  0  0  0  0  0  0  0  0  0  0  0
    7.1388   -4.0587   -2.0136 C   0  0  1  0  0  0  0  0  0  0  0  0
    8.1667   -3.8784   -2.5935 H   0  0  0  0  0  0  0  0  0  0  0  0
    6.2448   -2.2375   -1.7796 C   0  0  2  0  0  0  0  0  0  0  0  0
    7.0136   -2.1023   -1.1241 H   0  0  0  0  0  0  0  0  0  0  0  0
    4.9153   -2.0904   -1.0107 C   0  0  2  0  0  0  0  0  0  0  0  0
    4.5384   -1.0748   -0.8351 H   0  0  0  0  0  0  0  0  0  0  0  0
    5.4696   -2.5018    0.2592 O   0  0  0  0  0  0  0  0  0  0  0  0
    6.4353   -1.4302    0.7304 C   0  0  2  0  0  0  0  0  0  0  0  0
    7.2280   -1.9709    1.2443 H   0  0  0  0  0  0  0  0  0  0  0  0
    5.5907   -0.6901    1.5923 O   0  0  0  0  0  0  0  0  0  0  0  0
    6.1433    0.5464    1.9910 C   0  0  2  0  0  0  0  0  0  0  0  0
    7.0697    0.3021    2.5136 H   0  0  0  0  0  0  0  0  0  0  0  0
    5.1459    1.2127    2.9108 C   0  0  0  0  0  0  0  0  0  0  0  0
    5.6877    2.4439    3.3649 O   0  0  0  0  0  0  0  0  0  0  0  0
    6.4795    1.5384    0.8641 C   0  0  1  0  0  0  0  0  0  0  0  0
    6.8491    2.4882    1.2439 H   0  0  0  0  0  0  0  0  0  0  0  0
    7.6114    0.9376    0.0394 C   0  0  1  0  0  0  0  0  0  0  0  0
    8.5553    0.7880    0.5539 H   0  0  0  0  0  0  0  0  0  0  0  0
    7.1572   -0.4197   -0.3576 C   0  0  1  0  0  0  0  0  0  0  0  0
    6.2089   -0.0782   -0.7751 H   0  0  0  0  0  0  0  0  0  0  0  0
    8.2992   -0.9838   -1.4374 O   0  0  0  0  0  0  0  0  0  0  0  0
    7.8439   -1.5069   -2.8364 C   0  0  2  0  0  0  0  0  0  0  0  0
    8.5008   -1.3939   -3.6567 H   0  0  0  0  0  0  0  0  0  0  0  0
    6.6605   -0.1399   -2.5553 O   0  0  0  0  0  0  0  0  0  0  0  0
    5.0954   -0.1060   -3.2618 C   0  0  1  0  0  0  0  0  0  0  0  0
    4.4043    0.3466   -2.4885 H   0  0  0  0  0  0  0  0  0  0  0  0
    5.9200    0.7743   -4.2104 C   0  0  0  0  0  0  0  0  0  0  0  0
    4.5072   -1.7186   -4.3270 C   0  0  2  0  0  0  0  0  0  0  0  0
    4.3004   -2.4583   -3.5820 H   0  0  0  0  0  0  0  0  0  0  0  0
    5.6084   -2.6714   -5.0326 C   0  0  2  0  0  0  0  0  0  0  0  0
    4.9901   -3.4129   -5.5862 H   0  0  0  0  0  0  0  0  0  0  0  0
    6.7814   -3.1931   -3.7119 C   0  0  2  0  0  0  0  0  0  0  0  0
    7.3579   -3.9399   -4.1072 H   0  0  0  0  0  0  0  0  0  0  0  0
    5.4287   -3.5545   -2.4774 O   0  0  0  0  0  0  0  0  0  0  0  0
    6.3247   -1.8967   -5.9448 O   0  0  0  0  0  0  0  0  0  0  0  0
    3.5039   -1.6735   -5.3361 O   0  0  0  0  0  0  0  0  0  0  0  0
    7.8447    1.7208   -1.1387 O   0  0  0  0  0  0  0  0  0  0  0  0
    5.3048    1.8378    0.0781 O   0  0  0  0  0  0  0  0  0  0  0  0
    6.1198   -1.5903   -3.3879 O   0  0  0  0  0  0  0  0  0  0  0  0
    7.6669   -4.5134   -0.8420 N   0  0  0  0  0  0  0  0  0  0  0  0
    8.6606   -3.7240   -0.2980 C   0  0  0  0  0  0  0  0  0  0  0  0
    9.3455   -2.8471   -0.7952 O   0  0  0  0  0  0  0  0  0  0  0  0
    8.9833   -4.2236    1.0117 C   0  0  0  0  0  0  0  0  0  0  0  0
    3.2718   -0.0710   -4.6594 H   0  0  0  0  0  0  0  0  0  0  0  0
    2.3087   -2.4099   -3.6175 H   0  0  0  0  0  0  0  0  0  0  0  0
    2.1534   -1.0461   -2.2339 H   0  0  0  0  0  0  0  0  0  0  0  0
    4.6869   -4.1252   -3.6847 H   0  0  0  0  0  0  0  0  0  0  0  0
    4.9147    0.5664    3.7568 H   0  0  0  0  0  0  0  0  0  0  0  0
    4.1963    1.4096    2.3970 H   0  0  0  0  0  0  0  0  0  0  0  0
    6.5501    2.2455    3.7710 H   0  0  0  0  0  0  0  0  0  0  0  0
    6.8603    0.2430   -4.5430 H   0  0  0  0  0  0  0  0  0  0  0  0
    6.4827    1.5371   -3.6685 H   0  0  0  0  0  0  0  0  0  0  0  0
    5.4154    0.8516   -5.1410 H   0  0  0  0  0  0  0  0  0  0  0  0
    5.1986   -4.3363   -1.6703 H   0  0  0  0  0  0  0  0  0  0  0  0
    6.9955   -1.5115   -5.3628 H   0  0  0  0  0  0  0  0  0  0  0  0
    3.8510   -1.0545   -5.9837 H   0  0  0  0  0  0  0  0  0  0  0  0
    8.1352    2.6020   -0.8907 H   0  0  0  0  0  0  0  0  0  0  0  0
    4.6353    2.2550    0.6494 H   0  0  0  0  0  0  0  0  0  0  0  0
    6.0341   -1.0401   -4.1743 H   0  0  0  0  0  0  0  0  0  0  0  0
    6.9335   -4.9421   -0.3314 H   0  0  0  0  0  0  0  0  0  0  0  0
    8.3449   -5.0892    1.1704 H   0  0  0  0  0  0  0  0  0  0  0  0
    8.8136   -3.4337    1.7364 H   0  0  0  0  0  0  0  0  0  0  0  0
   10.0226   -4.4989    0.8537 H   0  0  0  0  0  0  0  0  0  0  0  0
  1  2  1  0  0  0  0
  1 52  1  0  0  0  0
  2  3  1  0  0  0  0
  2 53  1  0  0  0  0
  2 54  1  0  0  0  0
  3  4  1  1  0  0  0
  3  5  1  0  0  0  0
  3 13  1  0  0  0  0
  5  6  1  0  0  0  0
  6  9  1  0  0  0  0
  6  8  1  0  0  0  0
  6  7  1  1  0  0  0
  8 55  1  0  0  0  0
  9 10  1  6  0  0  0
  9 11  1  0  0  0  0
  9 48  1  0  0  0  0
 11 13  1  0  0  0  0
 11 47  1  0  0  0  0
 11 12  1  1  0  0  0
 13 14  1  1  0  0  0
 13 15  1  0  0  0  0
 16 18  1  0  0  0  0
 16 27  1  0  0  0  0
 16 17  1  1  0  0  0
 16 15  1  0  0  0  0
 18 19  1  0  0  0  0
 19 20  1  1  0  0  0
 19 21  1  0  0  0  0
 19 23  1  0  0  0  0
 21 22  1  0  0  0  0
 21 56  1  0  0  0  0
 21 57  1  0  0  0  0
 22 58  1  0  0  0  0
 23 24  1  1  0  0  0
 23 25  1  0  0  0  0
 23 46  1  0  0  0  0
 25 26  1  1  0  0  0
 25 27  1  0  0  0  0
 25 45  1  0  0  0  0
 27 29  1  0  0  0  0
 27 28  1  6  0  0  0
 30 32  1  0  0  0  0
 30 40  1  0  0  0  0
 30 31  1  6  0  0  0
 30 29  1  0  0  0  0
 32 33  1  0  0  0  0
 33 36  1  0  0  0  0
 33 35  1  0  0  0  0
 33 34  1  1  0  0  0
 35 59  1  0  0  0  0
 35 60  1  0  0  0  0
 35 61  1  0  0  0  0
 36 38  1  0  0  0  0
 36 44  1  0  0  0  0
 36 37  1  1  0  0  0
 38 40  1  0  0  0  0
 38 43  1  0  0  0  0
 38 39  1  6  0  0  0
 40 41  1  6  0  0  0
 40 42  1  0  0  0  0
 42 62  1  0  0  0  0
 43 63  1  0  0  0  0
 44 64  1  0  0  0  0
 45 65  1  0  0  0  0
 46 66  1  0  0  0  0
 47 67  1  0  0  0  0
 48 49  1  0  0  0  0
 48 68  1  0  0  0  0
 49 50  2  0  0  0  0
 49 51  1  0  0  0  0
 51 69  1  0  0  0  0
 51 70  1  0  0  0  0
 51 71  1  0  0  0  0
M  END
$$$$
