DR7
 OpenBabel04121316103D

103105  0  0  1  0  0  0  0  0999 V2000
   13.8791    4.6754    7.5866 C   0  0  0  0  0  0  0  0  0  0  0  0
   13.2979    3.7852    6.6330 O   0  0  0  0  0  0  0  0  0  0  0  0
   13.6060    4.2211    5.3875 C   0  0  0  0  0  0  0  0  0  0  0  0
   14.1489    5.2938    5.1465 O   0  0  0  0  0  0  0  0  0  0  0  0
   13.3617    3.3016    4.4313 N   0  0  0  0  0  0  0  0  0  0  0  0
   13.8263    3.5080    3.0188 C   0  0  1  0  0  0  0  0  0  0  0  0
   13.5416    4.5194    2.7088 H   0  0  0  0  0  0  0  0  0  0  0  0
   15.2568    3.0301    2.8242 C   0  0  0  0  0  0  0  0  0  0  0  0
   15.4668    1.5922    3.3449 C   0  0  0  0  0  0  0  0  0  0  0  0
   15.7154    3.1411    1.3616 C   0  0  0  0  0  0  0  0  0  0  0  0
   16.0725    4.0127    3.6171 C   0  0  0  0  0  0  0  0  0  0  0  0
   12.9787    2.6591    2.1932 C   0  0  0  0  0  0  0  0  0  0  0  0
   11.9572    2.4038    2.8062 O   0  0  0  0  0  0  0  0  0  0  0  0
   13.3651    2.3028    0.8864 N   0  0  0  0  0  0  0  0  0  0  0  0
   13.0294    1.0258    0.2747 N   0  0  0  0  0  0  0  0  0  0  0  0
   11.7307    0.7345    0.8232 C   0  0  0  0  0  0  0  0  0  0  0  0
   11.3395    0.1671    2.2034 C   0  0  0  0  0  0  0  0  0  0  0  0
   12.1911   -0.0285    3.2028 C   0  0  0  0  0  0  0  0  0  0  0  0
   11.7106    0.0360    4.5363 C   0  0  0  0  0  0  0  0  0  0  0  0
   10.4037    0.4139    4.9222 C   0  0  0  0  0  0  0  0  0  0  0  0
    9.7009    0.8824    3.9425 C   0  0  0  0  0  0  0  0  0  0  0  0
   10.0715    0.2885    2.7584 C   0  0  0  0  0  0  0  0  0  0  0  0
    9.5686   -0.0708    6.0226 C   0  0  0  0  0  0  0  0  0  0  0  0
   10.0635   -1.2270    6.5228 C   0  0  0  0  0  0  0  0  0  0  0  0
    9.2667   -1.9961    7.3068 C   0  0  0  0  0  0  0  0  0  0  0  0
    7.9894   -1.5647    7.6364 C   0  0  0  0  0  0  0  0  0  0  0  0
    7.5150   -0.3799    7.1033 C   0  0  0  0  0  0  0  0  0  0  0  0
    8.2629    0.3509    6.2469 N   0  0  0  0  0  0  0  0  0  0  0  0
   12.9048    1.1698   -1.2774 C   0  0  0  0  0  0  0  0  0  0  0  0
   11.9525    0.2105   -2.1239 C   0  0  1  0  0  0  0  0  0  0  0  0
   12.0851   -0.8074   -1.7281 H   0  0  0  0  0  0  0  0  0  0  0  0
   10.3874    0.5249   -2.2330 C   0  0  2  0  0  0  0  0  0  0  0  0
    9.9558   -0.4062   -2.6398 H   0  0  0  0  0  0  0  0  0  0  0  0
    9.9485    1.7610   -3.0128 C   0  0  0  0  0  0  0  0  0  0  0  0
   10.3042    1.7044   -4.4027 C   0  0  0  0  0  0  0  0  0  0  0  0
   11.0209    2.7683   -4.9400 C   0  0  0  0  0  0  0  0  0  0  0  0
   11.2359    2.7217   -6.2824 C   0  0  0  0  0  0  0  0  0  0  0  0
   10.9399    1.5384   -6.9680 C   0  0  0  0  0  0  0  0  0  0  0  0
   10.4348    0.4070   -6.3315 C   0  0  0  0  0  0  0  0  0  0  0  0
    9.9865    0.5355   -5.0628 C   0  0  0  0  0  0  0  0  0  0  0  0
    9.6226    0.7045   -1.0500 N   0  0  0  0  0  0  0  0  0  0  0  0
    9.7317    1.9897   -0.4388 C   0  0  0  0  0  0  0  0  0  0  0  0
   10.5631    2.8166   -0.8320 O   0  0  0  0  0  0  0  0  0  0  0  0
    9.2153    2.0182    1.0140 C   0  0  2  0  0  0  0  0  0  0  0  0
    9.7316    1.1224    1.0110 H   0  0  0  0  0  0  0  0  0  0  0  0
    7.8068    1.4531    1.4500 C   0  0  0  0  0  0  0  0  0  0  0  0
    7.2945    1.5831    2.9064 C   0  0  0  0  0  0  0  0  0  0  0  0
    7.1405    2.5994    0.7877 C   0  0  0  0  0  0  0  0  0  0  0  0
    7.5759   -0.1513    1.0767 C   0  0  0  0  0  0  0  0  0  0  0  0
    9.8732    3.0299    1.8868 N   0  0  0  0  0  0  0  0  0  0  0  0
    9.8927    4.2784    1.4506 C   0  0  0  0  0  0  0  0  0  0  0  0
    9.3152    4.5523    0.3369 O   0  0  0  0  0  0  0  0  0  0  0  0
   10.3901    5.2330    2.2472 O   0  0  0  0  0  0  0  0  0  0  0  0
    9.8424    6.4368    1.7253 C   0  0  0  0  0  0  0  0  0  0  0  0
   12.4249    0.0902   -3.4810 O   0  0  0  0  0  0  0  0  0  0  0  0
   13.5002    4.4494    8.5826 H   0  0  0  0  0  0  0  0  0  0  0  0
   13.6283    5.7181    7.3552 H   0  0  0  0  0  0  0  0  0  0  0  0
   14.9696    4.5500    7.5803 H   0  0  0  0  0  0  0  0  0  0  0  0
   12.6581    2.5835    4.6163 H   0  0  0  0  0  0  0  0  0  0  0  0
   14.9346    0.8446    2.7526 H   0  0  0  0  0  0  0  0  0  0  0  0
   15.1394    1.4667    4.3852 H   0  0  0  0  0  0  0  0  0  0  0  0
   16.5209    1.3282    3.2837 H   0  0  0  0  0  0  0  0  0  0  0  0
   15.4204    2.2903    0.7420 H   0  0  0  0  0  0  0  0  0  0  0  0
   16.7906    3.0919    1.2658 H   0  0  0  0  0  0  0  0  0  0  0  0
   15.3157    4.0664    0.9198 H   0  0  0  0  0  0  0  0  0  0  0  0
   15.9171    3.8400    4.6821 H   0  0  0  0  0  0  0  0  0  0  0  0
   15.7490    5.0253    3.3375 H   0  0  0  0  0  0  0  0  0  0  0  0
   17.1297    3.8970    3.4263 H   0  0  0  0  0  0  0  0  0  0  0  0
   13.5712    3.0596    0.2403 H   0  0  0  0  0  0  0  0  0  0  0  0
   11.2690    0.1075    0.1142 H   0  0  0  0  0  0  0  0  0  0  0  0
   11.4039    1.7795    0.7837 H   0  0  0  0  0  0  0  0  0  0  0  0
   13.2146    0.0055    2.9158 H   0  0  0  0  0  0  0  0  0  0  0  0
   12.4186   -0.1370    5.3066 H   0  0  0  0  0  0  0  0  0  0  0  0
    8.7531    1.2276    4.3139 H   0  0  0  0  0  0  0  0  0  0  0  0
    9.2693    0.0959    2.1540 H   0  0  0  0  0  0  0  0  0  0  0  0
   11.0449   -1.5372    6.2073 H   0  0  0  0  0  0  0  0  0  0  0  0
    9.7116   -2.9110    7.6537 H   0  0  0  0  0  0  0  0  0  0  0  0
    7.4119   -2.1466    8.3366 H   0  0  0  0  0  0  0  0  0  0  0  0
    6.5419    0.0206    7.3981 H   0  0  0  0  0  0  0  0  0  0  0  0
   13.9282    0.9812   -1.6275 H   0  0  0  0  0  0  0  0  0  0  0  0
   12.7111    2.1911   -1.6409 H   0  0  0  0  0  0  0  0  0  0  0  0
   10.4246    2.6815   -2.7039 H   0  0  0  0  0  0  0  0  0  0  0  0
    8.8676    1.9438   -2.8771 H   0  0  0  0  0  0  0  0  0  0  0  0
   11.3723    3.5966   -4.3188 H   0  0  0  0  0  0  0  0  0  0  0  0
   11.6406    3.5904   -6.7799 H   0  0  0  0  0  0  0  0  0  0  0  0
   11.1085    1.4906   -8.0291 H   0  0  0  0  0  0  0  0  0  0  0  0
   10.3574   -0.5651   -6.7912 H   0  0  0  0  0  0  0  0  0  0  0  0
    9.5059   -0.2865   -4.5435 H   0  0  0  0  0  0  0  0  0  0  0  0
    9.5197   -0.1518   -0.5175 H   0  0  0  0  0  0  0  0  0  0  0  0
    7.7639    2.4418    3.4281 H   0  0  0  0  0  0  0  0  0  0  0  0
    7.4236    0.6067    3.3921 H   0  0  0  0  0  0  0  0  0  0  0  0
    6.2237    1.6633    3.0750 H   0  0  0  0  0  0  0  0  0  0  0  0
    7.4600    3.4985    1.3589 H   0  0  0  0  0  0  0  0  0  0  0  0
    6.0824    2.5022    0.8466 H   0  0  0  0  0  0  0  0  0  0  0  0
    7.5100    2.6985   -0.2336 H   0  0  0  0  0  0  0  0  0  0  0  0
    8.1929   -0.9460    1.5945 H   0  0  0  0  0  0  0  0  0  0  0  0
    7.8124   -0.3734    0.0487 H   0  0  0  0  0  0  0  0  0  0  0  0
    6.5937   -0.5184    1.3617 H   0  0  0  0  0  0  0  0  0  0  0  0
   10.5595    2.8293    2.6495 H   0  0  0  0  0  0  0  0  0  0  0  0
   10.1993    7.3129    2.2504 H   0  0  0  0  0  0  0  0  0  0  0  0
    8.7455    6.3736    1.8153 H   0  0  0  0  0  0  0  0  0  0  0  0
   10.1104    6.5456    0.6615 H   0  0  0  0  0  0  0  0  0  0  0  0
   13.3885    0.1497   -3.5357 H   0  0  0  0  0  0  0  0  0  0  0  0
  1  2  1  0  0  0  0
  1 56  1  0  0  0  0
  1 57  1  0  0  0  0
  1 58  1  0  0  0  0
  2  3  1  0  0  0  0
  3  4  2  0  0  0  0
  3  5  1  0  0  0  0
  5  6  1  0  0  0  0
  5 59  1  0  0  0  0
  6  7  1  6  0  0  0
  6  8  1  0  0  0  0
  6 12  1  0  0  0  0
  8  9  1  0  0  0  0
  8 10  1  0  0  0  0
  8 11  1  0  0  0  0
  9 60  1  0  0  0  0
  9 61  1  0  0  0  0
  9 62  1  0  0  0  0
 10 63  1  0  0  0  0
 10 64  1  0  0  0  0
 10 65  1  0  0  0  0
 11 66  1  0  0  0  0
 11 67  1  0  0  0  0
 11 68  1  0  0  0  0
 12 13  2  0  0  0  0
 12 14  1  0  0  0  0
 14 15  1  0  0  0  0
 14 69  1  0  0  0  0
 15 16  1  0  0  0  0
 15 29  1  0  0  0  0
 16 17  1  0  0  0  0
 16 70  1  0  0  0  0
 16 71  1  0  0  0  0
 17 18  2  0  0  0  0
 17 22  1  0  0  0  0
 18 19  1  0  0  0  0
 18 72  1  0  0  0  0
 19 20  2  0  0  0  0
 19 73  1  0  0  0  0
 20 21  1  0  0  0  0
 20 23  1  0  0  0  0
 21 22  2  0  0  0  0
 21 74  1  0  0  0  0
 22 75  1  0  0  0  0
 23 24  2  0  0  0  0
 23 28  1  0  0  0  0
 24 25  1  0  0  0  0
 24 76  1  0  0  0  0
 25 26  2  0  0  0  0
 25 77  1  0  0  0  0
 26 27  1  0  0  0  0
 26 78  1  0  0  0  0
 27 28  2  0  0  0  0
 27 79  1  0  0  0  0
 29 30  1  0  0  0  0
 29 80  1  0  0  0  0
 29 81  1  0  0  0  0
 30 31  1  1  0  0  0
 30 55  1  0  0  0  0
 32 34  1  0  0  0  0
 32 41  1  0  0  0  0
 32 33  1  6  0  0  0
 32 30  1  0  0  0  0
 34 35  1  0  0  0  0
 34 82  1  0  0  0  0
 34 83  1  0  0  0  0
 35 36  2  0  0  0  0
 35 40  1  0  0  0  0
 36 37  1  0  0  0  0
 36 84  1  0  0  0  0
 37 38  2  0  0  0  0
 37 85  1  0  0  0  0
 38 39  1  0  0  0  0
 38 86  1  0  0  0  0
 39 40  2  0  0  0  0
 39 87  1  0  0  0  0
 40 88  1  0  0  0  0
 41 42  1  0  0  0  0
 41 89  1  0  0  0  0
 42 43  2  0  0  0  0
 44 46  1  0  0  0  0
 44 50  1  0  0  0  0
 44 45  1  1  0  0  0
 44 42  1  0  0  0  0
 46 47  1  0  0  0  0
 46 48  1  0  0  0  0
 46 49  1  0  0  0  0
 47 90  1  0  0  0  0
 47 91  1  0  0  0  0
 47 92  1  0  0  0  0
 48 93  1  0  0  0  0
 48 94  1  0  0  0  0
 48 95  1  0  0  0  0
 49 96  1  0  0  0  0
 49 97  1  0  0  0  0
 49 98  1  0  0  0  0
 50 51  1  0  0  0  0
 50 99  1  0  0  0  0
 51 52  2  0  0  0  0
 51 53  1  0  0  0  0
 53 54  1  0  0  0  0
 54100  1  0  0  0  0
 54101  1  0  0  0  0
 54102  1  0  0  0  0
 55103  1  0  0  0  0
M  END
$$$$
