DR8
 OpenBabel04121316103D

 23 22  0  0  0  0  0  0  0  0999 V2000
    1.0658   -0.0377    0.0652 C   0  0  0  0  0  0  0  0  0  0  0  0
    2.5098   -0.0377    0.0652 C   0  0  0  0  0  0  0  0  0  0  0  0
    3.6999   -0.0377    0.0652 C   0  0  0  0  0  0  0  0  0  0  0  0
    5.1515   -0.0656    0.0506 C   0  0  0  0  0  0  0  0  0  0  0  0
    6.3434   -0.0184    0.1052 C   0  0  0  0  0  0  0  0  0  0  0  0
    7.7868    0.1618    0.1973 C   0  0  0  0  0  0  0  0  0  0  0  0
    8.9770    0.2266    0.0832 C   0  0  0  0  0  0  0  0  0  0  0  0
   10.3409   -0.1341   -0.2149 N   0  3  0  0  0  0  0  0  0  0  0  0
   10.0991   -1.1421   -1.4106 C   0  0  0  0  0  0  0  0  0  0  0  0
   11.2666    0.7301   -0.9662 C   0  0  0  0  0  0  0  0  0  0  0  0
   10.9460   -0.4107    1.1769 C   0  0  0  0  0  0  0  0  0  0  0  0
    0.6748    0.5329   -0.7826 H   0  0  0  0  0  0  0  0  0  0  0  0
    0.6748    0.4112    0.9833 H   0  0  0  0  0  0  0  0  0  0  0  0
    0.6748   -1.0573   -0.0051 H   0  0  0  0  0  0  0  0  0  0  0  0
    9.2134   -0.7688   -1.9626 H   0  0  0  0  0  0  0  0  0  0  0  0
   10.0615   -2.1582   -1.0592 H   0  0  0  0  0  0  0  0  0  0  0  0
   10.8801   -1.0391   -2.1915 H   0  0  0  0  0  0  0  0  0  0  0  0
   10.7375    1.0332   -1.8766 H   0  0  0  0  0  0  0  0  0  0  0  0
   12.0961    0.0232   -1.1289 H   0  0  0  0  0  0  0  0  0  0  0  0
   11.6936    1.5890   -0.4689 H   0  0  0  0  0  0  0  0  0  0  0  0
   10.1775   -0.5338    1.9643 H   0  0  0  0  0  0  0  0  0  0  0  0
   11.5067    0.4915    1.4794 H   0  0  0  0  0  0  0  0  0  0  0  0
   11.5924   -1.2777    1.1251 H   0  0  0  0  0  0  0  0  0  0  0  0
  1  2  1  0  0  0  0
  1 12  1  0  0  0  0
  1 13  1  0  0  0  0
  1 14  1  0  0  0  0
  2  3  3  0  0  0  0
  3  4  1  0  0  0  0
  4  5  3  0  0  0  0
  5  6  1  0  0  0  0
  6  7  3  0  0  0  0
  7  8  1  0  0  0  0
  8  9  1  0  0  0  0
  8 10  1  0  0  0  0
  8 11  1  0  0  0  0
  9 15  1  0  0  0  0
  9 16  1  0  0  0  0
  9 17  1  0  0  0  0
 10 18  1  0  0  0  0
 10 19  1  0  0  0  0
 10 20  1  0  0  0  0
 11 21  1  0  0  0  0
 11 22  1  0  0  0  0
 11 23  1  0  0  0  0
M  CHG  1   8   1
M  END
$$$$
