DRG
 OpenBabel04121316103D

 26 28  0  0  0  0  0  0  0  0999 V2000
    0.9402    0.0564   -0.0648 N   0  0  0  0  0  0  0  0  0  0  0  0
    2.3210    0.0374   -0.0822 C   0  0  0  0  0  0  0  0  0  0  0  0
    3.0238    1.1824   -0.0833 N   0  0  0  0  0  0  0  0  0  0  0  0
    4.4233    1.1632   -0.0858 N   0  0  0  0  0  0  0  0  0  0  0  0
    5.0951   -0.0084   -0.0830 C   0  0  0  0  0  0  0  0  0  0  0  0
    4.3838   -1.2014   -0.0781 C   0  0  0  0  0  0  0  0  0  0  0  0
    2.9840   -1.1670   -0.0802 C   0  0  0  0  0  0  0  0  0  0  0  0
    5.0486   -2.5388   -0.0550 C   0  0  0  0  0  0  0  0  0  0  0  0
    6.5700   -2.5537   -0.0483 C   0  0  0  0  0  0  0  0  0  0  0  0
    7.2719   -1.2266   -0.0812 C   0  0  0  0  0  0  0  0  0  0  0  0
    6.5703   -0.0024   -0.0841 C   0  0  0  0  0  0  0  0  0  0  0  0
    7.3372    1.1771   -0.0839 C   0  0  0  0  0  0  0  0  0  0  0  0
    8.7405    1.1346   -0.0827 C   0  0  0  0  0  0  0  0  0  0  0  0
    9.4093   -0.0846   -0.0854 C   0  0  0  0  0  0  0  0  0  0  0  0
    8.6767   -1.2608   -0.0858 C   0  0  0  0  0  0  0  0  0  0  0  0
    0.4817    0.9528   -0.0767 H   0  0  0  0  0  0  0  0  0  0  0  0
    0.4064   -0.7978   -0.0866 H   0  0  0  0  0  0  0  0  0  0  0  0
    2.4262   -2.0984   -0.0760 H   0  0  0  0  0  0  0  0  0  0  0  0
    4.6989   -3.1150   -0.9210 H   0  0  0  0  0  0  0  0  0  0  0  0
    4.7000   -3.0726    0.8384 H   0  0  0  0  0  0  0  0  0  0  0  0
    6.9143   -3.1490   -0.9037 H   0  0  0  0  0  0  0  0  0  0  0  0
    6.8997   -3.0821    0.8555 H   0  0  0  0  0  0  0  0  0  0  0  0
    6.8483    2.1503   -0.0804 H   0  0  0  0  0  0  0  0  0  0  0  0
    9.3137    2.0580   -0.0778 H   0  0  0  0  0  0  0  0  0  0  0  0
   10.4950   -0.1261   -0.0822 H   0  0  0  0  0  0  0  0  0  0  0  0
    9.1944   -2.2181   -0.0821 H   0  0  0  0  0  0  0  0  0  0  0  0
  1  2  1  0  0  0  0
  1 16  1  0  0  0  0
  1 17  1  0  0  0  0
  2  3  2  0  0  0  0
  2  7  1  0  0  0  0
  3  4  1  0  0  0  0
  4  5  2  0  0  0  0
  5  6  1  0  0  0  0
  5 11  1  0  0  0  0
  6  7  2  0  0  0  0
  6  8  1  0  0  0  0
  7 18  1  0  0  0  0
  8  9  1  0  0  0  0
  8 19  1  0  0  0  0
  8 20  1  0  0  0  0
  9 10  1  0  0  0  0
  9 21  1  0  0  0  0
  9 22  1  0  0  0  0
 10 11  2  0  0  0  0
 10 15  1  0  0  0  0
 11 12  1  0  0  0  0
 12 13  2  0  0  0  0
 12 23  1  0  0  0  0
 13 14  1  0  0  0  0
 13 24  1  0  0  0  0
 14 15  2  0  0  0  0
 14 25  1  0  0  0  0
 15 26  1  0  0  0  0
M  END
$$$$
