DRK
 OpenBabel04121316103D

 46 49  0  0  1  0  0  0  0  0999 V2000
    1.3918    1.2047   -2.8813 O   0  0  0  0  0  0  0  0  0  0  0  0
    2.6357    0.8105   -2.3311 C   0  0  0  0  0  0  0  0  0  0  0  0
    2.9891    1.1797   -0.8767 C   0  0  2  0  0  0  0  0  0  0  0  0
    2.6069    0.3954   -0.2081 H   0  0  0  0  0  0  0  0  0  0  0  0
    2.5137    2.5321   -0.3668 C   0  0  0  0  0  0  0  0  0  0  0  0
    1.0099    2.5771   -0.3521 C   0  0  0  0  0  0  0  0  0  0  0  0
    0.5690    3.8196    0.1757 O   0  0  0  0  0  0  0  0  0  0  0  0
   -0.7686    4.0399   -0.2403 N   0  0  0  0  0  0  0  0  0  0  0  0
   -1.4397    4.9631    0.4827 C   0  0  0  0  0  0  0  0  0  0  0  0
   -1.0235    6.2929    0.4253 C   0  0  0  0  0  0  0  0  0  0  0  0
    0.0620    6.8810   -0.2424 C   0  0  0  0  0  0  0  0  0  0  0  0
    0.1874    8.2534   -0.2409 C   0  0  0  0  0  0  0  0  0  0  0  0
   -0.7629    9.0234    0.4248 C   0  0  0  0  0  0  0  0  0  0  0  0
   -1.8562    8.4483    1.1132 C   0  0  0  0  0  0  0  0  0  0  0  0
   -1.9649    7.0505    1.1034 C   0  0  0  0  0  0  0  0  0  0  0  0
   -2.8870    6.1536    1.6420 N   0  0  0  0  0  0  0  0  0  0  0  0
   -3.6958    6.4274    2.1909 H   0  0  0  0  0  0  0  0  0  0  0  0
   -2.5512    4.8405    1.3012 C   0  0  0  0  0  0  0  0  0  0  0  0
   -3.2897    3.7187    1.7859 C   0  0  0  0  0  0  0  0  0  0  0  0
   -2.8970    2.4467    1.7060 C   0  0  0  0  0  0  0  0  0  0  0  0
   -1.7134    1.8138    1.2623 C   0  0  0  0  0  0  0  0  0  0  0  0
   -1.6361    0.5124    0.9894 C   0  0  0  0  0  0  0  0  0  0  0  0
   -2.6816   -0.3427    1.4844 C   0  0  0  0  0  0  0  0  0  0  0  0
   -3.7629    0.1454    2.1290 C   0  0  0  0  0  0  0  0  0  0  0  0
   -3.9722    1.6257    2.2371 C   0  0  0  0  0  0  0  0  0  0  0  0
   -4.9426    2.3207    2.7214 N   0  0  0  0  0  0  0  0  0  0  0  0
   -4.5991    3.6564    2.5036 C   0  0  0  0  0  0  0  0  0  0  0  0
   -5.2290    4.6382    2.8374 O   0  0  0  0  0  0  0  0  0  0  0  0
    4.4196    1.1254   -0.7935 O   0  0  0  0  0  0  0  0  0  0  0  0
    1.4326    0.9374   -3.8211 H   0  0  0  0  0  0  0  0  0  0  0  0
    3.4110    1.2081   -2.9877 H   0  0  0  0  0  0  0  0  0  0  0  0
    2.6403   -0.2800   -2.3828 H   0  0  0  0  0  0  0  0  0  0  0  0
    2.9277    3.3637   -0.9423 H   0  0  0  0  0  0  0  0  0  0  0  0
    2.8835    2.6870    0.6602 H   0  0  0  0  0  0  0  0  0  0  0  0
    0.7051    1.7569    0.2985 H   0  0  0  0  0  0  0  0  0  0  0  0
    0.5621    2.4320   -1.3290 H   0  0  0  0  0  0  0  0  0  0  0  0
   -1.2704    3.2183   -0.5680 H   0  0  0  0  0  0  0  0  0  0  0  0
    0.7682    6.2424   -0.7671 H   0  0  0  0  0  0  0  0  0  0  0  0
    1.0203    8.6973   -0.7762 H   0  0  0  0  0  0  0  0  0  0  0  0
   -0.6478   10.1032    0.4006 H   0  0  0  0  0  0  0  0  0  0  0  0
   -2.5834    9.0807    1.6092 H   0  0  0  0  0  0  0  0  0  0  0  0
   -0.8401    2.4204    1.2544 H   0  0  0  0  0  0  0  0  0  0  0  0
   -0.7234    0.0815    0.5861 H   0  0  0  0  0  0  0  0  0  0  0  0
   -2.4606   -1.4054    1.4315 H   0  0  0  0  0  0  0  0  0  0  0  0
   -4.4768   -0.5136    2.5971 H   0  0  0  0  0  0  0  0  0  0  0  0
    4.6850    1.3096    0.1225 H   0  0  0  0  0  0  0  0  0  0  0  0
  1  2  1  0  0  0  0
  1 30  1  0  0  0  0
  2 31  1  0  0  0  0
  2 32  1  0  0  0  0
  3  5  1  0  0  0  0
  3 29  1  0  0  0  0
  3  4  1  1  0  0  0
  3  2  1  0  0  0  0
  5  6  1  0  0  0  0
  5 33  1  0  0  0  0
  5 34  1  0  0  0  0
  6  7  1  0  0  0  0
  6 35  1  0  0  0  0
  6 36  1  0  0  0  0
  7  8  1  0  0  0  0
  8  9  1  0  0  0  0
  8 37  1  0  0  0  0
  9 10  1  0  0  0  0
  9 18  2  0  0  0  0
 10 11  2  0  0  0  0
 10 15  1  0  0  0  0
 11 12  1  0  0  0  0
 11 38  1  0  0  0  0
 12 13  2  0  0  0  0
 12 39  1  0  0  0  0
 13 14  1  0  0  0  0
 13 40  1  0  0  0  0
 14 15  2  0  0  0  0
 14 41  1  0  0  0  0
 15 16  1  0  0  0  0
 16 17  1  0  0  0  0
 16 18  1  0  0  0  0
 18 19  1  0  0  0  0
 19 20  2  0  0  0  0
 19 27  1  0  0  0  0
 20 21  1  0  0  0  0
 20 25  1  0  0  0  0
 21 22  2  0  0  0  0
 21 42  1  0  0  0  0
 22 23  1  0  0  0  0
 22 43  1  0  0  0  0
 23 24  2  0  0  0  0
 23 44  1  0  0  0  0
 24 25  1  0  0  0  0
 24 45  1  0  0  0  0
 25 26  2  0  0  0  0
 26 27  1  0  0  0  0
 27 28  2  0  0  0  0
 29 46  1  0  0  0  0
M  END
$$$$
