DRO
 OpenBabel04121316103D

 72 77  0  0  1  0  0  0  0  0999 V2000
    0.7325    0.8512   -2.4956 N   0  0  0  0  0  0  0  0  0  0  0  0
    1.2670   -0.5079   -2.3466 C   0  0  0  0  0  0  0  0  0  0  0  0
    2.5667   -0.5665   -1.5444 C   0  0  2  0  0  0  0  0  0  0  0  0
    2.4108   -0.1524   -0.5451 H   0  0  0  0  0  0  0  0  0  0  0  0
    3.5000    0.2908   -2.3604 C   0  0  0  0  0  0  0  0  0  0  0  0
    3.7885   -0.2953   -3.7068 C   0  0  0  0  0  0  0  0  0  0  0  0
    4.1125    0.5762   -4.7432 C   0  0  0  0  0  0  0  0  0  0  0  0
    4.6846    0.0722   -5.8989 C   0  0  0  0  0  0  0  0  0  0  0  0
    4.8673   -1.3031   -6.0422 C   0  0  0  0  0  0  0  0  0  0  0  0
    4.4836   -2.1845   -5.0202 C   0  0  0  0  0  0  0  0  0  0  0  0
    3.9299   -1.6903   -3.8315 C   0  0  0  0  0  0  0  0  0  0  0  0
    3.4164   -2.6153   -2.7310 C   0  0  0  0  0  0  0  0  0  0  0  0
    3.1400   -1.9363   -1.4338 N   0  0  0  0  0  0  0  0  0  0  0  0
    3.4007   -2.6160   -0.2290 C   0  0  0  0  0  0  0  0  0  0  0  0
    3.6455   -3.8461   -0.2136 O   0  0  0  0  0  0  0  0  0  0  0  0
    3.5422   -1.9116    1.0882 C   0  0  0  0  0  0  0  0  0  0  0  0
    3.0069   -2.6389    2.1863 C   0  0  0  0  0  0  0  0  0  0  0  0
    2.7867   -2.0242    3.4142 C   0  0  0  0  0  0  0  0  0  0  0  0
    3.2132   -0.7122    3.5954 C   0  0  0  0  0  0  0  0  0  0  0  0
    3.9124   -0.0348    2.5744 C   0  0  0  0  0  0  0  0  0  0  0  0
    4.0954   -0.6172    1.3037 C   0  0  0  0  0  0  0  0  0  0  0  0
    4.9735    0.0633    0.3666 N   0  0  0  0  0  0  0  0  0  0  0  0
    4.9049    1.4518    0.0635 N   0  0  0  0  0  0  0  0  0  0  0  0
    5.8932    1.6773   -0.8990 C   0  0  0  0  0  0  0  0  0  0  0  0
    6.7978    0.5753   -0.7136 C   0  0  0  0  0  0  0  0  0  0  0  0
    5.9874   -0.5103   -0.3850 C   0  0  0  0  0  0  0  0  0  0  0  0
    6.1956   -1.9391   -0.7548 C   0  0  0  0  0  0  0  0  0  0  0  0
    8.4276    0.3871   -1.1634 Cl  0  0  0  0  0  0  0  0  0  0  0  0
    5.7591    2.8513   -2.0702 C   0  0  0  0  0  0  0  0  0  0  0  0
    4.9919    3.7731   -1.8405 O   0  0  0  0  0  0  0  0  0  0  0  0
    6.3749    2.8110   -3.5055 N   0  0  0  0  0  0  0  0  0  0  0  0
    7.0064    1.6767   -4.1476 C   0  0  0  0  0  0  0  0  0  0  0  0
    7.6214    1.5615   -5.4021 C   0  0  0  0  0  0  0  0  0  0  0  0
    7.9076    0.2736   -5.9597 C   0  0  0  0  0  0  0  0  0  0  0  0
    7.7357   -0.9013   -5.2366 C   0  0  0  0  0  0  0  0  0  0  0  0
    7.1584   -0.7868   -4.0137 C   0  0  0  0  0  0  0  0  0  0  0  0
    6.7707    0.4640   -3.5703 C   0  0  0  0  0  0  0  0  0  0  0  0
    6.1432    3.9611   -4.4021 C   0  0  0  0  0  0  0  0  0  0  0  0
    6.6220    5.2062   -4.0009 C   0  0  0  0  0  0  0  0  0  0  0  0
    6.4632    6.3516   -4.7974 C   0  0  0  0  0  0  0  0  0  0  0  0
    5.8887    6.2692   -6.0635 C   0  0  0  0  0  0  0  0  0  0  0  0
    5.4726    5.0321   -6.5375 C   0  0  0  0  0  0  0  0  0  0  0  0
    5.5552    3.8989   -5.6984 C   0  0  0  0  0  0  0  0  0  0  0  0
    0.0856    0.8281   -3.2799 H   0  0  0  0  0  0  0  0  0  0  0  0
    1.4532    1.5005   -2.8269 H   0  0  0  0  0  0  0  0  0  0  0  0
    1.4568   -0.8641   -3.3632 H   0  0  0  0  0  0  0  0  0  0  0  0
    0.5437   -1.1892   -1.9103 H   0  0  0  0  0  0  0  0  0  0  0  0
    4.4352    0.2535   -1.8825 H   0  0  0  0  0  0  0  0  0  0  0  0
    3.2507    1.3545   -2.3918 H   0  0  0  0  0  0  0  0  0  0  0  0
    4.1253    1.6455   -4.5427 H   0  0  0  0  0  0  0  0  0  0  0  0
    5.1997    0.7565   -6.5702 H   0  0  0  0  0  0  0  0  0  0  0  0
    5.4748   -1.6596   -6.8727 H   0  0  0  0  0  0  0  0  0  0  0  0
    4.7339   -3.2375   -5.1210 H   0  0  0  0  0  0  0  0  0  0  0  0
    4.0843   -3.4771   -2.6018 H   0  0  0  0  0  0  0  0  0  0  0  0
    2.4552   -2.9878   -3.0911 H   0  0  0  0  0  0  0  0  0  0  0  0
    2.7359   -3.6933    2.0804 H   0  0  0  0  0  0  0  0  0  0  0  0
    2.2739   -2.5605    4.2134 H   0  0  0  0  0  0  0  0  0  0  0  0
    3.0328   -0.2284    4.5545 H   0  0  0  0  0  0  0  0  0  0  0  0
    4.3629    0.9262    2.8157 H   0  0  0  0  0  0  0  0  0  0  0  0
    6.6776   -1.9926   -1.7226 H   0  0  0  0  0  0  0  0  0  0  0  0
    5.3538   -2.5531   -1.0049 H   0  0  0  0  0  0  0  0  0  0  0  0
    6.7811   -2.4880   -0.0326 H   0  0  0  0  0  0  0  0  0  0  0  0
    7.7480    2.4118   -6.0656 H   0  0  0  0  0  0  0  0  0  0  0  0
    8.0630    0.1618   -7.0295 H   0  0  0  0  0  0  0  0  0  0  0  0
    7.7533   -1.8966   -5.6732 H   0  0  0  0  0  0  0  0  0  0  0  0
    6.7074   -1.6526   -3.5524 H   0  0  0  0  0  0  0  0  0  0  0  0
    5.9994    0.4540   -2.8470 H   0  0  0  0  0  0  0  0  0  0  0  0
    7.1721    5.2833   -3.0702 H   0  0  0  0  0  0  0  0  0  0  0  0
    6.8081    7.3113   -4.4228 H   0  0  0  0  0  0  0  0  0  0  0  0
    5.7736    7.1646   -6.6721 H   0  0  0  0  0  0  0  0  0  0  0  0
    5.0823    4.9554   -7.5540 H   0  0  0  0  0  0  0  0  0  0  0  0
    5.1274    2.9864   -6.1008 H   0  0  0  0  0  0  0  0  0  0  0  0
  1  2  1  0  0  0  0
  1 44  1  0  0  0  0
  1 45  1  0  0  0  0
  2 46  1  0  0  0  0
  2 47  1  0  0  0  0
  3  5  1  0  0  0  0
  3 13  1  0  0  0  0
  3  4  1  1  0  0  0
  3  2  1  0  0  0  0
  5  6  1  0  0  0  0
  5 48  1  0  0  0  0
  5 49  1  0  0  0  0
  6  7  2  0  0  0  0
  6 11  1  0  0  0  0
  7  8  1  0  0  0  0
  7 50  1  0  0  0  0
  8  9  2  0  0  0  0
  8 51  1  0  0  0  0
  9 10  1  0  0  0  0
  9 52  1  0  0  0  0
 10 11  2  0  0  0  0
 10 53  1  0  0  0  0
 11 12  1  0  0  0  0
 12 13  1  0  0  0  0
 12 54  1  0  0  0  0
 12 55  1  0  0  0  0
 13 14  1  0  0  0  0
 14 15  2  0  0  0  0
 14 16  1  0  0  0  0
 16 17  2  0  0  0  0
 16 21  1  0  0  0  0
 17 18  1  0  0  0  0
 17 56  1  0  0  0  0
 18 19  2  0  0  0  0
 18 57  1  0  0  0  0
 19 20  1  0  0  0  0
 19 58  1  0  0  0  0
 20 21  2  0  0  0  0
 20 59  1  0  0  0  0
 21 22  1  0  0  0  0
 22 23  1  0  0  0  0
 22 26  1  0  0  0  0
 23 24  2  0  0  0  0
 24 25  1  0  0  0  0
 24 29  1  0  0  0  0
 25 26  2  0  0  0  0
 25 28  1  0  0  0  0
 26 27  1  0  0  0  0
 27 60  1  0  0  0  0
 27 61  1  0  0  0  0
 27 62  1  0  0  0  0
 29 30  2  0  0  0  0
 29 31  1  0  0  0  0
 31 32  1  0  0  0  0
 31 38  1  0  0  0  0
 32 33  2  0  0  0  0
 32 37  1  0  0  0  0
 33 34  1  0  0  0  0
 33 63  1  0  0  0  0
 34 35  2  0  0  0  0
 34 64  1  0  0  0  0
 35 36  1  0  0  0  0
 35 65  1  0  0  0  0
 36 37  2  0  0  0  0
 36 66  1  0  0  0  0
 37 67  1  0  0  0  0
 38 39  2  0  0  0  0
 38 43  1  0  0  0  0
 39 40  1  0  0  0  0
 39 68  1  0  0  0  0
 40 41  2  0  0  0  0
 40 69  1  0  0  0  0
 41 42  1  0  0  0  0
 41 70  1  0  0  0  0
 42 43  2  0  0  0  0
 42 71  1  0  0  0  0
 43 72  1  0  0  0  0
M  END
$$$$
