DRX
 OpenBabel04121316103D

 43 46  0  0  1  0  0  0  0  0999 V2000
    5.0252   -9.2326    1.6935 Cl  0  0  0  0  0  0  0  0  0  0  0  0
    4.5219   -7.6845    2.2559 C   0  0  0  0  0  0  0  0  0  0  0  0
    3.8343   -7.5543    3.4321 C   0  0  0  0  0  0  0  0  0  0  0  0
    3.4076   -6.2915    3.8506 C   0  0  0  0  0  0  0  0  0  0  0  0
    3.7421   -5.1393    3.1076 C   0  0  0  0  0  0  0  0  0  0  0  0
    4.4805   -5.2244    1.9271 C   0  0  0  0  0  0  0  0  0  0  0  0
    4.7757   -6.5531    1.4944 C   0  0  0  0  0  0  0  0  0  0  0  0
    4.7204   -3.8879    1.3585 C   0  0  0  0  0  0  0  0  0  0  0  0
    4.0833   -2.9110    2.1043 C   0  0  0  0  0  0  0  0  0  0  0  0
    3.2846   -3.5257    3.4681 S   0  0  0  0  0  0  0  0  0  0  0  0
    5.4460   -3.5347    0.0678 C   0  0  2  0  0  0  0  0  0  0  0  0
    5.5900   -2.4447    0.0576 H   0  0  0  0  0  0  0  0  0  0  0  0
    4.5027   -3.9920   -1.4322 P   0  0  0  0  0  0  0  0  0  0  0  0
    3.5601   -4.9360   -0.6984 O   0  0  0  0  0  0  0  0  0  0  0  0
    3.8288   -2.5050   -1.5642 O   0  0  0  0  0  0  0  0  0  0  0  0
    3.6109   -4.4243   -2.8502 O   0  0  0  0  0  0  0  0  0  0  0  0
    6.8297   -4.0648   -0.0144 C   0  0  0  0  0  0  0  0  0  0  0  0
    7.7611   -3.2604    0.1277 O   0  0  0  0  0  0  0  0  0  0  0  0
    6.9314   -5.4208   -0.2212 N   0  0  0  0  0  0  0  0  0  0  0  0
    8.0617   -6.2120    0.0016 C   0  0  0  0  0  0  0  0  0  0  0  0
    7.9692   -7.6111    0.0480 C   0  0  0  0  0  0  0  0  0  0  0  0
    9.1278   -8.3845    0.1473 C   0  0  0  0  0  0  0  0  0  0  0  0
   10.3759   -7.7495    0.1247 C   0  0  0  0  0  0  0  0  0  0  0  0
   10.4367   -6.3435    0.1356 C   0  0  0  0  0  0  0  0  0  0  0  0
    9.2886   -5.5979    0.1196 C   0  0  0  0  0  0  0  0  0  0  0  0
   11.6331   -5.6489    0.0686 C   0  0  0  0  0  0  0  0  0  0  0  0
   12.7875   -6.3514   -0.2052 C   0  0  0  0  0  0  0  0  0  0  0  0
   12.7432   -7.7423   -0.2982 C   0  0  0  0  0  0  0  0  0  0  0  0
   11.5735   -8.4462    0.0001 C   0  0  0  0  0  0  0  0  0  0  0  0
    3.5863   -8.4388    4.0057 H   0  0  0  0  0  0  0  0  0  0  0  0
    2.8083   -6.1964    4.7475 H   0  0  0  0  0  0  0  0  0  0  0  0
    5.1349   -6.7824    0.5115 H   0  0  0  0  0  0  0  0  0  0  0  0
    4.0300   -1.8493    1.8978 H   0  0  0  0  0  0  0  0  0  0  0  0
    4.0525   -1.8046   -0.9269 H   0  0  0  0  0  0  0  0  0  0  0  0
    3.4699   -5.3890   -2.8514 H   0  0  0  0  0  0  0  0  0  0  0  0
    6.1172   -5.9198   -0.5354 H   0  0  0  0  0  0  0  0  0  0  0  0
    7.0192   -8.1334   -0.0004 H   0  0  0  0  0  0  0  0  0  0  0  0
    9.0568   -9.4707    0.1530 H   0  0  0  0  0  0  0  0  0  0  0  0
    9.3931   -4.5250    0.0670 H   0  0  0  0  0  0  0  0  0  0  0  0
   11.6498   -4.5633    0.1458 H   0  0  0  0  0  0  0  0  0  0  0  0
   13.7116   -5.8061   -0.3572 H   0  0  0  0  0  0  0  0  0  0  0  0
   13.6247   -8.2828   -0.6234 H   0  0  0  0  0  0  0  0  0  0  0  0
   11.5920   -9.5290    0.0650 H   0  0  0  0  0  0  0  0  0  0  0  0
  1  2  1  0  0  0  0
  2  3  2  0  0  0  0
  2  7  1  0  0  0  0
  3  4  1  0  0  0  0
  3 30  1  0  0  0  0
  4  5  2  0  0  0  0
  4 31  1  0  0  0  0
  5  6  1  0  0  0  0
  5 10  1  0  0  0  0
  6  7  2  0  0  0  0
  6  8  1  0  0  0  0
  7 32  1  0  0  0  0
  8  9  2  0  0  0  0
  9 10  1  0  0  0  0
  9 33  1  0  0  0  0
 11 13  1  0  0  0  0
 11 17  1  0  0  0  0
 11 12  1  6  0  0  0
 11  8  1  0  0  0  0
 13 14  2  0  0  0  0
 13 15  1  0  0  0  0
 13 16  1  0  0  0  0
 15 34  1  0  0  0  0
 16 35  1  0  0  0  0
 17 18  2  0  0  0  0
 17 19  1  0  0  0  0
 19 20  1  0  0  0  0
 19 36  1  0  0  0  0
 20 21  2  0  0  0  0
 20 25  1  0  0  0  0
 21 22  1  0  0  0  0
 21 37  1  0  0  0  0
 22 23  2  0  0  0  0
 22 38  1  0  0  0  0
 23 24  1  0  0  0  0
 23 29  1  0  0  0  0
 24 25  2  0  0  0  0
 24 26  1  0  0  0  0
 25 39  1  0  0  0  0
 26 27  2  0  0  0  0
 26 40  1  0  0  0  0
 27 28  1  0  0  0  0
 27 41  1  0  0  0  0
 28 29  2  0  0  0  0
 28 42  1  0  0  0  0
 29 43  1  0  0  0  0
M  END
$$$$
