DSK
 OpenBabel04121316103D

 47 47  0  0  1  0  0  0  0  0999 V2000
    0.4946   -0.5962   -6.0987 O   0  0  0  0  0  0  0  0  0  0  0  0
    1.5051   -1.5198   -6.4517 C   0  0  0  0  0  0  0  0  0  0  0  0
    2.7508   -1.3379   -5.5711 C   0  0  1  0  0  0  0  0  0  0  0  0
    3.4981   -0.7058   -6.0573 H   0  0  0  0  0  0  0  0  0  0  0  0
    2.3504   -0.7570   -4.1790 C   0  0  2  0  0  0  0  0  0  0  0  0
    1.2724   -0.5993   -4.1178 H   0  0  0  0  0  0  0  0  0  0  0  0
    2.9584    0.6264   -3.7883 C   0  0  2  0  0  0  0  0  0  0  0  0
    2.6835    0.7846   -2.7346 H   0  0  0  0  0  0  0  0  0  0  0  0
    2.3930    1.8312   -4.6034 C   0  0  1  0  0  0  0  0  0  0  0  0
    2.7921    2.7558   -4.1664 H   0  0  0  0  0  0  0  0  0  0  0  0
    2.8265    1.8326   -6.1074 C   0  0  1  0  0  0  0  0  0  0  0  0
    2.5262    0.9026   -6.5672 H   0  0  0  0  0  0  0  0  0  0  0  0
    2.2216    2.9154   -7.0422 C   0  0  0  0  0  0  0  0  0  0  0  0
    0.4176    2.9782   -6.9489 S   0  3  2  0  0  0  0  0  0  0  0  0
   -0.0056    1.4473   -7.7572 C   0  0  0  0  0  0  0  0  0  0  0  0
   -0.1127    1.5784   -9.2419 C   0  0  2  0  0  0  0  0  0  0  0  0
    0.8454    1.3308   -9.7126 H   0  0  0  0  0  0  0  0  0  0  0  0
   -0.5329    3.0101   -9.5347 C   0  0  1  0  0  0  0  0  0  0  0  0
   -1.6078    3.0524   -9.7450 H   0  0  0  0  0  0  0  0  0  0  0  0
   -0.1217    3.9412   -8.3690 C   0  0  1  0  0  0  0  0  0  0  0  0
    0.6582    4.6477   -8.6667 H   0  0  0  0  0  0  0  0  0  0  0  0
   -1.3590    4.7012   -7.8500 C   0  0  0  0  0  0  0  0  0  0  0  0
   -1.9151    5.5476   -8.8388 O   0  0  0  0  0  0  0  0  0  0  0  0
    0.1500    3.4265  -10.7277 O   0  0  0  0  0  0  0  0  0  0  0  0
   -1.0613    0.6267   -9.7359 O   0  0  0  0  0  0  0  0  0  0  0  0
    4.2599    1.8647   -6.2171 O   0  0  0  0  0  0  0  0  0  0  0  0
    0.9821    1.8491   -4.4253 O   0  0  0  0  0  0  0  0  0  0  0  0
    4.3880    0.6407   -3.8490 O   0  0  0  0  0  0  0  0  0  0  0  0
    2.5718   -1.7479   -3.1663 O   0  0  0  0  0  0  0  0  0  0  0  0
    3.3649   -2.6339   -5.4946 O   0  0  0  0  0  0  0  0  0  0  0  0
   -0.3200   -0.8036   -6.5540 H   0  0  0  0  0  0  0  0  0  0  0  0
    1.7648   -1.4085   -7.5117 H   0  0  0  0  0  0  0  0  0  0  0  0
    1.0704   -2.5088   -6.3099 H   0  0  0  0  0  0  0  0  0  0  0  0
    2.5512    2.7294   -8.0716 H   0  0  0  0  0  0  0  0  0  0  0  0
    2.6245    3.8911   -6.7526 H   0  0  0  0  0  0  0  0  0  0  0  0
   -0.9378    1.0853   -7.3120 H   0  0  0  0  0  0  0  0  0  0  0  0
    0.8002    0.7475   -7.6251 H   0  0  0  0  0  0  0  0  0  0  0  0
   -1.1007    5.3141   -6.9776 H   0  0  0  0  0  0  0  0  0  0  0  0
   -2.1390    3.9999   -7.5203 H   0  0  0  0  0  0  0  0  0  0  0  0
   -1.1962    6.1105   -9.1703 H   0  0  0  0  0  0  0  0  0  0  0  0
    1.1009    3.2765  -10.5869 H   0  0  0  0  0  0  0  0  0  0  0  0
   -0.7306   -0.2660   -9.5356 H   0  0  0  0  0  0  0  0  0  0  0  0
    4.6150    1.1891   -5.5951 H   0  0  0  0  0  0  0  0  0  0  0  0
    0.7645    2.0068   -3.4946 H   0  0  0  0  0  0  0  0  0  0  0  0
    4.6738    1.4311   -3.3502 H   0  0  0  0  0  0  0  0  0  0  0  0
    2.3230   -2.5881   -3.6023 H   0  0  0  0  0  0  0  0  0  0  0  0
    3.7004   -2.8288   -6.3907 H   0  0  0  0  0  0  0  0  0  0  0  0
  1  2  1  0  0  0  0
  1 31  1  0  0  0  0
  2  3  1  0  0  0  0
  2 32  1  0  0  0  0
  2 33  1  0  0  0  0
  3  4  1  6  0  0  0
  3 30  1  0  0  0  0
  5 29  1  0  0  0  0
  5  6  1  6  0  0  0
  5  3  1  0  0  0  0
  7  9  1  0  0  0  0
  7 28  1  0  0  0  0
  7  8  1  1  0  0  0
  7  5  1  0  0  0  0
  9 10  1  1  0  0  0
  9 11  1  0  0  0  0
  9 27  1  0  0  0  0
 11 12  1  6  0  0  0
 11 13  1  0  0  0  0
 11 26  1  0  0  0  0
 13 34  1  0  0  0  0
 13 35  1  0  0  0  0
 14 13  1  6  0  0  0
 14 15  1  0  0  0  0
 14 20  1  0  0  0  0
 15 16  1  0  0  0  0
 15 36  1  0  0  0  0
 15 37  1  0  0  0  0
 16 17  1  6  0  0  0
 16 18  1  0  0  0  0
 16 25  1  0  0  0  0
 18 20  1  0  0  0  0
 18 24  1  0  0  0  0
 18 19  1  6  0  0  0
 20 21  1  6  0  0  0
 20 22  1  0  0  0  0
 22 23  1  0  0  0  0
 22 38  1  0  0  0  0
 22 39  1  0  0  0  0
 23 40  1  0  0  0  0
 24 41  1  0  0  0  0
 25 42  1  0  0  0  0
 26 43  1  0  0  0  0
 27 44  1  0  0  0  0
 28 45  1  0  0  0  0
 29 46  1  0  0  0  0
 30 47  1  0  0  0  0
M  CHG  1  14   1
M  END
$$$$
