DSN
 OpenBabel04121316103D

 14 13  0  0  1  0  0  0  0  0999 V2000
    1.7007   -0.7374    2.3062 O   0  0  0  0  0  0  0  0  0  0  0  0
    2.2975   -1.8758    1.6847 C   0  0  0  0  0  0  0  0  0  0  0  0
    2.8444   -1.4698    0.3077 C   0  0  2  0  0  0  0  0  0  0  0  0
    2.4904   -0.4722    0.0210 H   0  0  0  0  0  0  0  0  0  0  0  0
    2.3743   -2.4517   -0.7753 C   0  0  0  0  0  0  0  0  0  0  0  0
    3.1396   -3.0931   -1.4891 O   0  0  0  0  0  0  0  0  0  0  0  0
    1.0320   -2.5416   -0.9161 O   0  0  0  0  0  0  0  0  0  0  0  0
    4.3308   -1.4154    0.3335 N   0  0  0  0  0  0  0  0  0  0  0  0
    1.5214   -0.9727    3.2335 H   0  0  0  0  0  0  0  0  0  0  0  0
    1.5224   -2.6448    1.6173 H   0  0  0  0  0  0  0  0  0  0  0  0
    3.0866   -2.2637    2.3398 H   0  0  0  0  0  0  0  0  0  0  0  0
    0.5133   -1.9562   -0.3290 H   0  0  0  0  0  0  0  0  0  0  0  0
    4.6489   -1.1771   -0.6097 H   0  0  0  0  0  0  0  0  0  0  0  0
    4.6802   -2.3681    0.4653 H   0  0  0  0  0  0  0  0  0  0  0  0
  1  2  1  0  0  0  0
  1  9  1  0  0  0  0
  2 10  1  0  0  0  0
  2 11  1  0  0  0  0
  3  5  1  0  0  0  0
  3  8  1  0  0  0  0
  3  4  1  6  0  0  0
  3  2  1  0  0  0  0
  5  6  2  0  0  0  0
  5  7  1  0  0  0  0
  7 12  1  0  0  0  0
  8 13  1  0  0  0  0
  8 14  1  0  0  0  0
M  END
$$$$
