DT1
 OpenBabel04121316103D

 50 53  0  0  0  0  0  0  0  0999 V2000
    1.0575    0.0603    0.0487 N   0  0  0  0  0  0  0  0  0  0  0  0
    2.7454    0.1986   -0.0083 S   0  0  0  0  0  0  0  0  0  0  0  0
    3.1218    0.0520   -1.3868 O   0  0  0  0  0  0  0  0  0  0  0  0
    3.0708    1.3643    0.7889 O   0  0  0  0  0  0  0  0  0  0  0  0
    3.2834   -1.2363    0.8529 C   0  0  0  0  0  0  0  0  0  0  0  0
    4.3027   -1.2598    1.8144 C   0  0  0  0  0  0  0  0  0  0  0  0
    4.7578   -2.4920    2.3495 C   0  0  0  0  0  0  0  0  0  0  0  0
    4.1430   -3.6932    1.9913 C   0  0  0  0  0  0  0  0  0  0  0  0
    3.0573   -3.5662    1.1024 C   0  0  0  0  0  0  0  0  0  0  0  0
    2.6453   -2.3955    0.5078 C   0  0  0  0  0  0  0  0  0  0  0  0
    4.5530   -4.9368    2.5533 N   0  0  0  0  0  0  0  0  0  0  0  0
    4.0031   -6.1918    2.2560 C   0  0  0  0  0  0  0  0  0  0  0  0
    2.7249   -6.3297    1.9028 C   0  0  0  0  0  0  0  0  0  0  0  0
    2.1901   -7.5971    1.4625 C   0  0  0  0  0  0  0  0  0  0  0  0
    0.9395   -7.4774    0.9456 O   0  0  0  0  0  0  0  0  0  0  0  0
    0.3044   -6.1944    0.5945 C   0  0  0  0  0  0  0  0  0  0  0  0
   -1.0516   -6.3961   -0.0994 C   0  0  0  0  0  0  0  0  0  0  0  0
   -1.2539   -5.4016   -1.2622 C   0  0  0  0  0  0  0  0  0  0  0  0
   -0.2791   -5.6763   -2.4092 C   0  0  0  0  0  0  0  0  0  0  0  0
   -0.3931   -7.1227   -2.8826 C   0  0  0  0  0  0  0  0  0  0  0  0
   -0.1989   -8.1087   -1.7352 C   0  0  0  0  0  0  0  0  0  0  0  0
   -1.1944   -7.8312   -0.6060 C   0  0  0  0  0  0  0  0  0  0  0  0
    2.8043   -8.7305    1.5737 N   0  0  0  0  0  0  0  0  0  0  0  0
    4.0611   -8.6503    2.1376 C   0  0  0  0  0  0  0  0  0  0  0  0
    4.6900   -7.4108    2.4398 N   0  0  0  0  0  0  0  0  0  0  0  0
    5.9072   -7.6448    2.9976 N   0  0  0  0  0  0  0  0  0  0  0  0
    5.9476   -8.9784    3.0167 C   0  0  0  0  0  0  0  0  0  0  0  0
    4.8642   -9.6250    2.5062 N   0  0  0  0  0  0  0  0  0  0  0  0
    0.6457    0.7807   -0.5488 H   0  0  0  0  0  0  0  0  0  0  0  0
    0.6913    0.0956    0.9984 H   0  0  0  0  0  0  0  0  0  0  0  0
    4.7611   -0.3323    2.1466 H   0  0  0  0  0  0  0  0  0  0  0  0
    5.6058   -2.4955    3.0321 H   0  0  0  0  0  0  0  0  0  0  0  0
    2.4445   -4.3659    0.7479 H   0  0  0  0  0  0  0  0  0  0  0  0
    1.8420   -2.4325   -0.2245 H   0  0  0  0  0  0  0  0  0  0  0  0
    5.4848   -4.9711    2.9683 H   0  0  0  0  0  0  0  0  0  0  0  0
    2.0380   -5.5306    2.0274 H   0  0  0  0  0  0  0  0  0  0  0  0
    0.9820   -5.6255   -0.0487 H   0  0  0  0  0  0  0  0  0  0  0  0
    0.1233   -5.6087    1.5038 H   0  0  0  0  0  0  0  0  0  0  0  0
   -1.8364   -6.1989    0.6440 H   0  0  0  0  0  0  0  0  0  0  0  0
   -1.1471   -4.3649   -0.9210 H   0  0  0  0  0  0  0  0  0  0  0  0
   -2.2798   -5.5008   -1.6440 H   0  0  0  0  0  0  0  0  0  0  0  0
    0.7515   -5.4833   -2.0906 H   0  0  0  0  0  0  0  0  0  0  0  0
   -0.4721   -4.9903   -3.2399 H   0  0  0  0  0  0  0  0  0  0  0  0
    0.3541   -7.3102   -3.6597 H   0  0  0  0  0  0  0  0  0  0  0  0
   -1.3825   -7.2805   -3.3258 H   0  0  0  0  0  0  0  0  0  0  0  0
    0.8357   -8.0241   -1.3814 H   0  0  0  0  0  0  0  0  0  0  0  0
   -0.3168   -9.1379   -2.0840 H   0  0  0  0  0  0  0  0  0  0  0  0
   -1.0469   -8.5368    0.2206 H   0  0  0  0  0  0  0  0  0  0  0  0
   -2.2175   -7.9920   -0.9617 H   0  0  0  0  0  0  0  0  0  0  0  0
    6.8028   -9.5088    3.4178 H   0  0  0  0  0  0  0  0  0  0  0  0
  1  2  1  0  0  0  0
  1 29  1  0  0  0  0
  1 30  1  0  0  0  0
  2  3  2  0  0  0  0
  2  4  2  0  0  0  0
  2  5  1  0  0  0  0
  5  6  2  0  0  0  0
  5 10  1  0  0  0  0
  6  7  1  0  0  0  0
  6 31  1  0  0  0  0
  7  8  2  0  0  0  0
  7 32  1  0  0  0  0
  8  9  1  0  0  0  0
  8 11  1  0  0  0  0
  9 10  2  0  0  0  0
  9 33  1  0  0  0  0
 10 34  1  0  0  0  0
 11 12  1  0  0  0  0
 11 35  1  0  0  0  0
 12 13  2  0  0  0  0
 12 25  1  0  0  0  0
 13 14  1  0  0  0  0
 13 36  1  0  0  0  0
 14 15  1  0  0  0  0
 14 23  2  0  0  0  0
 15 16  1  0  0  0  0
 16 17  1  0  0  0  0
 16 37  1  0  0  0  0
 16 38  1  0  0  0  0
 17 18  1  0  0  0  0
 17 22  1  0  0  0  0
 17 39  1  0  0  0  0
 18 19  1  0  0  0  0
 18 40  1  0  0  0  0
 18 41  1  0  0  0  0
 19 20  1  0  0  0  0
 19 42  1  0  0  0  0
 19 43  1  0  0  0  0
 20 21  1  0  0  0  0
 20 44  1  0  0  0  0
 20 45  1  0  0  0  0
 21 22  1  0  0  0  0
 21 46  1  0  0  0  0
 21 47  1  0  0  0  0
 22 48  1  0  0  0  0
 22 49  1  0  0  0  0
 23 24  1  0  0  0  0
 24 25  1  0  0  0  0
 24 28  2  0  0  0  0
 25 26  1  0  0  0  0
 26 27  2  0  0  0  0
 27 28  1  0  0  0  0
 27 50  1  0  0  0  0
M  END
$$$$
