DT3
 OpenBabel04121316103D

 20 19  0  0  1  0  0  0  0  0999 V2000
    1.9886   -2.2458    1.0497 S   0  0  0  0  0  0  0  0  0  0  0  0
    2.8260   -2.2911   -0.5872 C   0  0  0  0  0  0  0  0  0  0  0  0
    3.3053   -0.8643   -0.9259 C   0  0  2  0  0  0  0  0  0  0  0  0
    2.7463   -0.1541   -0.3097 H   0  0  0  0  0  0  0  0  0  0  0  0
    2.9610   -0.4773   -2.3810 C   0  0  1  0  0  0  0  0  0  0  0  0
    3.3031    0.5459   -2.5698 H   0  0  0  0  0  0  0  0  0  0  0  0
    3.4797   -1.4107   -3.4725 C   0  0  0  0  0  0  0  0  0  0  0  0
    5.2490   -1.4457   -3.6141 S   0  0  0  0  0  0  0  0  0  0  0  0
    5.6010   -0.0350   -3.6737 O   0  0  0  0  0  0  0  0  0  0  0  0
    5.6956   -2.1278   -2.4037 O   0  0  0  0  0  0  0  0  0  0  0  0
    5.4759   -2.2091   -4.8410 O   0  5  0  0  0  0  0  0  0  0  0  0
    1.5091   -0.4342   -2.4841 O   0  0  0  0  0  0  0  0  0  0  0  0
    4.6435   -0.6206   -0.5101 O   0  0  0  0  0  0  0  0  0  0  0  0
    1.5708   -3.5138    1.0726 H   0  0  0  0  0  0  0  0  0  0  0  0
    2.0760   -2.6522   -1.3030 H   0  0  0  0  0  0  0  0  0  0  0  0
    3.6414   -3.0224   -0.5706 H   0  0  0  0  0  0  0  0  0  0  0  0
    3.0955   -1.0642   -4.4401 H   0  0  0  0  0  0  0  0  0  0  0  0
    3.1157   -2.4353   -3.3517 H   0  0  0  0  0  0  0  0  0  0  0  0
    1.1848    0.1033   -1.7376 H   0  0  0  0  0  0  0  0  0  0  0  0
    5.1561   -0.2410   -1.2541 H   0  0  0  0  0  0  0  0  0  0  0  0
  1  2  1  0  0  0  0
  1 14  1  0  0  0  0
  2 15  1  0  0  0  0
  2 16  1  0  0  0  0
  3  5  1  0  0  0  0
  3 13  1  0  0  0  0
  3  4  1  1  0  0  0
  3  2  1  0  0  0  0
  5  6  1  6  0  0  0
  5  7  1  0  0  0  0
  5 12  1  0  0  0  0
  7  8  1  0  0  0  0
  7 17  1  0  0  0  0
  7 18  1  0  0  0  0
  8  9  2  0  0  0  0
  8 10  2  0  0  0  0
  8 11  1  0  0  0  0
 12 19  1  0  0  0  0
 13 20  1  0  0  0  0
M  CHG  1  11  -1
M  END
$$$$
