DT5
 OpenBabel04121316103D

 47 50  0  0  0  0  0  0  0  0999 V2000
    1.2364   -0.0996   -0.0386 N   0  0  0  0  0  0  0  0  0  0  0  0
    2.9253    0.0407    0.0390 S   0  0  0  0  0  0  0  0  0  0  0  0
    3.2366    1.3984   -0.3962 O   0  0  0  0  0  0  0  0  0  0  0  0
    3.2706   -0.4317    1.3477 O   0  0  0  0  0  0  0  0  0  0  0  0
    3.5792   -1.0897   -1.1764 C   0  0  0  0  0  0  0  0  0  0  0  0
    3.8384   -0.7617   -2.4997 C   0  0  0  0  0  0  0  0  0  0  0  0
    4.0184   -1.7955   -3.4712 C   0  0  0  0  0  0  0  0  0  0  0  0
    4.2048   -3.1388   -3.1055 C   0  0  0  0  0  0  0  0  0  0  0  0
    4.4508   -3.3084   -1.7273 C   0  0  0  0  0  0  0  0  0  0  0  0
    3.9650   -2.3564   -0.7752 C   0  0  0  0  0  0  0  0  0  0  0  0
    3.9154   -4.2273   -4.0373 N   0  0  0  0  0  0  0  0  0  0  0  0
    3.8187   -5.6384   -3.8076 C   0  0  0  0  0  0  0  0  0  0  0  0
    3.0735   -6.2293   -2.8827 C   0  0  0  0  0  0  0  0  0  0  0  0
    3.0809   -7.5740   -2.4155 C   0  0  0  0  0  0  0  0  0  0  0  0
    2.5109   -7.6542   -1.1558 O   0  0  0  0  0  0  0  0  0  0  0  0
    1.7328   -6.6208   -0.3009 C   0  0  0  0  0  0  0  0  0  0  0  0
    2.2635   -5.1818   -0.1232 C   0  0  0  0  0  0  0  0  0  0  0  0
    1.8631   -4.2642   -1.2737 C   0  0  0  0  0  0  0  0  0  0  0  0
    0.6337   -4.4591   -2.1305 C   0  0  0  0  0  0  0  0  0  0  0  0
    0.0376   -5.8628   -2.0951 C   0  0  0  0  0  0  0  0  0  0  0  0
    0.2512   -6.4947   -0.7206 C   0  0  0  0  0  0  0  0  0  0  0  0
    3.6018   -8.5129   -3.1428 N   0  0  0  0  0  0  0  0  0  0  0  0
    4.1171   -8.0439   -4.3611 C   0  0  0  0  0  0  0  0  0  0  0  0
    4.2795   -6.6388   -4.6806 N   0  0  0  0  0  0  0  0  0  0  0  0
    4.7834   -6.5094   -5.9269 N   0  0  0  0  0  0  0  0  0  0  0  0
    4.9500   -7.7804   -6.2844 C   0  0  0  0  0  0  0  0  0  0  0  0
    4.5493   -8.7331   -5.3955 N   0  0  0  0  0  0  0  0  0  0  0  0
    0.8309    0.6626    0.5205 H   0  0  0  0  0  0  0  0  0  0  0  0
    0.9006   -0.9911    0.3293 H   0  0  0  0  0  0  0  0  0  0  0  0
    3.8838    0.2832   -2.7927 H   0  0  0  0  0  0  0  0  0  0  0  0
    4.0089   -1.5180   -4.5210 H   0  0  0  0  0  0  0  0  0  0  0  0
    4.7056   -4.2914   -1.3393 H   0  0  0  0  0  0  0  0  0  0  0  0
    3.6595   -2.6966    0.2218 H   0  0  0  0  0  0  0  0  0  0  0  0
    4.0123   -3.9700   -5.0185 H   0  0  0  0  0  0  0  0  0  0  0  0
    2.1689   -5.8454   -2.5889 H   0  0  0  0  0  0  0  0  0  0  0  0
    1.7856   -7.0477    0.7117 H   0  0  0  0  0  0  0  0  0  0  0  0
    3.3505   -5.2273    0.0466 H   0  0  0  0  0  0  0  0  0  0  0  0
    1.8519   -4.6807    0.7605 H   0  0  0  0  0  0  0  0  0  0  0  0
    2.6970   -4.4162   -1.9010 H   0  0  0  0  0  0  0  0  0  0  0  0
    1.9198   -3.1987   -1.1330 H   0  0  0  0  0  0  0  0  0  0  0  0
    0.8739   -4.1648   -3.1690 H   0  0  0  0  0  0  0  0  0  0  0  0
   -0.0709   -3.7266   -1.7481 H   0  0  0  0  0  0  0  0  0  0  0  0
    0.4462   -6.5352   -2.8630 H   0  0  0  0  0  0  0  0  0  0  0  0
   -1.0111   -5.7734   -2.3772 H   0  0  0  0  0  0  0  0  0  0  0  0
   -0.2170   -7.4753   -0.6934 H   0  0  0  0  0  0  0  0  0  0  0  0
   -0.2592   -5.8405    0.0023 H   0  0  0  0  0  0  0  0  0  0  0  0
    5.3940   -8.0237   -7.2386 H   0  0  0  0  0  0  0  0  0  0  0  0
  1  2  1  0  0  0  0
  1 28  1  0  0  0  0
  1 29  1  0  0  0  0
  2  3  2  0  0  0  0
  2  4  2  0  0  0  0
  2  5  1  0  0  0  0
  5  6  2  0  0  0  0
  5 10  1  0  0  0  0
  6  7  1  0  0  0  0
  6 30  1  0  0  0  0
  7  8  2  0  0  0  0
  7 31  1  0  0  0  0
  8  9  1  0  0  0  0
  8 11  1  0  0  0  0
  9 10  2  0  0  0  0
  9 32  1  0  0  0  0
 10 33  1  0  0  0  0
 11 12  1  0  0  0  0
 11 34  1  0  0  0  0
 12 13  2  0  0  0  0
 12 24  1  0  0  0  0
 13 14  1  0  0  0  0
 13 35  1  0  0  0  0
 14 15  1  0  0  0  0
 14 22  2  0  0  0  0
 15 16  1  0  0  0  0
 16 17  1  0  0  0  0
 16 21  1  0  0  0  0
 16 36  1  0  0  0  0
 17 18  1  0  0  0  0
 17 37  1  0  0  0  0
 17 38  1  0  0  0  0
 18 19  1  0  0  0  0
 18 39  1  0  0  0  0
 18 40  1  0  0  0  0
 19 20  1  0  0  0  0
 19 41  1  0  0  0  0
 19 42  1  0  0  0  0
 20 21  1  0  0  0  0
 20 43  1  0  0  0  0
 20 44  1  0  0  0  0
 21 45  1  0  0  0  0
 21 46  1  0  0  0  0
 22 23  1  0  0  0  0
 23 24  1  0  0  0  0
 23 27  2  0  0  0  0
 24 25  1  0  0  0  0
 25 26  2  0  0  0  0
 26 27  1  0  0  0  0
 26 47  1  0  0  0  0
M  END
$$$$
