DTR
 OpenBabel04121316113D

 27 28  0  0  1  0  0  0  0  0999 V2000
    1.1290   -0.3309    0.1447 O   0  0  0  0  0  0  0  0  0  0  0  0
    2.4478   -0.0623    0.1167 C   0  0  0  0  0  0  0  0  0  0  0  0
    2.9674    0.6191    0.9954 O   0  0  0  0  0  0  0  0  0  0  0  0
    3.1923   -0.8103   -1.0014 C   0  0  1  0  0  0  0  0  0  0  0  0
    2.9401   -1.8712   -0.8871 H   0  0  0  0  0  0  0  0  0  0  0  0
    2.8170   -0.3089   -2.4022 C   0  0  0  0  0  0  0  0  0  0  0  0
    1.3611   -0.4694   -2.6955 C   0  0  0  0  0  0  0  0  0  0  0  0
    0.6770   -1.6653   -2.7877 C   0  0  0  0  0  0  0  0  0  0  0  0
   -0.6516   -1.3837   -2.9476 N   0  0  0  0  0  0  0  0  0  0  0  0
   -1.3853   -2.0748   -3.0128 H   0  0  0  0  0  0  0  0  0  0  0  0
   -0.8517   -0.0221   -2.9695 C   0  0  0  0  0  0  0  0  0  0  0  0
    0.3963    0.5789   -2.8089 C   0  0  0  0  0  0  0  0  0  0  0  0
    0.4700    1.9856   -2.7493 C   0  0  0  0  0  0  0  0  0  0  0  0
   -0.6962    2.7419   -2.8913 C   0  0  0  0  0  0  0  0  0  0  0  0
   -1.9265    2.1151   -3.0710 C   0  0  0  0  0  0  0  0  0  0  0  0
   -2.0308    0.7200   -3.1039 C   0  0  0  0  0  0  0  0  0  0  0  0
    4.6624   -0.6873   -0.8046 N   0  0  0  0  0  0  0  0  0  0  0  0
    0.7498    0.0735    0.9477 H   0  0  0  0  0  0  0  0  0  0  0  0
    3.3817   -0.8692   -3.1598 H   0  0  0  0  0  0  0  0  0  0  0  0
    3.1080    0.7431   -2.5148 H   0  0  0  0  0  0  0  0  0  0  0  0
    1.0246   -2.6865   -2.6987 H   0  0  0  0  0  0  0  0  0  0  0  0
    1.4228    2.4832   -2.5955 H   0  0  0  0  0  0  0  0  0  0  0  0
   -0.6363    3.8270   -2.8631 H   0  0  0  0  0  0  0  0  0  0  0  0
   -2.8218    2.7211   -3.1861 H   0  0  0  0  0  0  0  0  0  0  0  0
   -2.9937    0.2380   -3.2334 H   0  0  0  0  0  0  0  0  0  0  0  0
    4.8690   -0.9698    0.1560 H   0  0  0  0  0  0  0  0  0  0  0  0
    4.8990    0.3070   -0.8262 H   0  0  0  0  0  0  0  0  0  0  0  0
  1  2  1  0  0  0  0
  1 18  1  0  0  0  0
  2  3  2  0  0  0  0
  2  4  1  0  0  0  0
  4  5  1  1  0  0  0
  4  6  1  0  0  0  0
  4 17  1  0  0  0  0
  6  7  1  0  0  0  0
  6 19  1  0  0  0  0
  6 20  1  0  0  0  0
  7  8  2  0  0  0  0
  7 12  1  0  0  0  0
  8  9  1  0  0  0  0
  8 21  1  0  0  0  0
  9 10  1  0  0  0  0
  9 11  1  0  0  0  0
 11 12  2  0  0  0  0
 11 16  1  0  0  0  0
 12 13  1  0  0  0  0
 13 14  2  0  0  0  0
 13 22  1  0  0  0  0
 14 15  1  0  0  0  0
 14 23  1  0  0  0  0
 15 16  2  0  0  0  0
 15 24  1  0  0  0  0
 16 25  1  0  0  0  0
 17 26  1  0  0  0  0
 17 27  1  0  0  0  0
M  END
$$$$
