DTY
 OpenBabel04121316113D

 24 24  0  0  1  0  0  0  0  0999 V2000
    1.0730    0.2100   -0.1994 O   0  0  0  0  0  0  0  0  0  0  0  0
    2.4045    0.0347   -0.1519 C   0  0  0  0  0  0  0  0  0  0  0  0
    2.9481   -0.7596   -0.9134 O   0  0  0  0  0  0  0  0  0  0  0  0
    3.1196    0.9292    0.8775 C   0  0  1  0  0  0  0  0  0  0  0  0
    2.8595    1.9696    0.6494 H   0  0  0  0  0  0  0  0  0  0  0  0
    2.7493    0.5638    2.3302 C   0  0  0  0  0  0  0  0  0  0  0  0
    1.2749    0.7389    2.6117 C   0  0  0  0  0  0  0  0  0  0  0  0
    0.4368   -0.3837    2.6975 C   0  0  0  0  0  0  0  0  0  0  0  0
   -0.9488   -0.2281    2.6427 C   0  0  0  0  0  0  0  0  0  0  0  0
   -1.4914    1.0525    2.6332 C   0  0  0  0  0  0  0  0  0  0  0  0
   -0.6739    2.1743    2.6915 C   0  0  0  0  0  0  0  0  0  0  0  0
    0.7094    2.0208    2.6285 C   0  0  0  0  0  0  0  0  0  0  0  0
   -2.8371    1.2537    2.5444 O   0  0  0  0  0  0  0  0  0  0  0  0
    4.5931    0.7980    0.7059 N   0  0  0  0  0  0  0  0  0  0  0  0
    0.7186   -0.4570   -0.8194 H   0  0  0  0  0  0  0  0  0  0  0  0
    3.3113    1.1940    3.0326 H   0  0  0  0  0  0  0  0  0  0  0  0
    3.0444   -0.4722    2.5433 H   0  0  0  0  0  0  0  0  0  0  0  0
    0.8597   -1.3851    2.7277 H   0  0  0  0  0  0  0  0  0  0  0  0
   -1.5791   -1.1092    2.5850 H   0  0  0  0  0  0  0  0  0  0  0  0
   -1.1114    3.1663    2.7420 H   0  0  0  0  0  0  0  0  0  0  0  0
    1.3388    2.9036    2.5416 H   0  0  0  0  0  0  0  0  0  0  0  0
   -3.2675    0.3965    2.3947 H   0  0  0  0  0  0  0  0  0  0  0  0
    4.8101    0.9878   -0.2757 H   0  0  0  0  0  0  0  0  0  0  0  0
    4.8345   -0.1897    0.8199 H   0  0  0  0  0  0  0  0  0  0  0  0
  1  2  1  0  0  0  0
  1 15  1  0  0  0  0
  2  3  2  0  0  0  0
  2  4  1  0  0  0  0
  4  5  1  6  0  0  0
  4  6  1  0  0  0  0
  4 14  1  0  0  0  0
  6  7  1  0  0  0  0
  6 16  1  0  0  0  0
  6 17  1  0  0  0  0
  7  8  2  0  0  0  0
  7 12  1  0  0  0  0
  8  9  1  0  0  0  0
  8 18  1  0  0  0  0
  9 10  2  0  0  0  0
  9 19  1  0  0  0  0
 10 11  1  0  0  0  0
 10 13  1  0  0  0  0
 11 12  2  0  0  0  0
 11 20  1  0  0  0  0
 12 21  1  0  0  0  0
 13 22  1  0  0  0  0
 14 23  1  0  0  0  0
 14 24  1  0  0  0  0
M  END
$$$$
