DTZ
 OpenBabel04121316113D

  5  4  0  0  0  0  0  0  0  0999 V2000
    1.0656   -0.0293   -0.0695 S   0  0  0  0  0  0  0  0  0  0  0  0
    3.3356   -0.0293   -0.0695 Zn  0  0  0  0  0  0  0  0  0  0  0  0
      -nan      -nan      -nan S   0  0  0  0  0  0  0  0  0  0  0  0
    0.0000    0.0000    0.0000 H   0  0  0  0  0  0  0  0  0  0  0  0
    0.0000    0.0000    0.0000 H   0  0  0  0  0  0  0  0  0  0  0  0
  1  2  1  0  0  0  0
  1  4  1  0  0  0  0
  2  3  1  0  0  0  0
  3  5  1  0  0  0  0
M  END
$$$$
