DUC
 OpenBabel04121316113D

 14 14  0  0  0  0  0  0  0  0999 V2000
    1.0426    0.1428    0.1387 O   0  0  0  0  0  0  0  0  0  0  0  0
    2.2484    0.0470    0.0364 C   0  0  0  0  0  0  0  0  0  0  0  0
    2.9875   -1.2709    0.0147 C   0  0  0  0  0  0  0  0  0  0  0  0
    3.9229   -1.2586   -1.1706 C   0  0  0  0  0  0  0  0  0  0  0  0
    4.7137   -0.0505   -1.1432 N   0  0  0  0  0  0  0  0  0  0  0  0
    4.0402    1.1377   -1.0273 C   0  0  0  0  0  0  0  0  0  0  0  0
    4.2857    2.1131   -1.7301 O   0  0  0  0  0  0  0  0  0  0  0  0
    3.0735    1.1386   -0.0667 N   0  0  0  0  0  0  0  0  0  0  0  0
    2.2843   -2.1058   -0.0340 H   0  0  0  0  0  0  0  0  0  0  0  0
    3.5547   -1.3387    0.9494 H   0  0  0  0  0  0  0  0  0  0  0  0
    3.3526   -1.2676   -2.1100 H   0  0  0  0  0  0  0  0  0  0  0  0
    4.5982   -2.1182   -1.1673 H   0  0  0  0  0  0  0  0  0  0  0  0
    5.5985   -0.0156   -1.6341 H   0  0  0  0  0  0  0  0  0  0  0  0
    2.6138    2.0288    0.0434 H   0  0  0  0  0  0  0  0  0  0  0  0
  1  2  2  0  0  0  0
  2  3  1  0  0  0  0
  2  8  1  0  0  0  0
  3  4  1  0  0  0  0
  3  9  1  0  0  0  0
  3 10  1  0  0  0  0
  4  5  1  0  0  0  0
  4 11  1  0  0  0  0
  4 12  1  0  0  0  0
  5  6  1  0  0  0  0
  5 13  1  0  0  0  0
  6  7  2  0  0  0  0
  6  8  1  0  0  0  0
  8 14  1  0  0  0  0
M  END
$$$$
