DUD
 OpenBabel04121316113D

 38 39  0  0  1  0  0  0  0  0999 V2000
    1.0458    0.1147    0.1506 O   0  0  0  0  0  0  0  0  0  0  0  0
    2.4474    0.0856    0.2223 C   0  0  1  0  0  0  0  0  0  0  0  0
    2.8759    0.1939   -0.7454 H   0  0  0  0  0  0  0  0  0  0  0  0
    3.0398    1.2249    0.9923 C   0  0  0  0  0  0  0  0  0  0  0  0
    4.4449    0.6811    1.2393 C   0  0  1  0  0  0  0  0  0  0  0  0
    4.8724    1.1288    2.1430 H   0  0  0  0  0  0  0  0  0  0  0  0
    4.2478   -0.7402    1.4609 O   0  0  0  0  0  0  0  0  0  0  0  0
    3.0387   -1.1835    0.7865 C   0  0  2  0  0  0  0  0  0  0  0  0
    2.3607   -1.6400    1.5173 H   0  0  0  0  0  0  0  0  0  0  0  0
    3.3457   -2.2259   -0.3350 C   0  0  0  0  0  0  0  0  0  0  0  0
    2.2190   -2.6075   -1.1443 O   0  0  0  0  0  0  0  0  0  0  0  0
    2.6315   -3.7786   -2.3490 P   0  0  1  0  0  0  0  0  0  0  0  0
    1.1812   -4.2435   -2.4235 O   0  0  0  0  0  0  0  0  0  0  0  0
    2.8201   -2.4940   -3.3806 O   0  0  0  0  0  0  0  0  0  0  0  0
    2.0273   -1.0850   -3.4249 P   0  0  0  0  0  0  0  0  0  0  0  0
    1.7381   -0.5348   -4.7796 O   0  0  0  0  0  0  0  0  0  0  0  0
    0.7198   -1.2372   -2.5182 O   0  0  0  0  0  0  0  0  0  0  0  0
    2.8864    0.0397   -2.6584 O   0  0  0  0  0  0  0  0  0  0  0  0
    3.0441   -4.9497   -3.5536 O   0  0  0  0  0  0  0  0  0  0  0  0
    5.3972    0.9580    0.1184 N   0  0  0  0  0  0  0  0  0  0  0  0
    5.6262    2.2850   -0.2503 C   0  0  0  0  0  0  0  0  0  0  0  0
    6.2971    2.6174   -1.3563 C   0  0  0  0  0  0  0  0  0  0  0  0
    6.9017    1.5524   -2.1767 C   0  0  0  0  0  0  0  0  0  0  0  0
    7.4086    1.7778   -3.2471 O   0  0  0  0  0  0  0  0  0  0  0  0
    6.8534    0.3118   -1.6051 N   0  0  0  0  0  0  0  0  0  0  0  0
    7.2931   -0.4385   -2.1121 H   0  0  0  0  0  0  0  0  0  0  0  0
    6.0838   -0.0627   -0.5396 C   0  0  0  0  0  0  0  0  0  0  0  0
    6.0504   -1.2638   -0.2774 O   0  0  0  0  0  0  0  0  0  0  0  0
    0.7979    0.7779   -0.5195 H   0  0  0  0  0  0  0  0  0  0  0  0
    2.4754    1.3861    1.9153 H   0  0  0  0  0  0  0  0  0  0  0  0
    2.9973    2.1560    0.4137 H   0  0  0  0  0  0  0  0  0  0  0  0
    3.7918   -3.1247    0.1056 H   0  0  0  0  0  0  0  0  0  0  0  0
    4.0680   -1.8274   -1.0447 H   0  0  0  0  0  0  0  0  0  0  0  0
    0.8666   -1.8530   -1.7603 H   0  0  0  0  0  0  0  0  0  0  0  0
    2.7086    0.9515   -2.9855 H   0  0  0  0  0  0  0  0  0  0  0  0
    2.5474   -5.7649   -3.3478 H   0  0  0  0  0  0  0  0  0  0  0  0
    5.2156    3.0647    0.3875 H   0  0  0  0  0  0  0  0  0  0  0  0
    6.4380    3.6324   -1.7059 H   0  0  0  0  0  0  0  0  0  0  0  0
  1  2  1  0  0  0  0
  1 29  1  0  0  0  0
  2  3  1  6  0  0  0
  2  4  1  0  0  0  0
  2  8  1  0  0  0  0
  4  5  1  0  0  0  0
  4 30  1  0  0  0  0
  4 31  1  0  0  0  0
  5  6  1  1  0  0  0
  5  7  1  0  0  0  0
  5 20  1  0  0  0  0
  7  8  1  0  0  0  0
  8  9  1  1  0  0  0
  8 10  1  0  0  0  0
 10 11  1  0  0  0  0
 10 32  1  0  0  0  0
 10 33  1  0  0  0  0
 12 11  1  1  0  0  0
 12 13  2  0  0  0  0
 12 14  1  0  0  0  0
 12 19  1  0  0  0  0
 14 15  1  0  0  0  0
 15 16  2  0  0  0  0
 15 17  1  0  0  0  0
 15 18  1  0  0  0  0
 17 34  1  0  0  0  0
 18 35  1  0  0  0  0
 19 36  1  0  0  0  0
 20 21  1  0  0  0  0
 20 27  1  0  0  0  0
 21 22  2  0  0  0  0
 21 37  1  0  0  0  0
 22 23  1  0  0  0  0
 22 38  1  0  0  0  0
 23 24  2  0  0  0  0
 23 25  1  0  0  0  0
 25 26  1  0  0  0  0
 25 27  1  0  0  0  0
 27 28  2  0  0  0  0
M  END
$$$$
