DUN
 OpenBabel04121316113D

 39 40  0  0  1  0  0  0  0  0999 V2000
    0.5940    0.2933    0.2481 O   0  0  0  0  0  0  0  0  0  0  0  0
    2.0051    0.1238    0.2534 C   0  0  1  0  0  0  0  0  0  0  0  0
    2.2309    0.0734   -0.8171 H   0  0  0  0  0  0  0  0  0  0  0  0
    2.7920    1.2965    0.9468 C   0  0  0  0  0  0  0  0  0  0  0  0
    4.2087    0.8087    1.4327 C   0  0  1  0  0  0  0  0  0  0  0  0
    4.5214    1.1717    2.4151 H   0  0  0  0  0  0  0  0  0  0  0  0
    3.8967   -0.7121    1.5596 O   0  0  0  0  0  0  0  0  0  0  0  0
    2.4597   -1.1301    1.0332 C   0  0  2  0  0  0  0  0  0  0  0  0
    1.8535   -1.3209    1.9268 H   0  0  0  0  0  0  0  0  0  0  0  0
    2.5270   -2.5828    0.2209 C   0  0  0  0  0  0  0  0  0  0  0  0
    2.1108   -2.6600   -1.1925 O   0  0  0  0  0  0  0  0  0  0  0  0
    2.5233   -3.8311   -2.3972 P   0  0  1  0  0  0  0  0  0  0  0  0
    1.3989   -3.3405   -3.3012 O   0  0  0  0  0  0  0  0  0  0  0  0
    4.0334   -2.9515   -2.7352 N   0  0  0  0  0  0  0  0  0  0  0  0
    4.1366   -1.5222   -1.6792 P   0  0  0  0  0  0  0  0  0  0  0  0
    5.0807   -2.3605   -0.8164 O   0  0  0  0  0  0  0  0  0  0  0  0
    5.3083   -1.0224   -2.6900 O   0  0  0  0  0  0  0  0  0  0  0  0
    4.2369   -0.1331   -0.6530 O   0  0  0  0  0  0  0  0  0  0  0  0
    2.9359   -5.0022   -3.6018 O   0  0  0  0  0  0  0  0  0  0  0  0
    5.5669    1.1775    0.4644 N   0  0  0  0  0  0  0  0  0  0  0  0
    5.5970    2.4350   -0.1508 C   0  0  0  0  0  0  0  0  0  0  0  0
    6.2042    2.6807   -1.3276 C   0  0  0  0  0  0  0  0  0  0  0  0
    6.8407    1.5879   -2.0573 C   0  0  0  0  0  0  0  0  0  0  0  0
    7.2059    1.7171   -3.2430 O   0  0  0  0  0  0  0  0  0  0  0  0
    7.0310    0.4718   -1.3163 N   0  0  0  0  0  0  0  0  0  0  0  0
    7.3065   -0.3328   -1.8679 H   0  0  0  0  0  0  0  0  0  0  0  0
    6.4769    0.1944   -0.0601 C   0  0  0  0  0  0  0  0  0  0  0  0
    6.6430   -0.9106    0.4425 O   0  0  0  0  0  0  0  0  0  0  0  0
    0.3842    0.8936   -0.4957 H   0  0  0  0  0  0  0  0  0  0  0  0
    2.2130    1.5344    1.8446 H   0  0  0  0  0  0  0  0  0  0  0  0
    2.8214    2.1943    0.3251 H   0  0  0  0  0  0  0  0  0  0  0  0
    2.6037   -3.5710    0.6973 H   0  0  0  0  0  0  0  0  0  0  0  0
    3.5780   -2.5433    0.2445 H   0  0  0  0  0  0  0  0  0  0  0  0
    3.9525   -2.6439   -3.6949 H   0  0  0  0  0  0  0  0  0  0  0  0
    5.9223   -1.7953   -2.5965 H   0  0  0  0  0  0  0  0  0  0  0  0
    4.4824   -0.6728    0.1480 H   0  0  0  0  0  0  0  0  0  0  0  0
    2.1134   -5.4617   -3.8573 H   0  0  0  0  0  0  0  0  0  0  0  0
    5.0868    3.2290    0.3682 H   0  0  0  0  0  0  0  0  0  0  0  0
    6.2096    3.6393   -1.8300 H   0  0  0  0  0  0  0  0  0  0  0  0
  1  2  1  0  0  0  0
  1 29  1  0  0  0  0
  2  3  1  6  0  0  0
  2  4  1  0  0  0  0
  2  8  1  0  0  0  0
  4  5  1  0  0  0  0
  4 30  1  0  0  0  0
  4 31  1  0  0  0  0
  5  6  1  1  0  0  0
  5  7  1  0  0  0  0
  5 20  1  0  0  0  0
  7  8  1  0  0  0  0
  8  9  1  1  0  0  0
  8 10  1  0  0  0  0
 10 11  1  0  0  0  0
 10 32  1  0  0  0  0
 10 33  1  0  0  0  0
 12 11  1  1  0  0  0
 12 13  2  0  0  0  0
 12 14  1  0  0  0  0
 12 19  1  0  0  0  0
 14 15  1  0  0  0  0
 14 34  1  0  0  0  0
 15 16  2  0  0  0  0
 15 17  1  0  0  0  0
 15 18  1  0  0  0  0
 17 35  1  0  0  0  0
 18 36  1  0  0  0  0
 19 37  1  0  0  0  0
 20 21  1  0  0  0  0
 20 27  1  0  0  0  0
 21 22  2  0  0  0  0
 21 38  1  0  0  0  0
 22 23  1  0  0  0  0
 22 39  1  0  0  0  0
 23 24  2  0  0  0  0
 23 25  1  0  0  0  0
 25 26  1  0  0  0  0
 25 27  1  0  0  0  0
 27 28  2  0  0  0  0
M  END
$$$$
