DUP
 OpenBabel04121316113D

 44 45  0  0  1  0  0  0  0  0999 V2000
    4.9854    5.1541   -4.0701 O   0  0  0  0  0  0  0  0  0  0  0  0
    4.8620    4.2122   -5.1248 C   0  0  1  0  0  0  0  0  0  0  0  0
    3.8156    4.1752   -5.4498 H   0  0  0  0  0  0  0  0  0  0  0  0
    5.7757    4.5772   -6.2731 C   0  0  0  0  0  0  0  0  0  0  0  0
    5.9803    3.2354   -6.9678 C   0  0  1  0  0  0  0  0  0  0  0  0
    6.9137    3.2152   -7.5412 H   0  0  0  0  0  0  0  0  0  0  0  0
    6.1023    2.3114   -5.8797 O   0  0  0  0  0  0  0  0  0  0  0  0
    5.3780    2.8294   -4.7365 C   0  0  2  0  0  0  0  0  0  0  0  0
    6.0714    2.8970   -3.8889 H   0  0  0  0  0  0  0  0  0  0  0  0
    4.2616    1.8534   -4.3939 C   0  0  0  0  0  0  0  0  0  0  0  0
    3.5006    2.2483   -3.2993 O   0  0  0  0  0  0  0  0  0  0  0  0
    2.4785    1.1800   -2.6093 P   0  0  2  0  0  0  0  0  0  0  0  0
    3.3928    0.9946   -1.3788 O   0  0  0  0  0  0  0  0  0  0  0  0
    2.7427   -0.4405   -3.0286 N   0  0  0  0  0  0  0  0  0  0  0  0
    3.9356   -1.2468   -1.9517 P   0  0  2  0  0  0  0  0  0  0  0  0
    3.9205   -2.5487   -2.7821 O   0  0  0  0  0  0  0  0  0  0  0  0
    3.0865   -2.0763   -0.6834 O   0  0  0  0  0  0  0  0  0  0  0  0
    2.6981   -3.6494   -0.9401 P   0  0  0  0  0  0  0  0  0  0  0  0
    2.1485   -3.9212   -2.3027 O   0  0  0  0  0  0  0  0  0  0  0  0
    4.3082   -3.8790   -0.6235 O   0  0  0  0  0  0  0  0  0  0  0  0
    2.7185   -5.1838   -0.4932 O   0  0  0  0  0  0  0  0  0  0  0  0
    3.9525    0.2117   -1.0215 O   0  0  0  0  0  0  0  0  0  0  0  0
    1.4541    1.3878   -3.9879 O   0  0  0  0  0  0  0  0  0  0  0  0
    4.8785    2.8913   -7.9015 N   0  0  0  0  0  0  0  0  0  0  0  0
    4.6282    3.7642   -8.9570 C   0  0  0  0  0  0  0  0  0  0  0  0
    3.5257    3.6865   -9.7013 C   0  0  0  0  0  0  0  0  0  0  0  0
    2.5725    2.5871   -9.4591 C   0  0  0  0  0  0  0  0  0  0  0  0
    1.5012    2.5395  -10.0070 O   0  0  0  0  0  0  0  0  0  0  0  0
    3.0266    1.6331   -8.5886 N   0  0  0  0  0  0  0  0  0  0  0  0
    2.4339    0.8357   -8.4293 H   0  0  0  0  0  0  0  0  0  0  0  0
    4.1149    1.7333   -7.7701 C   0  0  0  0  0  0  0  0  0  0  0  0
    4.3054    0.8064   -6.9838 O   0  0  0  0  0  0  0  0  0  0  0  0
    4.5699    5.9834   -4.3601 H   0  0  0  0  0  0  0  0  0  0  0  0
    6.7305    4.9462   -5.8757 H   0  0  0  0  0  0  0  0  0  0  0  0
    5.3609    5.3707   -6.8996 H   0  0  0  0  0  0  0  0  0  0  0  0
    4.7023    0.8741   -4.2005 H   0  0  0  0  0  0  0  0  0  0  0  0
    3.5468    1.7806   -5.2053 H   0  0  0  0  0  0  0  0  0  0  0  0
    3.1366   -0.5482   -3.9509 H   0  0  0  0  0  0  0  0  0  0  0  0
    4.5033   -3.7136    0.3289 H   0  0  0  0  0  0  0  0  0  0  0  0
    2.8162   -5.5531   -1.4348 H   0  0  0  0  0  0  0  0  0  0  0  0
    4.4843    0.1976   -0.2225 H   0  0  0  0  0  0  0  0  0  0  0  0
    0.8056    0.6578   -3.9831 H   0  0  0  0  0  0  0  0  0  0  0  0
    5.3622    4.5454   -9.1454 H   0  0  0  0  0  0  0  0  0  0  0  0
    3.2691    4.3896  -10.4822 H   0  0  0  0  0  0  0  0  0  0  0  0
  1  2  1  0  0  0  0
  1 33  1  0  0  0  0
  2  3  1  6  0  0  0
  2  4  1  0  0  0  0
  2  8  1  0  0  0  0
  4  5  1  0  0  0  0
  4 34  1  0  0  0  0
  4 35  1  0  0  0  0
  5  6  1  6  0  0  0
  5  7  1  0  0  0  0
  5 24  1  0  0  0  0
  7  8  1  0  0  0  0
  8  9  1  1  0  0  0
  8 10  1  0  0  0  0
 10 11  1  0  0  0  0
 10 36  1  0  0  0  0
 10 37  1  0  0  0  0
 12 14  1  6  0  0  0
 12 23  1  0  0  0  0
 12 13  2  0  0  0  0
 12 11  1  0  0  0  0
 14 38  1  0  0  0  0
 15 17  1  1  0  0  0
 15 22  1  0  0  0  0
 15 16  2  0  0  0  0
 15 14  1  0  0  0  0
 17 18  1  0  0  0  0
 18 19  2  0  0  0  0
 18 20  1  0  0  0  0
 18 21  1  0  0  0  0
 20 39  1  0  0  0  0
 21 40  1  0  0  0  0
 22 41  1  0  0  0  0
 23 42  1  0  0  0  0
 24 25  1  0  0  0  0
 24 31  1  0  0  0  0
 25 26  2  0  0  0  0
 25 43  1  0  0  0  0
 26 27  1  0  0  0  0
 26 44  1  0  0  0  0
 27 28  2  0  0  0  0
 27 29  1  0  0  0  0
 29 30  1  0  0  0  0
 29 31  1  0  0  0  0
 31 32  2  0  0  0  0
M  END
$$$$
