DUR
 OpenBabel04121316113D

 28 29  0  0  1  0  0  0  0  0999 V2000
    1.0533   -0.1525   -0.1409 O   0  0  0  0  0  0  0  0  0  0  0  0
    2.4673   -0.0651    0.0115 C   0  0  0  0  0  0  0  0  0  0  0  0
    2.9575   -0.9105    1.1954 C   0  0  1  0  0  0  0  0  0  0  0  0
    3.9402   -0.5310    1.5066 H   0  0  0  0  0  0  0  0  0  0  0  0
    2.0677   -0.8484    2.3222 O   0  0  0  0  0  0  0  0  0  0  0  0
    2.2364   -2.0509    3.0834 C   0  0  2  0  0  0  0  0  0  0  0  0
    3.0709   -1.8903    3.7779 H   0  0  0  0  0  0  0  0  0  0  0  0
    2.5825   -3.1230    2.0458 C   0  0  0  0  0  0  0  0  0  0  0  0
    3.0591   -2.3799    0.8242 C   0  0  2  0  0  0  0  0  0  0  0  0
    2.4365   -2.6258   -0.0433 H   0  0  0  0  0  0  0  0  0  0  0  0
    4.4009   -2.7406    0.5122 O   0  0  0  0  0  0  0  0  0  0  0  0
    1.0455   -2.4031    3.8895 N   0  0  0  0  0  0  0  0  0  0  0  0
    0.8721   -3.7253    4.2912 C   0  0  0  0  0  0  0  0  0  0  0  0
   -0.2452   -4.1560    4.8813 C   0  0  0  0  0  0  0  0  0  0  0  0
   -1.2598   -3.1682    5.2556 C   0  0  0  0  0  0  0  0  0  0  0  0
   -2.3496   -3.5167    5.7024 O   0  0  0  0  0  0  0  0  0  0  0  0
   -0.8850   -1.8698    5.1046 N   0  0  0  0  0  0  0  0  0  0  0  0
   -1.5421   -1.1641    5.3962 H   0  0  0  0  0  0  0  0  0  0  0  0
    0.1673   -1.4154    4.3401 C   0  0  0  0  0  0  0  0  0  0  0  0
    0.2413   -0.2111    4.1213 O   0  0  0  0  0  0  0  0  0  0  0  0
    0.7895    0.5229   -0.7882 H   0  0  0  0  0  0  0  0  0  0  0  0
    2.7497    0.9848    0.1434 H   0  0  0  0  0  0  0  0  0  0  0  0
    2.9173   -0.4168   -0.9242 H   0  0  0  0  0  0  0  0  0  0  0  0
    1.6841   -3.6845    1.7592 H   0  0  0  0  0  0  0  0  0  0  0  0
    3.3070   -3.8432    2.4389 H   0  0  0  0  0  0  0  0  0  0  0  0
    4.3998   -3.6863    0.2803 H   0  0  0  0  0  0  0  0  0  0  0  0
    1.6649   -4.4338    4.0707 H   0  0  0  0  0  0  0  0  0  0  0  0
   -0.4432   -5.1940    5.1124 H   0  0  0  0  0  0  0  0  0  0  0  0
  1  2  1  0  0  0  0
  1 21  1  0  0  0  0
  2  3  1  0  0  0  0
  2 22  1  0  0  0  0
  2 23  1  0  0  0  0
  3  4  1  1  0  0  0
  3  5  1  0  0  0  0
  3  9  1  0  0  0  0
  5  6  1  0  0  0  0
  6  8  1  0  0  0  0
  6 12  1  0  0  0  0
  6  7  1  1  0  0  0
  8  9  1  0  0  0  0
  8 24  1  0  0  0  0
  8 25  1  0  0  0  0
  9 10  1  6  0  0  0
  9 11  1  0  0  0  0
 11 26  1  0  0  0  0
 12 13  1  0  0  0  0
 12 19  1  0  0  0  0
 13 14  2  0  0  0  0
 13 27  1  0  0  0  0
 14 15  1  0  0  0  0
 14 28  1  0  0  0  0
 15 16  2  0  0  0  0
 15 17  1  0  0  0  0
 17 18  1  0  0  0  0
 17 19  1  0  0  0  0
 19 20  2  0  0  0  0
M  END
$$$$
