DUT
 OpenBabel04121316113D

 43 44  0  0  1  0  0  0  0  0999 V2000
    7.1309   -2.7678   -3.0873 O   0  0  0  0  0  0  0  0  0  0  0  0
    6.9593   -4.1437   -2.7860 C   0  0  1  0  0  0  0  0  0  0  0  0
    6.3629   -4.6113   -3.5784 H   0  0  0  0  0  0  0  0  0  0  0  0
    8.3001   -4.8280   -2.6467 C   0  0  0  0  0  0  0  0  0  0  0  0
    7.9638   -6.0283   -1.7693 C   0  0  1  0  0  0  0  0  0  0  0  0
    8.8452   -6.3860   -1.2241 H   0  0  0  0  0  0  0  0  0  0  0  0
    7.0234   -5.5023   -0.8232 O   0  0  0  0  0  0  0  0  0  0  0  0
    6.3331   -4.3696   -1.4123 C   0  0  2  0  0  0  0  0  0  0  0  0
    6.4899   -3.4987   -0.7643 H   0  0  0  0  0  0  0  0  0  0  0  0
    4.8359   -4.6655   -1.4966 C   0  0  0  0  0  0  0  0  0  0  0  0
    4.1000   -3.6463   -2.1288 O   0  0  0  0  0  0  0  0  0  0  0  0
    2.4786   -3.8688   -2.3386 P   0  0  2  0  0  0  0  0  0  0  0  0
    2.1103   -2.8234   -1.2633 O   0  0  0  0  0  0  0  0  0  0  0  0
    2.0896   -5.1166   -1.1215 O   0  0  0  0  0  0  0  0  0  0  0  0
    1.2415   -4.2692    0.0589 P   0  0  1  0  0  0  0  0  0  0  0  0
    2.1243   -3.3919    0.9240 O   0  0  0  0  0  0  0  0  0  0  0  0
    0.0114   -3.7035   -0.8293 O   0  0  0  0  0  0  0  0  0  0  0  0
   -0.5500   -3.8949   -2.3575 P   0  0  0  0  0  0  0  0  0  0  0  0
   -0.0445   -2.5651   -2.8712 O   0  0  0  0  0  0  0  0  0  0  0  0
   -0.1476   -5.4507   -2.2206 O   0  0  0  0  0  0  0  0  0  0  0  0
    0.3789   -4.2915   -3.6978 O   0  0  0  0  0  0  0  0  0  0  0  0
    0.5142   -5.0299    1.2561 O   0  0  0  0  0  0  0  0  0  0  0  0
    2.8911   -5.0399   -3.5433 O   0  0  0  0  0  0  0  0  0  0  0  0
    7.4249   -7.1772   -2.5400 N   0  0  0  0  0  0  0  0  0  0  0  0
    8.2213   -7.7225   -3.5431 C   0  0  0  0  0  0  0  0  0  0  0  0
    7.7437   -8.5808   -4.4453 C   0  0  0  0  0  0  0  0  0  0  0  0
    6.3464   -9.0381   -4.3291 C   0  0  0  0  0  0  0  0  0  0  0  0
    5.8206   -9.7084   -5.1825 O   0  0  0  0  0  0  0  0  0  0  0  0
    5.7261   -8.6595   -3.1711 N   0  0  0  0  0  0  0  0  0  0  0  0
    4.7877   -8.9877   -3.0180 H   0  0  0  0  0  0  0  0  0  0  0  0
    6.1714   -7.7281   -2.2753 C   0  0  0  0  0  0  0  0  0  0  0  0
    5.4245   -7.4586   -1.3430 O   0  0  0  0  0  0  0  0  0  0  0  0
    7.4484   -2.7000   -4.0027 H   0  0  0  0  0  0  0  0  0  0  0  0
    8.9989   -4.1607   -2.1252 H   0  0  0  0  0  0  0  0  0  0  0  0
    8.7482   -5.0662   -3.6149 H   0  0  0  0  0  0  0  0  0  0  0  0
    4.4428   -4.8432   -0.4918 H   0  0  0  0  0  0  0  0  0  0  0  0
    4.6695   -5.5546   -2.0942 H   0  0  0  0  0  0  0  0  0  0  0  0
    0.7791   -5.6806   -1.9778 H   0  0  0  0  0  0  0  0  0  0  0  0
    0.1762   -3.5823   -4.3687 H   0  0  0  0  0  0  0  0  0  0  0  0
    0.7477   -4.3719    1.9812 H   0  0  0  0  0  0  0  0  0  0  0  0
    2.0451   -5.2378   -4.0052 H   0  0  0  0  0  0  0  0  0  0  0  0
    9.2605   -7.4031   -3.5879 H   0  0  0  0  0  0  0  0  0  0  0  0
    8.3156   -8.9688   -5.2771 H   0  0  0  0  0  0  0  0  0  0  0  0
  1  2  1  0  0  0  0
  1 33  1  0  0  0  0
  2  3  1  6  0  0  0
  2  4  1  0  0  0  0
  2  8  1  0  0  0  0
  4  5  1  0  0  0  0
  4 34  1  0  0  0  0
  4 35  1  0  0  0  0
  5  6  1  1  0  0  0
  5  7  1  0  0  0  0
  5 24  1  0  0  0  0
  7  8  1  0  0  0  0
  8  9  1  1  0  0  0
  8 10  1  0  0  0  0
 10 11  1  0  0  0  0
 10 36  1  0  0  0  0
 10 37  1  0  0  0  0
 12 14  1  1  0  0  0
 12 23  1  0  0  0  0
 12 13  2  0  0  0  0
 12 11  1  0  0  0  0
 15 14  1  6  0  0  0
 15 16  2  0  0  0  0
 15 17  1  0  0  0  0
 15 22  1  0  0  0  0
 17 18  1  0  0  0  0
 18 19  2  0  0  0  0
 18 20  1  0  0  0  0
 18 21  1  0  0  0  0
 20 38  1  0  0  0  0
 21 39  1  0  0  0  0
 22 40  1  0  0  0  0
 23 41  1  0  0  0  0
 24 25  1  0  0  0  0
 24 31  1  0  0  0  0
 25 26  2  0  0  0  0
 25 42  1  0  0  0  0
 26 27  1  0  0  0  0
 26 43  1  0  0  0  0
 27 28  2  0  0  0  0
 27 29  1  0  0  0  0
 29 30  1  0  0  0  0
 29 31  1  0  0  0  0
 31 32  2  0  0  0  0
M  END
$$$$
