DX1
 OpenBabel04121316113D

 36 37  0  0  0  0  0  0  0  0999 V2000
    1.2081    0.0871   -0.0080 N   0  0  0  0  0  0  0  0  0  0  0  0
    2.5784    0.0822   -0.0136 C   0  0  0  0  0  0  0  0  0  0  0  0
    3.2181    1.2577   -0.0280 N   0  0  0  0  0  0  0  0  0  0  0  0
    4.5664    1.2458   -0.0266 C   0  0  0  0  0  0  0  0  0  0  0  0
    5.2721    2.4090   -0.0578 N   0  0  0  0  0  0  0  0  0  0  0  0
    6.6542    2.3894   -0.0268 C   0  0  0  0  0  0  0  0  0  0  0  0
    7.3437    3.7680   -0.0665 C   0  0  0  0  0  0  0  0  0  0  0  0
    7.0224    4.5412    1.2210 C   0  0  0  0  0  0  0  0  0  0  0  0
    8.8488    3.9138   -0.4171 C   0  0  0  0  0  0  0  0  0  0  0  0
    7.3174    1.1668    0.0603 C   0  0  0  0  0  0  0  0  0  0  0  0
    6.6308    0.0010    0.0526 N   0  0  0  0  0  0  0  0  0  0  0  0
    5.2721    0.0581    0.0062 C   0  0  0  0  0  0  0  0  0  0  0  0
    4.5080   -1.1039    0.0018 C   0  0  0  0  0  0  0  0  0  0  0  0
    3.1664   -1.1076   -0.0072 N   0  0  0  0  0  0  0  0  0  0  0  0
    5.1404   -2.3396    0.0053 N   0  0  0  0  0  0  0  0  0  0  0  0
    8.8108    1.0254    0.2018 C   0  0  0  0  0  0  0  0  0  0  0  0
    9.2925    1.5590    1.5615 C   0  0  0  0  0  0  0  0  0  0  0  0
    9.3385   -0.3980    0.0515 C   0  0  0  0  0  0  0  0  0  0  0  0
    0.7263    0.9670   -0.0110 H   0  0  0  0  0  0  0  0  0  0  0  0
    0.7313   -0.7991   -0.0081 H   0  0  0  0  0  0  0  0  0  0  0  0
    6.8512    4.3081   -0.8856 H   0  0  0  0  0  0  0  0  0  0  0  0
    7.2724    3.9761    2.1246 H   0  0  0  0  0  0  0  0  0  0  0  0
    5.9523    4.7704    1.2719 H   0  0  0  0  0  0  0  0  0  0  0  0
    7.5620    5.4935    1.2584 H   0  0  0  0  0  0  0  0  0  0  0  0
    9.5536    3.4284    0.2524 H   0  0  0  0  0  0  0  0  0  0  0  0
    9.1813    4.9543   -0.3740 H   0  0  0  0  0  0  0  0  0  0  0  0
    9.0546    3.5255   -1.4196 H   0  0  0  0  0  0  0  0  0  0  0  0
    6.1539   -2.3439    0.0200 H   0  0  0  0  0  0  0  0  0  0  0  0
    4.5926   -3.1837    0.0116 H   0  0  0  0  0  0  0  0  0  0  0  0
    9.2552    1.5456   -0.6506 H   0  0  0  0  0  0  0  0  0  0  0  0
    9.0208    0.8927    2.3820 H   0  0  0  0  0  0  0  0  0  0  0  0
    8.8647    2.5240    1.8430 H   0  0  0  0  0  0  0  0  0  0  0  0
   10.3806    1.6842    1.5429 H   0  0  0  0  0  0  0  0  0  0  0  0
    9.0218   -1.0216    0.8926 H   0  0  0  0  0  0  0  0  0  0  0  0
   10.4333   -0.3743    0.0294 H   0  0  0  0  0  0  0  0  0  0  0  0
    8.9924   -0.8571   -0.8795 H   0  0  0  0  0  0  0  0  0  0  0  0
  1  2  1  0  0  0  0
  1 19  1  0  0  0  0
  1 20  1  0  0  0  0
  2  3  2  0  0  0  0
  2 14  1  0  0  0  0
  3  4  1  0  0  0  0
  4  5  2  0  0  0  0
  4 12  1  0  0  0  0
  5  6  1  0  0  0  0
  6  7  1  0  0  0  0
  6 10  2  0  0  0  0
  7  8  1  0  0  0  0
  7  9  1  0  0  0  0
  7 21  1  0  0  0  0
  8 22  1  0  0  0  0
  8 23  1  0  0  0  0
  8 24  1  0  0  0  0
  9 25  1  0  0  0  0
  9 26  1  0  0  0  0
  9 27  1  0  0  0  0
 10 11  1  0  0  0  0
 10 16  1  0  0  0  0
 11 12  2  0  0  0  0
 12 13  1  0  0  0  0
 13 14  2  0  0  0  0
 13 15  1  0  0  0  0
 15 28  1  0  0  0  0
 15 29  1  0  0  0  0
 16 17  1  0  0  0  0
 16 18  1  0  0  0  0
 16 30  1  0  0  0  0
 17 31  1  0  0  0  0
 17 32  1  0  0  0  0
 17 33  1  0  0  0  0
 18 34  1  0  0  0  0
 18 35  1  0  0  0  0
 18 36  1  0  0  0  0
M  END
$$$$
