DX7
 OpenBabel04121316113D

 28 30  0  0  0  0  0  0  0  0999 V2000
    0.9316   -0.2327    0.1384 N   0  0  0  0  0  0  0  0  0  0  0  0
    2.0873   -0.2417    0.1433 C   0  0  0  0  0  0  0  0  0  0  0  0
    3.5183   -0.1486    0.1253 C   0  0  0  0  0  0  0  0  0  0  0  0
    4.2903    1.0109    0.1222 C   0  0  0  0  0  0  0  0  0  0  0  0
    5.6249    0.5774    0.1096 N   0  0  0  0  0  0  0  0  0  0  0  0
    6.4404    1.1762    0.0902 H   0  0  0  0  0  0  0  0  0  0  0  0
    5.6750   -0.8014    0.1048 C   0  0  0  0  0  0  0  0  0  0  0  0
    4.3796   -1.2460    0.1072 C   0  0  0  0  0  0  0  0  0  0  0  0
    4.1217   -2.6500    0.0992 C   0  0  0  0  0  0  0  0  0  0  0  0
    3.0001   -3.1390    0.0976 O   0  0  0  0  0  0  0  0  0  0  0  0
    5.2709   -3.3991    0.0973 N   0  0  0  0  0  0  0  0  0  0  0  0
    5.1190   -4.3922    0.0949 H   0  0  0  0  0  0  0  0  0  0  0  0
    6.5452   -2.8671    0.1011 C   0  0  0  0  0  0  0  0  0  0  0  0
    6.7933   -1.5783    0.1017 N   0  0  0  0  0  0  0  0  0  0  0  0
    7.5396   -3.7872    0.1046 N   0  0  0  0  0  0  0  0  0  0  0  0
    3.8423    2.4202    0.0862 C   0  0  0  0  0  0  0  0  0  0  0  0
    2.5161    2.7381   -0.2703 C   0  0  0  0  0  0  0  0  0  0  0  0
    2.0810    4.0406   -0.4756 C   0  0  0  0  0  0  0  0  0  0  0  0
    2.9353    5.0821   -0.1828 C   0  0  0  0  0  0  0  0  0  0  0  0
    4.2045    4.8053    0.3261 C   0  0  0  0  0  0  0  0  0  0  0  0
    4.6833    3.4878    0.3953 C   0  0  0  0  0  0  0  0  0  0  0  0
    7.3787   -4.7843    0.1170 H   0  0  0  0  0  0  0  0  0  0  0  0
    8.4988   -3.4672    0.1171 H   0  0  0  0  0  0  0  0  0  0  0  0
    1.7482    1.9954   -0.4226 H   0  0  0  0  0  0  0  0  0  0  0  0
    1.0746    4.2116   -0.8498 H   0  0  0  0  0  0  0  0  0  0  0  0
    2.5999    6.1018   -0.3374 H   0  0  0  0  0  0  0  0  0  0  0  0
    4.8278    5.6259    0.6670 H   0  0  0  0  0  0  0  0  0  0  0  0
    5.7094    3.3244    0.7083 H   0  0  0  0  0  0  0  0  0  0  0  0
  1  2  3  0  0  0  0
  2  3  1  0  0  0  0
  3  4  2  0  0  0  0
  3  8  1  0  0  0  0
  4  5  1  0  0  0  0
  4 16  1  0  0  0  0
  5  6  1  0  0  0  0
  5  7  1  0  0  0  0
  7  8  2  0  0  0  0
  7 14  1  0  0  0  0
  8  9  1  0  0  0  0
  9 10  2  0  0  0  0
  9 11  1  0  0  0  0
 11 12  1  0  0  0  0
 11 13  1  0  0  0  0
 13 14  2  0  0  0  0
 13 15  1  0  0  0  0
 15 22  1  0  0  0  0
 15 23  1  0  0  0  0
 16 17  2  0  0  0  0
 16 21  1  0  0  0  0
 17 18  1  0  0  0  0
 17 24  1  0  0  0  0
 18 19  2  0  0  0  0
 18 25  1  0  0  0  0
 19 20  1  0  0  0  0
 19 26  1  0  0  0  0
 20 21  2  0  0  0  0
 20 27  1  0  0  0  0
 21 28  1  0  0  0  0
M  END
$$$$
