DY6
 OpenBabel04121316113D

 51 54  0  0  0  0  0  0  0  0999 V2000
    0.9540    0.1710    0.0703 O   0  0  0  0  0  0  0  0  0  0  0  0
    2.1733    0.2686   -0.0019 C   0  0  0  0  0  0  0  0  0  0  0  0
    2.8592   -0.0904   -1.2654 C   0  0  0  0  0  0  0  0  0  0  0  0
    3.4856    0.8370   -2.0810 C   0  0  0  0  0  0  0  0  0  0  0  0
    4.0721    0.3944   -3.2736 C   0  0  0  0  0  0  0  0  0  0  0  0
    4.0087   -0.9579   -3.6572 C   0  0  0  0  0  0  0  0  0  0  0  0
    3.3713   -1.8910   -2.8347 C   0  0  0  0  0  0  0  0  0  0  0  0
    2.7676   -1.4248   -1.6664 C   0  0  0  0  0  0  0  0  0  0  0  0
    3.3672   -3.6145   -3.3642 S   0  0  0  0  0  0  0  0  0  0  0  0
    2.3643   -3.7170   -4.4003 O   0  0  0  0  0  0  0  0  0  0  0  0
    4.7525   -3.9432   -3.6512 O   0  0  0  0  0  0  0  0  0  0  0  0
    2.8786   -4.6305   -2.0595 N   0  0  0  0  0  0  0  0  0  0  0  0
    3.4609   -4.3001   -0.7495 C   0  0  0  0  0  0  0  0  0  0  0  0
    2.7392   -4.9927    0.3818 C   0  0  0  0  0  0  0  0  0  0  0  0
    2.8410   -6.4573    0.1923 C   0  0  0  0  0  0  0  0  0  0  0  0
    3.0630   -6.9809   -1.0946 C   0  0  0  0  0  0  0  0  0  0  0  0
    3.2477   -6.0751   -2.3114 C   0  0  0  0  0  0  0  0  0  0  0  0
    3.2240   -8.3571   -1.2134 C   0  0  0  0  0  0  0  0  0  0  0  0
    3.1123   -9.1765   -0.0851 C   0  0  0  0  0  0  0  0  0  0  0  0
    2.8569   -8.6372    1.1769 C   0  0  0  0  0  0  0  0  0  0  0  0
    2.7222   -7.2706    1.3197 C   0  0  0  0  0  0  0  0  0  0  0  0
    2.9073    0.5283    1.1473 N   0  0  0  0  0  0  0  0  0  0  0  0
    4.3063    0.4771    1.2378 C   0  0  0  0  0  0  0  0  0  0  0  0
    4.9985    1.6881    1.2743 C   0  0  0  0  0  0  0  0  0  0  0  0
    6.3780    1.7007    1.0578 C   0  0  0  0  0  0  0  0  0  0  0  0
    7.0861    0.5068    0.9625 C   0  0  0  0  0  0  0  0  0  0  0  0
    6.4154   -0.7011    1.1142 C   0  0  0  0  0  0  0  0  0  0  0  0
    5.0158   -0.7287    1.2111 C   0  0  0  0  0  0  0  0  0  0  0  0
    4.4150   -2.0788    1.3114 C   0  0  0  0  0  0  0  0  0  0  0  0
    5.0966   -3.0728    1.1968 O   0  0  0  0  0  0  0  0  0  0  0  0
    3.0782   -2.1608    1.5076 O   0  0  0  0  0  0  0  0  0  0  0  0
    3.4688    1.8913   -1.8222 H   0  0  0  0  0  0  0  0  0  0  0  0
    4.5672    1.1113   -3.9241 H   0  0  0  0  0  0  0  0  0  0  0  0
    4.4141   -1.2680   -4.6207 H   0  0  0  0  0  0  0  0  0  0  0  0
    2.1689   -2.0501   -1.0216 H   0  0  0  0  0  0  0  0  0  0  0  0
    3.2769   -3.2867   -0.5222 H   0  0  0  0  0  0  0  0  0  0  0  0
    4.5435   -4.4360   -0.7642 H   0  0  0  0  0  0  0  0  0  0  0  0
    1.6837   -4.6960    0.4378 H   0  0  0  0  0  0  0  0  0  0  0  0
    3.2091   -4.7089    1.3287 H   0  0  0  0  0  0  0  0  0  0  0  0
    2.6759   -6.4691   -3.1573 H   0  0  0  0  0  0  0  0  0  0  0  0
    4.3192   -6.1212   -2.5520 H   0  0  0  0  0  0  0  0  0  0  0  0
    3.4492   -8.7928   -2.1823 H   0  0  0  0  0  0  0  0  0  0  0  0
    3.2276  -10.2492   -0.1919 H   0  0  0  0  0  0  0  0  0  0  0  0
    2.7705   -9.2737    2.0509 H   0  0  0  0  0  0  0  0  0  0  0  0
    2.5454   -6.8255    2.2978 H   0  0  0  0  0  0  0  0  0  0  0  0
    2.3800    0.8877    1.9403 H   0  0  0  0  0  0  0  0  0  0  0  0
    4.4692    2.6296    1.3923 H   0  0  0  0  0  0  0  0  0  0  0  0
    6.9038    2.6455    0.9457 H   0  0  0  0  0  0  0  0  0  0  0  0
    8.1587    0.5093    0.7850 H   0  0  0  0  0  0  0  0  0  0  0  0
    6.9888   -1.6280    1.1382 H   0  0  0  0  0  0  0  0  0  0  0  0
    2.5697   -1.3300    1.5082 H   0  0  0  0  0  0  0  0  0  0  0  0
  1  2  2  0  0  0  0
  2  3  1  0  0  0  0
  2 22  1  0  0  0  0
  3  4  2  0  0  0  0
  3  8  1  0  0  0  0
  4  5  1  0  0  0  0
  4 32  1  0  0  0  0
  5  6  2  0  0  0  0
  5 33  1  0  0  0  0
  6  7  1  0  0  0  0
  6 34  1  0  0  0  0
  7  8  2  0  0  0  0
  7  9  1  0  0  0  0
  8 35  1  0  0  0  0
  9 10  2  0  0  0  0
  9 11  2  0  0  0  0
  9 12  1  0  0  0  0
 12 13  1  0  0  0  0
 12 17  1  0  0  0  0
 13 14  1  0  0  0  0
 13 36  1  0  0  0  0
 13 37  1  0  0  0  0
 14 15  1  0  0  0  0
 14 38  1  0  0  0  0
 14 39  1  0  0  0  0
 15 16  2  0  0  0  0
 15 21  1  0  0  0  0
 16 17  1  0  0  0  0
 16 18  1  0  0  0  0
 17 40  1  0  0  0  0
 17 41  1  0  0  0  0
 18 19  2  0  0  0  0
 18 42  1  0  0  0  0
 19 20  1  0  0  0  0
 19 43  1  0  0  0  0
 20 21  2  0  0  0  0
 20 44  1  0  0  0  0
 21 45  1  0  0  0  0
 22 23  1  0  0  0  0
 22 46  1  0  0  0  0
 23 24  2  0  0  0  0
 23 28  1  0  0  0  0
 24 25  1  0  0  0  0
 24 47  1  0  0  0  0
 25 26  2  0  0  0  0
 25 48  1  0  0  0  0
 26 27  1  0  0  0  0
 26 49  1  0  0  0  0
 27 28  2  0  0  0  0
 27 50  1  0  0  0  0
 28 29  1  0  0  0  0
 29 30  2  0  0  0  0
 29 31  1  0  0  0  0
 31 51  1  0  0  0  0
M  END
$$$$
