DYN
 OpenBabel04121316113D

107112  0  0  1  0  0  0  0  0999 V2000
    1.5374   -6.1393    2.9254 O   0  0  0  0  0  0  0  0  0  0  0  0
    1.2830   -6.3592    1.5469 C   0  0  0  0  0  0  0  0  0  0  0  0
    2.1812   -5.4721    0.7024 C   0  0  0  0  0  0  0  0  0  0  0  0
    1.9366   -5.7924   -0.8130 C   0  0  0  0  0  0  0  0  0  0  0  0
    3.0249   -5.3072   -1.7174 C   0  0  0  0  0  0  0  0  0  0  0  0
    2.8764   -5.0550   -3.0798 O   0  0  0  0  0  0  0  0  0  0  0  0
    4.1331   -4.3938   -3.9033 P   0  0  2  0  0  0  0  0  0  0  0  0
    5.2420   -4.6965   -2.8720 O   0  0  0  0  0  0  0  0  0  0  0  0
    4.3259   -2.7271   -3.7621 O   0  0  0  0  0  0  0  0  0  0  0  0
    5.3127   -2.0567   -2.8460 C   0  0  2  0  0  0  0  0  0  0  0  0
    6.1526   -1.6901   -3.4587 H   0  0  0  0  0  0  0  0  0  0  0  0
    5.9633   -3.3302   -1.9446 C   0  0  1  0  0  0  0  0  0  0  0  0
    6.6096   -4.1287   -2.4714 H   0  0  0  0  0  0  0  0  0  0  0  0
    7.2467   -3.1307   -1.4713 C   0  0  0  0  0  0  0  0  0  0  0  0
    8.1832   -3.2093   -2.2503 O   0  0  0  0  0  0  0  0  0  0  0  0
    9.7262   -2.8664   -1.5472 P   0  0  1  0  0  0  0  0  0  0  0  0
    9.3261   -2.1043   -0.3149 O   0  0  0  0  0  0  0  0  0  0  0  0
    9.9886   -4.5103   -1.2476 O   0  0  0  0  0  0  0  0  0  0  0  0
    8.9790   -5.4800   -1.5722 C   0  0  1  0  0  0  0  0  0  0  0  0
    8.4529   -5.1182   -2.4598 H   0  0  0  0  0  0  0  0  0  0  0  0
    9.3226   -6.8126   -2.2007 C   0  0  0  0  0  0  0  0  0  0  0  0
    8.0595   -7.5968   -2.0985 N   0  0  0  0  0  0  0  0  0  0  0  0
    7.5964   -7.2237   -0.7546 C   0  0  0  0  0  0  0  0  0  0  0  0
    8.1385   -5.9104   -0.3130 C   0  0  2  0  0  0  0  0  0  0  0  0
    8.7790   -5.9132    0.5587 H   0  0  0  0  0  0  0  0  0  0  0  0
    6.9624   -5.0721    0.1920 C   0  0  0  0  0  0  0  0  0  0  0  0
    7.6175   -3.7953    0.5293 O   0  0  0  0  0  0  0  0  0  0  0  0
    6.7356   -2.4389    0.5842 P   0  0  2  0  0  0  0  0  0  0  0  0
    5.8841   -3.0009    1.6598 O   0  0  0  0  0  0  0  0  0  0  0  0
    5.5343   -1.9539   -0.9225 O   0  0  0  0  0  0  0  0  0  0  0  0
    3.6581   -2.3738   -1.4112 C   0  0  0  0  0  0  0  0  0  0  0  0
    2.4168   -2.0188   -2.3457 C   0  0  0  0  0  0  0  0  0  0  0  0
    1.1682   -2.5693   -1.6669 C   0  0  0  0  0  0  0  0  0  0  0  0
    0.1039   -2.3368   -2.5483 O   0  0  0  0  0  0  0  0  0  0  0  0
    7.4742   -0.9880   -0.1018 O   0  0  0  0  0  0  0  0  0  0  0  0
    7.0703   -7.2375   -3.1767 C   0  0  0  0  0  0  0  0  0  0  0  0
    5.7447   -7.9688   -3.0928 C   0  0  0  0  0  0  0  0  0  0  0  0
    5.2190   -8.8747   -3.9960 C   0  0  0  0  0  0  0  0  0  0  0  0
    3.9679   -9.2637   -3.5724 N   0  0  0  0  0  0  0  0  0  0  0  0
    3.3764   -9.9508   -4.0085 H   0  0  0  0  0  0  0  0  0  0  0  0
    3.7086   -8.7395   -2.3455 C   0  0  0  0  0  0  0  0  0  0  0  0
    4.7644   -7.9152   -2.0687 C   0  0  0  0  0  0  0  0  0  0  0  0
    4.7942   -7.2576   -0.9202 N   0  0  0  0  0  0  0  0  0  0  0  0
    3.9721   -7.6255    0.0168 C   0  0  0  0  0  0  0  0  0  0  0  0
    2.9091   -8.4028   -0.1729 N   0  0  0  0  0  0  0  0  0  0  0  0
    2.6965   -8.8862   -1.4152 C   0  0  0  0  0  0  0  0  0  0  0  0
    1.4916   -9.4581   -1.7117 N   0  0  0  0  0  0  0  0  0  0  0  0
   11.2693   -2.5235   -0.8441 O   0  0  0  0  0  0  0  0  0  0  0  0
    4.9966   -3.4971   -0.3491 O   0  0  0  0  0  0  0  0  0  0  0  0
    4.3435   -1.7257    0.2036 C   0  0  2  0  0  0  0  0  0  0  0  0
    3.4043   -2.2736    0.5720 H   0  0  0  0  0  0  0  0  0  0  0  0
    4.6461   -0.6695   -1.5333 C   0  0  2  0  0  0  0  0  0  0  0  0
    5.5140   -0.0212   -1.3638 H   0  0  0  0  0  0  0  0  0  0  0  0
    3.6534    0.1739   -2.0389 O   0  0  0  0  0  0  0  0  0  0  0  0
    3.9304    0.3697   -3.4049 C   0  0  0  0  0  0  0  0  0  0  0  0
    4.7789   -1.0050    1.3817 N   0  0  0  0  0  0  0  0  0  0  0  0
    5.9348   -0.3209    1.6385 C   0  0  0  0  0  0  0  0  0  0  0  0
    6.4724   -0.7030    2.7670 N   0  0  0  0  0  0  0  0  0  0  0  0
    5.4156   -1.2958    3.3480 C   0  0  0  0  0  0  0  0  0  0  0  0
    4.3434   -1.5275    2.5353 C   0  0  0  0  0  0  0  0  0  0  0  0
    3.2170   -2.2450    2.7235 N   0  0  0  0  0  0  0  0  0  0  0  0
    3.0311   -2.4130    3.9891 C   0  0  0  0  0  0  0  0  0  0  0  0
    1.8790   -2.9337    4.4369 N   0  0  0  0  0  0  0  0  0  0  0  0
    3.9520   -1.9965    4.9419 N   0  0  0  0  0  0  0  0  0  0  0  0
    3.6940   -1.9365    5.8954 H   0  0  0  0  0  0  0  0  0  0  0  0
    5.2068   -1.4716    4.7037 C   0  0  0  0  0  0  0  0  0  0  0  0
    5.9687   -0.9975    5.5287 O   0  0  0  0  0  0  0  0  0  0  0  0
    2.8909   -4.0546   -5.0586 O   0  0  0  0  0  0  0  0  0  0  0  0
    0.9517   -6.7468    3.4080 H   0  0  0  0  0  0  0  0  0  0  0  0
    0.2467   -6.1107    1.3239 H   0  0  0  0  0  0  0  0  0  0  0  0
    1.4258   -7.4260    1.3554 H   0  0  0  0  0  0  0  0  0  0  0  0
    3.2035   -5.5216    1.1021 H   0  0  0  0  0  0  0  0  0  0  0  0
    1.9981   -4.4109    0.9061 H   0  0  0  0  0  0  0  0  0  0  0  0
    0.9576   -5.4101   -1.0859 H   0  0  0  0  0  0  0  0  0  0  0  0
    1.8098   -6.8052   -1.1052 H   0  0  0  0  0  0  0  0  0  0  0  0
    4.0343   -5.3889   -1.3489 H   0  0  0  0  0  0  0  0  0  0  0  0
    2.7764   -4.3602   -1.4901 H   0  0  0  0  0  0  0  0  0  0  0  0
    7.6962   -3.9905   -1.1451 H   0  0  0  0  0  0  0  0  0  0  0  0
    7.5081   -2.1559   -1.4211 H   0  0  0  0  0  0  0  0  0  0  0  0
   10.1126   -7.2704   -1.6137 H   0  0  0  0  0  0  0  0  0  0  0  0
    9.6529   -6.6995   -3.2400 H   0  0  0  0  0  0  0  0  0  0  0  0
    7.7011   -7.9551    0.0370 H   0  0  0  0  0  0  0  0  0  0  0  0
    6.5772   -7.0388   -0.8052 H   0  0  0  0  0  0  0  0  0  0  0  0
    6.1805   -5.3645    0.9010 H   0  0  0  0  0  0  0  0  0  0  0  0
    6.3308   -5.0870   -0.7106 H   0  0  0  0  0  0  0  0  0  0  0  0
    3.0009   -1.5222   -0.8262 H   0  0  0  0  0  0  0  0  0  0  0  0
    3.3737   -3.2124   -0.8554 H   0  0  0  0  0  0  0  0  0  0  0  0
    2.4757   -2.3705   -3.3490 H   0  0  0  0  0  0  0  0  0  0  0  0
    2.1031   -0.9751   -2.4161 H   0  0  0  0  0  0  0  0  0  0  0  0
    0.9921   -2.1116   -0.6838 H   0  0  0  0  0  0  0  0  0  0  0  0
    1.2085   -3.6147   -1.4858 H   0  0  0  0  0  0  0  0  0  0  0  0
    0.2023   -1.4038   -2.7940 H   0  0  0  0  0  0  0  0  0  0  0  0
    7.1109   -0.3383   -0.8006 H   0  0  0  0  0  0  0  0  0  0  0  0
    7.5185   -7.4928   -4.1461 H   0  0  0  0  0  0  0  0  0  0  0  0
    6.8674   -6.1693   -3.2620 H   0  0  0  0  0  0  0  0  0  0  0  0
    5.6545   -9.2851   -4.8917 H   0  0  0  0  0  0  0  0  0  0  0  0
    4.1389   -7.0890    0.9418 H   0  0  0  0  0  0  0  0  0  0  0  0
    0.7459   -9.3782   -1.0363 H   0  0  0  0  0  0  0  0  0  0  0  0
    1.3801   -9.9752   -2.5614 H   0  0  0  0  0  0  0  0  0  0  0  0
   11.3678   -1.5572   -0.8124 H   0  0  0  0  0  0  0  0  0  0  0  0
    2.9897    0.6738   -3.8397 H   0  0  0  0  0  0  0  0  0  0  0  0
    4.2499   -0.4994   -3.9913 H   0  0  0  0  0  0  0  0  0  0  0  0
    4.7436    1.0792   -3.3927 H   0  0  0  0  0  0  0  0  0  0  0  0
    6.6166    0.1255    0.9534 H   0  0  0  0  0  0  0  0  0  0  0  0
    1.2439   -3.3628    3.7726 H   0  0  0  0  0  0  0  0  0  0  0  0
    1.6652   -2.9506    5.4148 H   0  0  0  0  0  0  0  0  0  0  0  0
    3.2779   -3.5979   -5.8241 H   0  0  0  0  0  0  0  0  0  0  0  0
  1  2  1  0  0  0  0
  1 69  1  0  0  0  0
  2  3  1  0  0  0  0
  2 70  1  0  0  0  0
  2 71  1  0  0  0  0
  3  4  1  0  0  0  0
  3 72  1  0  0  0  0
  3 73  1  0  0  0  0
  4  5  1  0  0  0  0
  4 74  1  0  0  0  0
  4 75  1  0  0  0  0
  5  6  1  0  0  0  0
  5 76  1  0  0  0  0
  5 77  1  0  0  0  0
  7  9  1  1  0  0  0
  7 68  1  0  0  0  0
  7  8  2  0  0  0  0
  7  6  1  0  0  0  0
 10 12  1  0  0  0  0
 10 52  1  0  0  0  0
 10 11  1  6  0  0  0
 10  9  1  0  0  0  0
 12 13  1  6  0  0  0
 12 14  1  0  0  0  0
 12 49  1  0  0  0  0
 14 15  1  0  0  0  0
 14 78  1  0  0  0  0
 14 79  1  0  0  0  0
 16 15  1  6  0  0  0
 16 17  2  0  0  0  0
 16 18  1  0  0  0  0
 16 48  1  0  0  0  0
 18 19  1  0  0  0  0
 19 20  1  6  0  0  0
 19 21  1  0  0  0  0
 19 24  1  0  0  0  0
 21 22  1  0  0  0  0
 21 80  1  0  0  0  0
 21 81  1  0  0  0  0
 22 23  1  0  0  0  0
 22 36  1  0  0  0  0
 23 24  1  0  0  0  0
 23 82  1  0  0  0  0
 23 83  1  0  0  0  0
 24 25  1  1  0  0  0
 24 26  1  0  0  0  0
 26 27  1  0  0  0  0
 26 84  1  0  0  0  0
 26 85  1  0  0  0  0
 28 30  1  6  0  0  0
 28 35  1  0  0  0  0
 28 29  2  0  0  0  0
 28 27  1  0  0  0  0
 30 31  1  0  0  0  0
 31 32  1  0  0  0  0
 31 86  1  0  0  0  0
 31 87  1  0  0  0  0
 32 33  1  0  0  0  0
 32 88  1  0  0  0  0
 32 89  1  0  0  0  0
 33 34  1  0  0  0  0
 33 90  1  0  0  0  0
 33 91  1  0  0  0  0
 34 92  1  0  0  0  0
 35 93  1  0  0  0  0
 36 37  1  0  0  0  0
 36 94  1  0  0  0  0
 36 95  1  0  0  0  0
 37 38  2  0  0  0  0
 37 42  1  0  0  0  0
 38 39  1  0  0  0  0
 38 96  1  0  0  0  0
 39 40  1  0  0  0  0
 39 41  1  0  0  0  0
 41 42  2  0  0  0  0
 41 46  1  0  0  0  0
 42 43  1  0  0  0  0
 43 44  2  0  0  0  0
 44 45  1  0  0  0  0
 44 97  1  0  0  0  0
 45 46  2  0  0  0  0
 46 47  1  0  0  0  0
 47 98  1  0  0  0  0
 47 99  1  0  0  0  0
 48100  1  0  0  0  0
 49 50  1  0  0  0  0
 50 52  1  0  0  0  0
 50 56  1  0  0  0  0
 50 51  1  1  0  0  0
 52 53  1  1  0  0  0
 52 54  1  0  0  0  0
 54 55  1  0  0  0  0
 55101  1  0  0  0  0
 55102  1  0  0  0  0
 55103  1  0  0  0  0
 56 57  1  0  0  0  0
 56 60  1  0  0  0  0
 57 58  2  0  0  0  0
 57104  1  0  0  0  0
 58 59  1  0  0  0  0
 59 60  2  0  0  0  0
 59 66  1  0  0  0  0
 60 61  1  0  0  0  0
 61 62  2  0  0  0  0
 62 63  1  0  0  0  0
 62 64  1  0  0  0  0
 63105  1  0  0  0  0
 63106  1  0  0  0  0
 64 65  1  0  0  0  0
 64 66  1  0  0  0  0
 66 67  2  0  0  0  0
 68107  1  0  0  0  0
M  END
$$$$
