DZ2
 OpenBabel04121316113D

 27 28  0  0  0  0  0  0  0  0999 V2000
    0.9397   -0.0704    0.0907 Cl  0  0  0  0  0  0  0  0  0  0  0  0
    2.6579   -0.0694    0.0349 C   0  0  0  0  0  0  0  0  0  0  0  0
    3.3446    1.1367   -0.0385 C   0  0  0  0  0  0  0  0  0  0  0  0
    4.7315    1.1376   -0.1176 C   0  0  0  0  0  0  0  0  0  0  0  0
    5.4264   -0.0613   -0.2570 C   0  0  0  0  0  0  0  0  0  0  0  0
    4.7309   -1.2930   -0.1903 C   0  0  0  0  0  0  0  0  0  0  0  0
    3.3446   -1.2811    0.0322 C   0  0  0  0  0  0  0  0  0  0  0  0
    5.4529   -2.5676   -0.4028 C   0  0  0  0  0  0  0  0  0  0  0  0
    6.6676   -2.4886   -0.5781 O   0  0  0  0  0  0  0  0  0  0  0  0
    4.7681   -3.7763   -0.3989 N   0  0  0  0  0  0  0  0  0  0  0  0
    5.4007   -5.0206   -0.6482 C   0  0  0  0  0  0  0  0  0  0  0  0
    6.7163   -5.1005   -1.1213 C   0  0  0  0  0  0  0  0  0  0  0  0
    7.3431   -6.3150   -1.3298 C   0  0  0  0  0  0  0  0  0  0  0  0
    9.1351   -6.3002   -1.9483 Br  0  0  0  0  0  0  0  0  0  0  0  0
    6.6528   -7.4922   -1.0906 C   0  0  0  0  0  0  0  0  0  0  0  0
    5.3293   -7.4371   -0.6392 C   0  0  0  0  0  0  0  0  0  0  0  0
    4.6968   -6.2038   -0.4198 C   0  0  0  0  0  0  0  0  0  0  0  0
    4.3506   -9.0267   -0.3060 Br  0  0  0  0  0  0  0  0  0  0  0  0
    7.2698   -8.6926   -1.3073 O   0  0  0  0  0  0  0  0  0  0  0  0
    7.1268    0.1522   -0.5499 Cl  0  0  0  0  0  0  0  0  0  0  0  0
    2.8135    2.0827   -0.0392 H   0  0  0  0  0  0  0  0  0  0  0  0
    5.2796    2.0765   -0.1052 H   0  0  0  0  0  0  0  0  0  0  0  0
    2.7698   -2.1874    0.1827 H   0  0  0  0  0  0  0  0  0  0  0  0
    3.7875   -3.8165   -0.1582 H   0  0  0  0  0  0  0  0  0  0  0  0
    7.3042   -4.2248   -1.3606 H   0  0  0  0  0  0  0  0  0  0  0  0
    3.6714   -6.1809   -0.0583 H   0  0  0  0  0  0  0  0  0  0  0  0
    8.1734   -8.4932   -1.6184 H   0  0  0  0  0  0  0  0  0  0  0  0
  1  2  1  0  0  0  0
  2  3  2  0  0  0  0
  2  7  1  0  0  0  0
  3  4  1  0  0  0  0
  3 21  1  0  0  0  0
  4  5  2  0  0  0  0
  4 22  1  0  0  0  0
  5  6  1  0  0  0  0
  5 20  1  0  0  0  0
  6  7  2  0  0  0  0
  6  8  1  0  0  0  0
  7 23  1  0  0  0  0
  8  9  2  0  0  0  0
  8 10  1  0  0  0  0
 10 11  1  0  0  0  0
 10 24  1  0  0  0  0
 11 12  2  0  0  0  0
 11 17  1  0  0  0  0
 12 13  1  0  0  0  0
 12 25  1  0  0  0  0
 13 14  1  0  0  0  0
 13 15  2  0  0  0  0
 15 16  1  0  0  0  0
 15 19  1  0  0  0  0
 16 17  2  0  0  0  0
 16 18  1  0  0  0  0
 17 26  1  0  0  0  0
 19 27  1  0  0  0  0
M  END
$$$$
