DZ3
 OpenBabel04121316113D

 34 35  0  0  0  0  0  0  0  0999 V2000
    0.9411    0.1405   -0.1097 O   0  0  0  0  0  0  0  0  0  0  0  0
    2.1704    0.1027   -0.0383 C   0  0  0  0  0  0  0  0  0  0  0  0
    2.8082   -0.8832    0.8670 C   0  0  0  0  0  0  0  0  0  0  0  0
    3.7479   -0.4919    1.8339 C   0  0  0  0  0  0  0  0  0  0  0  0
    4.4063   -1.4525    2.6135 C   0  0  0  0  0  0  0  0  0  0  0  0
    5.4360   -1.0206    3.6131 C   0  0  0  0  0  0  0  0  0  0  0  0
    4.0742   -2.8019    2.4371 C   0  0  0  0  0  0  0  0  0  0  0  0
    3.1318   -3.2020    1.4802 C   0  0  0  0  0  0  0  0  0  0  0  0
    2.5050   -2.2321    0.6874 C   0  0  0  0  0  0  0  0  0  0  0  0
    2.7667   -4.6434    1.2895 C   0  0  0  0  0  0  0  0  0  0  0  0
    4.6507   -3.7814    3.1987 O   0  0  0  0  0  0  0  0  0  0  0  0
    2.9477    1.0022   -0.7409 N   0  0  0  0  0  0  0  0  0  0  0  0
    4.3485    1.0232   -0.8458 C   0  0  0  0  0  0  0  0  0  0  0  0
    4.9975    2.2564   -0.8541 C   0  0  0  0  0  0  0  0  0  0  0  0
    6.3944    2.2921   -0.8176 C   0  0  0  0  0  0  0  0  0  0  0  0
    7.2619    3.9772   -0.7679 Br  0  0  0  0  0  0  0  0  0  0  0  0
    7.1419    1.1079   -0.7914 C   0  0  0  0  0  0  0  0  0  0  0  0
    6.4877   -0.1192   -0.8268 C   0  0  0  0  0  0  0  0  0  0  0  0
    5.0988   -0.1570   -0.8860 C   0  0  0  0  0  0  0  0  0  0  0  0
    7.4215   -1.7671   -0.7640 Br  0  0  0  0  0  0  0  0  0  0  0  0
    8.5087    1.1314   -0.7371 O   0  0  0  0  0  0  0  0  0  0  0  0
    4.0057    0.5595    1.9437 H   0  0  0  0  0  0  0  0  0  0  0  0
    5.6060    0.0595    3.5838 H   0  0  0  0  0  0  0  0  0  0  0  0
    6.3922   -1.5138    3.4071 H   0  0  0  0  0  0  0  0  0  0  0  0
    5.0963   -1.2843    4.6193 H   0  0  0  0  0  0  0  0  0  0  0  0
    1.7979   -2.5242   -0.0865 H   0  0  0  0  0  0  0  0  0  0  0  0
    3.2873   -5.3002    1.9917 H   0  0  0  0  0  0  0  0  0  0  0  0
    3.0243   -4.9675    0.2768 H   0  0  0  0  0  0  0  0  0  0  0  0
    1.6931   -4.7702    1.4570 H   0  0  0  0  0  0  0  0  0  0  0  0
    5.2533   -3.3896    3.8479 H   0  0  0  0  0  0  0  0  0  0  0  0
    2.4161    1.7719   -1.1331 H   0  0  0  0  0  0  0  0  0  0  0  0
    4.4249    3.1801   -0.8132 H   0  0  0  0  0  0  0  0  0  0  0  0
    4.6077   -1.1243   -0.9431 H   0  0  0  0  0  0  0  0  0  0  0  0
    8.7945    2.0614   -0.7588 H   0  0  0  0  0  0  0  0  0  0  0  0
  1  2  2  0  0  0  0
  2  3  1  0  0  0  0
  2 12  1  0  0  0  0
  3  4  2  0  0  0  0
  3  9  1  0  0  0  0
  4  5  1  0  0  0  0
  4 22  1  0  0  0  0
  5  6  1  0  0  0  0
  5  7  2  0  0  0  0
  6 23  1  0  0  0  0
  6 24  1  0  0  0  0
  6 25  1  0  0  0  0
  7  8  1  0  0  0  0
  7 11  1  0  0  0  0
  8  9  2  0  0  0  0
  8 10  1  0  0  0  0
  9 26  1  0  0  0  0
 10 27  1  0  0  0  0
 10 28  1  0  0  0  0
 10 29  1  0  0  0  0
 11 30  1  0  0  0  0
 12 13  1  0  0  0  0
 12 31  1  0  0  0  0
 13 14  2  0  0  0  0
 13 19  1  0  0  0  0
 14 15  1  0  0  0  0
 14 32  1  0  0  0  0
 15 16  1  0  0  0  0
 15 17  2  0  0  0  0
 17 18  1  0  0  0  0
 17 21  1  0  0  0  0
 18 19  2  0  0  0  0
 18 20  1  0  0  0  0
 19 33  1  0  0  0  0
 21 34  1  0  0  0  0
M  END
$$$$
