DZ8
 OpenBabel04121316113D

 51 54  0  0  0  0  0  0  0  0999 V2000
    0.9800    0.0394   -0.1200 C   0  0  0  0  0  0  0  0  0  0  0  0
    2.5077    0.1018   -0.0528 C   0  0  0  0  0  0  0  0  0  0  0  0
    2.9931    0.5467    1.2661 N   0  0  0  0  0  0  0  0  0  0  0  0
    2.5745    1.9147    1.6063 C   0  0  0  0  0  0  0  0  0  0  0  0
    3.1004    2.2921    2.9927 C   0  0  0  0  0  0  0  0  0  0  0  0
    2.6381    3.6817    3.4639 C   0  0  0  0  0  0  0  0  0  0  0  0
    3.0387    4.0747    4.8047 N   0  0  0  0  0  0  0  0  0  0  0  0
    3.3314    3.2449    5.8906 C   0  0  0  0  0  0  0  0  0  0  0  0
    3.7213    1.7479    5.9925 C   0  0  0  0  0  0  0  0  0  0  0  0
    4.2125    1.3338    7.4066 C   0  0  0  0  0  0  0  0  0  0  0  0
    4.5047    2.3810    8.2947 C   0  0  0  0  0  0  0  0  0  0  0  0
    4.8001    2.1929    9.6219 C   0  0  0  0  0  0  0  0  0  0  0  0
    5.2288    3.2979   10.3295 O   0  0  0  0  0  0  0  0  0  0  0  0
    6.5936    2.8947   10.3124 C   0  0  0  0  0  0  0  0  0  0  0  0
    6.6842    1.4314   10.4266 O   0  0  0  0  0  0  0  0  0  0  0  0
    5.4499    1.0912    9.8596 C   0  0  0  0  0  0  0  0  0  0  0  0
    5.1882   -0.0938    9.1344 C   0  0  0  0  0  0  0  0  0  0  0  0
    4.4625    0.0619    7.9098 C   0  0  0  0  0  0  0  0  0  0  0  0
    3.9086   -1.6677    6.8855 I   0  0  0  0  0  0  0  0  0  0  0  0
    3.2089    3.9597    6.9806 N   0  0  0  0  0  0  0  0  0  0  0  0
    3.3122    5.2536    6.6353 C   0  0  0  0  0  0  0  0  0  0  0  0
    3.0175    5.3879    5.3219 C   0  0  0  0  0  0  0  0  0  0  0  0
    2.7631    6.5887    4.7307 N   0  0  0  0  0  0  0  0  0  0  0  0
    2.9083    7.6024    5.6460 C   0  0  0  0  0  0  0  0  0  0  0  0
    2.5536    8.8329    5.2160 F   0  0  0  0  0  0  0  0  0  0  0  0
    3.3525    7.5695    6.9250 N   0  0  0  0  0  0  0  0  0  0  0  0
    3.6056    6.3574    7.4502 C   0  0  0  0  0  0  0  0  0  0  0  0
    4.1543    6.2197    8.7147 N   0  0  0  0  0  0  0  0  0  0  0  0
    3.0711   -1.2898   -0.3709 C   0  0  0  0  0  0  0  0  0  0  0  0
    0.5238    1.0237    0.0170 H   0  0  0  0  0  0  0  0  0  0  0  0
    0.5767   -0.6351    0.6437 H   0  0  0  0  0  0  0  0  0  0  0  0
    0.6519   -0.3242   -1.0995 H   0  0  0  0  0  0  0  0  0  0  0  0
    2.8758    0.7923   -0.8214 H   0  0  0  0  0  0  0  0  0  0  0  0
    4.0125    0.4842    1.2790 H   0  0  0  0  0  0  0  0  0  0  0  0
    1.4829    1.9722    1.6487 H   0  0  0  0  0  0  0  0  0  0  0  0
    2.9358    2.6249    0.8563 H   0  0  0  0  0  0  0  0  0  0  0  0
    4.1954    2.2391    3.0113 H   0  0  0  0  0  0  0  0  0  0  0  0
    2.7167    1.5331    3.6795 H   0  0  0  0  0  0  0  0  0  0  0  0
    1.5416    3.7238    3.4685 H   0  0  0  0  0  0  0  0  0  0  0  0
    3.0038    4.4510    2.7737 H   0  0  0  0  0  0  0  0  0  0  0  0
    4.5220    1.5143    5.2777 H   0  0  0  0  0  0  0  0  0  0  0  0
    2.8261    1.1644    5.7659 H   0  0  0  0  0  0  0  0  0  0  0  0
    4.7847    3.3531    7.9557 H   0  0  0  0  0  0  0  0  0  0  0  0
    7.1266    3.4035   11.1189 H   0  0  0  0  0  0  0  0  0  0  0  0
    7.0123    3.2623    9.3525 H   0  0  0  0  0  0  0  0  0  0  0  0
    5.5312   -1.0435    9.4888 H   0  0  0  0  0  0  0  0  0  0  0  0
    4.0639    7.0017    9.3450 H   0  0  0  0  0  0  0  0  0  0  0  0
    4.1170    5.2816    9.1144 H   0  0  0  0  0  0  0  0  0  0  0  0
    2.7335   -2.0394    0.3543 H   0  0  0  0  0  0  0  0  0  0  0  0
    4.1662   -1.2911   -0.3776 H   0  0  0  0  0  0  0  0  0  0  0  0
    2.7382   -1.6189   -1.3630 H   0  0  0  0  0  0  0  0  0  0  0  0
  1  2  1  0  0  0  0
  1 30  1  0  0  0  0
  1 31  1  0  0  0  0
  1 32  1  0  0  0  0
  2  3  1  0  0  0  0
  2 29  1  0  0  0  0
  2 33  1  0  0  0  0
  3  4  1  0  0  0  0
  3 34  1  0  0  0  0
  4  5  1  0  0  0  0
  4 35  1  0  0  0  0
  4 36  1  0  0  0  0
  5  6  1  0  0  0  0
  5 37  1  0  0  0  0
  5 38  1  0  0  0  0
  6  7  1  0  0  0  0
  6 39  1  0  0  0  0
  6 40  1  0  0  0  0
  7  8  1  0  0  0  0
  7 22  1  0  0  0  0
  8  9  1  0  0  0  0
  8 20  2  0  0  0  0
  9 10  1  0  0  0  0
  9 41  1  0  0  0  0
  9 42  1  0  0  0  0
 10 11  2  0  0  0  0
 10 18  1  0  0  0  0
 11 12  1  0  0  0  0
 11 43  1  0  0  0  0
 12 13  1  0  0  0  0
 12 16  2  0  0  0  0
 13 14  1  0  0  0  0
 14 15  1  0  0  0  0
 14 44  1  0  0  0  0
 14 45  1  0  0  0  0
 15 16  1  0  0  0  0
 16 17  1  0  0  0  0
 17 18  2  0  0  0  0
 17 46  1  0  0  0  0
 18 19  1  0  0  0  0
 20 21  1  0  0  0  0
 21 22  2  0  0  0  0
 21 27  1  0  0  0  0
 22 23  1  0  0  0  0
 23 24  2  0  0  0  0
 24 25  1  0  0  0  0
 24 26  1  0  0  0  0
 26 27  2  0  0  0  0
 27 28  1  0  0  0  0
 28 47  1  0  0  0  0
 28 48  1  0  0  0  0
 29 49  1  0  0  0  0
 29 50  1  0  0  0  0
 29 51  1  0  0  0  0
M  END
$$$$
