DZF
 OpenBabel04121316113D

 52 54  0  0  1  0  0  0  0  0999 V2000
    1.0612   -0.1906   -0.1559 O   0  0  0  0  0  0  0  0  0  0  0  0
    2.3782    0.0751   -0.0648 C   0  0  0  0  0  0  0  0  0  0  0  0
    2.8473    1.1814   -0.3029 O   0  0  0  0  0  0  0  0  0  0  0  0
    3.1225   -1.1973    0.1443 C   0  0  0  0  0  0  0  0  0  0  0  0
    4.6297   -1.0373    0.0783 C   0  0  0  0  0  0  0  0  0  0  0  0
    5.3650   -2.3727    0.2349 C   0  0  1  0  0  0  0  0  0  0  0  0
    5.0989   -2.8671    1.1767 H   0  0  0  0  0  0  0  0  0  0  0  0
    5.0867   -3.3401   -0.9547 C   0  0  0  0  0  0  0  0  0  0  0  0
    5.8910   -3.6134   -1.8366 O   0  0  0  0  0  0  0  0  0  0  0  0
    3.8349   -3.8597   -0.9894 O   0  0  0  0  0  0  0  0  0  0  0  0
    6.7923   -2.0917    0.3104 N   0  0  0  0  0  0  0  0  0  0  0  0
    7.6748   -3.1277    0.5220 C   0  0  0  0  0  0  0  0  0  0  0  0
    7.3071   -4.2725    0.7617 O   0  0  0  0  0  0  0  0  0  0  0  0
    9.1127   -2.8079    0.3926 C   0  0  0  0  0  0  0  0  0  0  0  0
    9.5916   -1.4955    0.3967 C   0  0  0  0  0  0  0  0  0  0  0  0
   10.9342   -1.2605    0.1381 C   0  0  0  0  0  0  0  0  0  0  0  0
   11.8273   -2.3281   -0.0053 C   0  0  0  0  0  0  0  0  0  0  0  0
   11.3612   -3.6300    0.1539 C   0  0  0  0  0  0  0  0  0  0  0  0
   10.0027   -3.8760    0.2708 C   0  0  0  0  0  0  0  0  0  0  0  0
   13.1649   -2.0300   -0.1777 N   0  0  0  0  0  0  0  0  0  0  0  0
   14.1300   -3.0733   -0.4869 C   0  0  0  0  0  0  0  0  0  0  0  0
   15.4622   -2.4989   -0.8728 C   0  0  0  0  0  0  0  0  0  0  0  0
   16.5447   -3.3254   -1.1666 C   0  0  0  0  0  0  0  0  0  0  0  0
   17.7822   -2.8732   -1.5149 N   0  0  0  0  0  0  0  0  0  0  0  0
   17.9539   -1.5300   -1.5804 C   0  0  0  0  0  0  0  0  0  0  0  0
   16.9280   -0.6486   -1.3068 C   0  0  0  0  0  0  0  0  0  0  0  0
   15.6872   -1.1284   -0.9462 C   0  0  0  0  0  0  0  0  0  0  0  0
   17.1738    0.7977   -1.4007 C   0  0  0  0  0  0  0  0  0  0  0  0
   16.2364    1.5588   -1.1618 O   0  0  0  0  0  0  0  0  0  0  0  0
   18.4210    1.2409   -1.7517 N   0  0  0  0  0  0  0  0  0  0  0  0
   19.3337    0.3544   -1.9888 C   0  0  0  0  0  0  0  0  0  0  0  0
   19.1882   -0.9917   -1.9285 N   0  0  0  0  0  0  0  0  0  0  0  0
   19.9223   -1.6507   -2.1192 H   0  0  0  0  0  0  0  0  0  0  0  0
   20.5609    0.7822   -2.3331 N   0  0  0  0  0  0  0  0  0  0  0  0
    0.6726    0.5423   -0.6746 H   0  0  0  0  0  0  0  0  0  0  0  0
    2.7899   -1.8073   -0.6982 H   0  0  0  0  0  0  0  0  0  0  0  0
    2.8212   -1.6648    1.0876 H   0  0  0  0  0  0  0  0  0  0  0  0
    4.9531   -0.3362    0.8609 H   0  0  0  0  0  0  0  0  0  0  0  0
    4.9102   -0.5704   -0.8759 H   0  0  0  0  0  0  0  0  0  0  0  0
    3.2522   -3.6507   -0.2382 H   0  0  0  0  0  0  0  0  0  0  0  0
    7.1274   -1.1982   -0.0214 H   0  0  0  0  0  0  0  0  0  0  0  0
    8.9557   -0.6431    0.6040 H   0  0  0  0  0  0  0  0  0  0  0  0
   11.2854   -0.2328    0.0603 H   0  0  0  0  0  0  0  0  0  0  0  0
   12.0406   -4.4750    0.1640 H   0  0  0  0  0  0  0  0  0  0  0  0
    9.6484   -4.9037    0.2707 H   0  0  0  0  0  0  0  0  0  0  0  0
   13.2789   -1.1280   -0.6226 H   0  0  0  0  0  0  0  0  0  0  0  0
   13.7777   -3.7240   -1.2990 H   0  0  0  0  0  0  0  0  0  0  0  0
   14.2658   -3.6750    0.4188 H   0  0  0  0  0  0  0  0  0  0  0  0
   16.4476   -4.4101   -1.1250 H   0  0  0  0  0  0  0  0  0  0  0  0
   14.9300   -0.3896   -0.7187 H   0  0  0  0  0  0  0  0  0  0  0  0
   20.6938    1.7857   -2.3852 H   0  0  0  0  0  0  0  0  0  0  0  0
   21.3390    0.1788   -2.5365 H   0  0  0  0  0  0  0  0  0  0  0  0
  1  2  1  0  0  0  0
  1 35  1  0  0  0  0
  2  3  2  0  0  0  0
  2  4  1  0  0  0  0
  4  5  1  0  0  0  0
  4 36  1  0  0  0  0
  4 37  1  0  0  0  0
  5  6  1  0  0  0  0
  5 38  1  0  0  0  0
  5 39  1  0  0  0  0
  6  7  1  1  0  0  0
  6  8  1  0  0  0  0
  6 11  1  0  0  0  0
  8  9  2  0  0  0  0
  8 10  1  0  0  0  0
 10 40  1  0  0  0  0
 11 12  1  0  0  0  0
 11 41  1  0  0  0  0
 12 13  2  0  0  0  0
 12 14  1  0  0  0  0
 14 15  2  0  0  0  0
 14 19  1  0  0  0  0
 15 16  1  0  0  0  0
 15 42  1  0  0  0  0
 16 17  2  0  0  0  0
 16 43  1  0  0  0  0
 17 18  1  0  0  0  0
 17 20  1  0  0  0  0
 18 19  2  0  0  0  0
 18 44  1  0  0  0  0
 19 45  1  0  0  0  0
 20 21  1  0  0  0  0
 20 46  1  0  0  0  0
 21 22  1  0  0  0  0
 21 47  1  0  0  0  0
 21 48  1  0  0  0  0
 22 23  2  0  0  0  0
 22 27  1  0  0  0  0
 23 24  1  0  0  0  0
 23 49  1  0  0  0  0
 24 25  2  0  0  0  0
 25 26  1  0  0  0  0
 25 32  1  0  0  0  0
 26 27  2  0  0  0  0
 26 28  1  0  0  0  0
 27 50  1  0  0  0  0
 28 29  2  0  0  0  0
 28 30  1  0  0  0  0
 30 31  2  0  0  0  0
 31 32  1  0  0  0  0
 31 34  1  0  0  0  0
 32 33  1  0  0  0  0
 34 51  1  0  0  0  0
 34 52  1  0  0  0  0
M  END
$$$$
