DZN
 OpenBabel04121316113D

 50 53  0  0  1  0  0  0  0  0999 V2000
    0.9383    0.1979   -0.0147 O   0  0  0  0  0  0  0  0  0  0  0  0
    2.3563    0.1578   -0.0823 C   0  0  0  0  0  0  0  0  0  0  0  0
    2.8536   -0.9870   -1.0092 C   0  0  1  0  0  0  0  0  0  0  0  0
    3.3299   -0.4945   -1.8664 H   0  0  0  0  0  0  0  0  0  0  0  0
    3.9212   -1.7304   -0.3795 O   0  0  0  0  0  0  0  0  0  0  0  0
    3.4701   -2.6336    0.6378 C   0  0  1  0  0  0  0  0  0  0  0  0
    4.3808   -3.1013    1.0184 H   0  0  0  0  0  0  0  0  0  0  0  0
    2.7077   -1.9178    1.5930 O   0  0  0  0  0  0  0  0  0  0  0  0
    2.9533   -1.9647    2.9051 C   0  0  0  0  0  0  0  0  0  0  0  0
    4.0080   -2.6565    3.4687 C   0  0  0  0  0  0  0  0  0  0  0  0
    4.3462   -2.3662    4.7606 C   0  0  0  0  0  0  0  0  0  0  0  0
    3.4327   -1.6644    5.5365 C   0  0  0  0  0  0  0  0  0  0  0  0
    2.2693   -1.1077    5.0177 C   0  0  0  0  0  0  0  0  0  0  0  0
    2.0756   -1.1802    3.6618 C   0  0  0  0  0  0  0  0  0  0  0  0
    1.3095   -0.5043    5.7828 O   0  0  0  0  0  0  0  0  0  0  0  0
    1.5133   -0.5121    7.1406 C   0  0  0  0  0  0  0  0  0  0  0  0
    2.5994   -0.9962    7.7594 C   0  0  0  0  0  0  0  0  0  0  0  0
    3.6625   -1.6216    6.9565 C   0  0  0  0  0  0  0  0  0  0  0  0
    4.6784   -2.1329    7.4353 O   0  0  0  0  0  0  0  0  0  0  0  0
    2.7789   -0.9250    9.1931 C   0  0  0  0  0  0  0  0  0  0  0  0
    3.9667   -0.3563    9.6702 C   0  0  0  0  0  0  0  0  0  0  0  0
    4.3054   -0.4975   11.0033 C   0  0  0  0  0  0  0  0  0  0  0  0
    3.3884   -1.0884   11.8647 C   0  0  0  0  0  0  0  0  0  0  0  0
    2.1522   -1.5468   11.4156 C   0  0  0  0  0  0  0  0  0  0  0  0
    1.8700   -1.5289   10.0584 C   0  0  0  0  0  0  0  0  0  0  0  0
    3.6833   -1.2569   13.1833 O   0  0  0  0  0  0  0  0  0  0  0  0
    2.4919   -3.7023    0.1320 C   0  0  1  0  0  0  0  0  0  0  0  0
    2.1397   -4.2770    0.9988 H   0  0  0  0  0  0  0  0  0  0  0  0
    1.2880   -2.9787   -0.5018 C   0  0  2  0  0  0  0  0  0  0  0  0
    0.6467   -3.7232   -0.9777 H   0  0  0  0  0  0  0  0  0  0  0  0
    1.7731   -1.9565   -1.5597 C   0  0  2  0  0  0  0  0  0  0  0  0
    0.9302   -1.3865   -1.9585 H   0  0  0  0  0  0  0  0  0  0  0  0
    2.3468   -2.6516   -2.6841 O   0  0  0  0  0  0  0  0  0  0  0  0
    0.4631   -2.3752    0.5061 O   0  0  0  0  0  0  0  0  0  0  0  0
    3.0842   -4.6310   -0.7734 O   0  0  0  0  0  0  0  0  0  0  0  0
    0.6750    0.7040    0.7728 H   0  0  0  0  0  0  0  0  0  0  0  0
    2.7463    0.0943    0.9344 H   0  0  0  0  0  0  0  0  0  0  0  0
    2.7203    1.1280   -0.4278 H   0  0  0  0  0  0  0  0  0  0  0  0
    4.6008   -3.3878    2.9392 H   0  0  0  0  0  0  0  0  0  0  0  0
    5.2829   -2.7252    5.1749 H   0  0  0  0  0  0  0  0  0  0  0  0
    1.2442   -0.6571    3.1953 H   0  0  0  0  0  0  0  0  0  0  0  0
    0.6819   -0.0495    7.6571 H   0  0  0  0  0  0  0  0  0  0  0  0
    4.6594    0.1279    8.9827 H   0  0  0  0  0  0  0  0  0  0  0  0
    5.2803   -0.1578   11.3333 H   0  0  0  0  0  0  0  0  0  0  0  0
    1.4276   -1.9504   12.1134 H   0  0  0  0  0  0  0  0  0  0  0  0
    0.9741   -2.0145    9.6787 H   0  0  0  0  0  0  0  0  0  0  0  0
    4.6160   -1.0177   13.3108 H   0  0  0  0  0  0  0  0  0  0  0  0
    1.7793   -3.4177   -2.8819 H   0  0  0  0  0  0  0  0  0  0  0  0
    0.9602   -1.6119    0.8654 H   0  0  0  0  0  0  0  0  0  0  0  0
    3.9435   -4.9014   -0.4072 H   0  0  0  0  0  0  0  0  0  0  0  0
  1  2  1  0  0  0  0
  1 36  1  0  0  0  0
  2  3  1  0  0  0  0
  2 37  1  0  0  0  0
  2 38  1  0  0  0  0
  3  4  1  6  0  0  0
  3  5  1  0  0  0  0
  3 31  1  0  0  0  0
  5  6  1  0  0  0  0
  6 27  1  0  0  0  0
  6  8  1  0  0  0  0
  6  7  1  1  0  0  0
  8  9  1  0  0  0  0
  9 10  2  0  0  0  0
  9 14  1  0  0  0  0
 10 11  1  0  0  0  0
 10 39  1  0  0  0  0
 11 12  2  0  0  0  0
 11 40  1  0  0  0  0
 12 13  1  0  0  0  0
 12 18  1  0  0  0  0
 13 14  2  0  0  0  0
 13 15  1  0  0  0  0
 14 41  1  0  0  0  0
 15 16  1  0  0  0  0
 16 17  2  0  0  0  0
 16 42  1  0  0  0  0
 17 18  1  0  0  0  0
 17 20  1  0  0  0  0
 18 19  2  0  0  0  0
 20 21  2  0  0  0  0
 20 25  1  0  0  0  0
 21 22  1  0  0  0  0
 21 43  1  0  0  0  0
 22 23  2  0  0  0  0
 22 44  1  0  0  0  0
 23 24  1  0  0  0  0
 23 26  1  0  0  0  0
 24 25  2  0  0  0  0
 24 45  1  0  0  0  0
 25 46  1  0  0  0  0
 26 47  1  0  0  0  0
 27 28  1  1  0  0  0
 27 29  1  0  0  0  0
 27 35  1  0  0  0  0
 29 31  1  0  0  0  0
 29 34  1  0  0  0  0
 29 30  1  6  0  0  0
 31 32  1  6  0  0  0
 31 33  1  0  0  0  0
 33 48  1  0  0  0  0
 34 49  1  0  0  0  0
 35 50  1  0  0  0  0
M  END
$$$$
