E16
 OpenBabel04121316113D

100102  0  0  1  0  0  0  0  0999 V2000
    5.1995    9.5919    6.5240 O   0  0  0  0  0  0  0  0  0  0  0  0
    4.5610    8.4725    5.9653 C   0  0  2  0  0  0  0  0  0  0  0  0
    4.5095    8.7281    4.8985 H   0  0  0  0  0  0  0  0  0  0  0  0
    3.1111    8.1294    6.3053 C   0  0  0  0  0  0  0  0  0  0  0  0
    2.6632    7.0006    6.0631 O   0  0  0  0  0  0  0  0  0  0  0  0
    2.2499    9.1155    6.6988 N   0  0  0  0  0  0  0  0  0  0  0  0
    2.5678   10.4907    6.9975 C   0  0  0  0  0  0  0  0  0  0  0  0
    1.7000   10.8396    8.5234 S   0  0  0  0  0  0  0  0  0  0  0  0
    0.3162    9.7127    8.1018 C   0  0  0  0  0  0  0  0  0  0  0  0
    0.8800    8.7165    7.0437 C   0  0  1  0  0  0  0  0  0  0  0  0
    0.9334    7.7099    7.4844 H   0  0  0  0  0  0  0  0  0  0  0  0
   -0.0393    8.4959    5.8167 C   0  0  0  0  0  0  0  0  0  0  0  0
   -1.2551    8.3674    5.9487 O   0  0  0  0  0  0  0  0  0  0  0  0
    0.5620    8.3920    4.5769 N   0  0  0  0  0  0  0  0  0  0  0  0
   -0.2052    8.4757    3.3325 C   0  0  1  0  0  0  0  0  0  0  0  0
   -1.1076    7.8648    3.4656 H   0  0  0  0  0  0  0  0  0  0  0  0
   -0.6222    9.9643    3.0332 C   0  0  0  0  0  0  0  0  0  0  0  0
    0.6349   10.8471    2.8983 C   0  0  0  0  0  0  0  0  0  0  0  0
   -1.4788   10.0487    1.7645 C   0  0  0  0  0  0  0  0  0  0  0  0
   -1.4897   10.5715    4.1443 C   0  0  0  0  0  0  0  0  0  0  0  0
    0.6089    7.8707    2.1776 C   0  0  0  0  0  0  0  0  0  0  0  0
   -0.8016   10.6493    7.6571 C   0  0  0  0  0  0  0  0  0  0  0  0
   -0.0903    8.9754    9.3702 C   0  0  0  0  0  0  0  0  0  0  0  0
    5.3781    7.1796    6.1941 C   0  0  2  0  0  0  0  0  0  0  0  0
    4.7393    6.2854    6.1605 H   0  0  0  0  0  0  0  0  0  0  0  0
    6.2000    7.0870    7.5087 C   0  0  0  0  0  0  0  0  0  0  0  0
    5.4333    7.2805    8.7952 C   0  0  0  0  0  0  0  0  0  0  0  0
    5.1111    6.1712    9.5790 C   0  0  0  0  0  0  0  0  0  0  0  0
    4.1904    6.2840   10.6180 C   0  0  0  0  0  0  0  0  0  0  0  0
    3.6260    7.5157   10.9282 C   0  0  0  0  0  0  0  0  0  0  0  0
    4.0638    8.6485   10.2719 C   0  0  0  0  0  0  0  0  0  0  0  0
    4.9765    8.5307    9.2353 C   0  0  0  0  0  0  0  0  0  0  0  0
    6.2231    6.9916    5.0414 N   0  0  0  0  0  0  0  0  0  0  0  0
    7.2492    7.8199    4.6568 C   0  0  0  0  0  0  0  0  0  0  0  0
    7.6065    8.7741    5.3117 O   0  0  0  0  0  0  0  0  0  0  0  0
    7.9645    7.3717    3.3516 C   0  0  2  0  0  0  0  0  0  0  0  0
    8.6121    8.2323    3.1175 H   0  0  0  0  0  0  0  0  0  0  0  0
    7.0175    7.1358    2.1047 C   0  0  0  0  0  0  0  0  0  0  0  0
    7.9192    6.9900    0.8686 C   0  0  0  0  0  0  0  0  0  0  0  0
    6.1183    5.8771    2.0958 C   0  0  0  0  0  0  0  0  0  0  0  0
    6.0661    8.3303    1.9244 C   0  0  0  0  0  0  0  0  0  0  0  0
    8.8693    6.2417    3.6454 N   0  0  0  0  0  0  0  0  0  0  0  0
    8.3312    5.0290    3.9709 C   0  0  0  0  0  0  0  0  0  0  0  0
    7.1117    4.9212    4.1634 O   0  0  0  0  0  0  0  0  0  0  0  0
    9.1189    3.7625    4.2460 C   0  0  2  0  0  0  0  0  0  0  0  0
    8.7726    3.0811    3.4536 H   0  0  0  0  0  0  0  0  0  0  0  0
    8.6735    3.2215    5.6022 C   0  0  0  0  0  0  0  0  0  0  0  0
    8.7699    1.8700    5.9129 C   0  0  0  0  0  0  0  0  0  0  0  0
    8.1723    1.3781    7.0783 C   0  0  0  0  0  0  0  0  0  0  0  0
    7.5374    2.2315    7.9774 C   0  0  0  0  0  0  0  0  0  0  0  0
    7.5326    3.5866    7.7313 C   0  0  0  0  0  0  0  0  0  0  0  0
    8.0746    4.0693    6.5520 C   0  0  0  0  0  0  0  0  0  0  0  0
   10.5690    3.9001    4.1606 N   0  0  0  0  0  0  0  0  0  0  0  0
    5.8851    9.2579    7.1205 H   0  0  0  0  0  0  0  0  0  0  0  0
    2.1839   11.1153    6.1874 H   0  0  0  0  0  0  0  0  0  0  0  0
    3.6104   10.7271    7.1524 H   0  0  0  0  0  0  0  0  0  0  0  0
    1.5067    8.0214    4.5503 H   0  0  0  0  0  0  0  0  0  0  0  0
    1.2527   10.5489    2.0478 H   0  0  0  0  0  0  0  0  0  0  0  0
    1.2592   10.7885    3.7988 H   0  0  0  0  0  0  0  0  0  0  0  0
    0.3670   11.8981    2.7582 H   0  0  0  0  0  0  0  0  0  0  0  0
   -0.9351    9.7323    0.8732 H   0  0  0  0  0  0  0  0  0  0  0  0
   -1.8096   11.0785    1.5916 H   0  0  0  0  0  0  0  0  0  0  0  0
   -2.3741    9.4237    1.8674 H   0  0  0  0  0  0  0  0  0  0  0  0
   -0.8877   10.6908    5.0327 H   0  0  0  0  0  0  0  0  0  0  0  0
   -2.3624    9.9511    4.3727 H   0  0  0  0  0  0  0  0  0  0  0  0
   -1.8448   11.5783    3.9039 H   0  0  0  0  0  0  0  0  0  0  0  0
    0.8786    6.8304    2.3808 H   0  0  0  0  0  0  0  0  0  0  0  0
    1.5451    8.4139    2.0140 H   0  0  0  0  0  0  0  0  0  0  0  0
    0.0445    7.8801    1.2403 H   0  0  0  0  0  0  0  0  0  0  0  0
   -0.4974   11.2401    6.7923 H   0  0  0  0  0  0  0  0  0  0  0  0
   -1.0709   11.3704    8.4356 H   0  0  0  0  0  0  0  0  0  0  0  0
   -1.7194   10.1031    7.4256 H   0  0  0  0  0  0  0  0  0  0  0  0
    0.7292    8.3640    9.7645 H   0  0  0  0  0  0  0  0  0  0  0  0
   -0.9330    8.3082    9.1620 H   0  0  0  0  0  0  0  0  0  0  0  0
   -0.4015    9.6759   10.1519 H   0  0  0  0  0  0  0  0  0  0  0  0
    7.0891    7.7241    7.4875 H   0  0  0  0  0  0  0  0  0  0  0  0
    6.6153    6.0848    7.5242 H   0  0  0  0  0  0  0  0  0  0  0  0
    5.5454    5.1975    9.3868 H   0  0  0  0  0  0  0  0  0  0  0  0
    3.8973    5.3981   11.1702 H   0  0  0  0  0  0  0  0  0  0  0  0
    2.8635    7.6041   11.6923 H   0  0  0  0  0  0  0  0  0  0  0  0
    3.6888    9.6352   10.5285 H   0  0  0  0  0  0  0  0  0  0  0  0
    5.2579    9.4801    8.8002 H   0  0  0  0  0  0  0  0  0  0  0  0
    6.2248    6.0495    4.6542 H   0  0  0  0  0  0  0  0  0  0  0  0
    8.6353    6.1702    1.0047 H   0  0  0  0  0  0  0  0  0  0  0  0
    8.4838    7.9047    0.6714 H   0  0  0  0  0  0  0  0  0  0  0  0
    7.3203    6.7520   -0.0155 H   0  0  0  0  0  0  0  0  0  0  0  0
    6.7186    4.9622    2.0806 H   0  0  0  0  0  0  0  0  0  0  0  0
    5.5057    5.7938    1.1975 H   0  0  0  0  0  0  0  0  0  0  0  0
    5.4030    5.8668    2.9229 H   0  0  0  0  0  0  0  0  0  0  0  0
    6.6095    9.2599    1.7391 H   0  0  0  0  0  0  0  0  0  0  0  0
    5.4331    8.4772    2.8053 H   0  0  0  0  0  0  0  0  0  0  0  0
    5.3876    8.1534    1.0828 H   0  0  0  0  0  0  0  0  0  0  0  0
    9.8728    6.3551    3.5319 H   0  0  0  0  0  0  0  0  0  0  0  0
    9.2848    1.1921    5.2408 H   0  0  0  0  0  0  0  0  0  0  0  0
    8.2001    0.3159    7.2911 H   0  0  0  0  0  0  0  0  0  0  0  0
    7.0621    1.8559    8.8771 H   0  0  0  0  0  0  0  0  0  0  0  0
    7.1048    4.2707    8.4476 H   0  0  0  0  0  0  0  0  0  0  0  0
    7.9600    5.1303    6.3497 H   0  0  0  0  0  0  0  0  0  0  0  0
   10.9360    2.9584    4.3244 H   0  0  0  0  0  0  0  0  0  0  0  0
   10.8757    4.4342    4.9709 H   0  0  0  0  0  0  0  0  0  0  0  0
  1 54  1  0  0  0  0
  2  4  1  0  0  0  0
  2  3  1  6  0  0  0
  2  1  1  0  0  0  0
  4  5  2  0  0  0  0
  4  6  1  0  0  0  0
  6  7  1  0  0  0  0
  6 10  1  0  0  0  0
  7  8  1  0  0  0  0
  7 55  1  0  0  0  0
  7 56  1  0  0  0  0
  8  9  1  0  0  0  0
  9 10  1  0  0  0  0
  9 22  1  0  0  0  0
  9 23  1  0  0  0  0
 10 12  1  0  0  0  0
 10 11  1  1  0  0  0
 12 13  2  0  0  0  0
 12 14  1  0  0  0  0
 14 15  1  0  0  0  0
 14 57  1  0  0  0  0
 15 16  1  1  0  0  0
 15 17  1  0  0  0  0
 15 21  1  0  0  0  0
 17 18  1  0  0  0  0
 17 19  1  0  0  0  0
 17 20  1  0  0  0  0
 18 58  1  0  0  0  0
 18 59  1  0  0  0  0
 18 60  1  0  0  0  0
 19 61  1  0  0  0  0
 19 62  1  0  0  0  0
 19 63  1  0  0  0  0
 20 64  1  0  0  0  0
 20 65  1  0  0  0  0
 20 66  1  0  0  0  0
 21 67  1  0  0  0  0
 21 68  1  0  0  0  0
 21 69  1  0  0  0  0
 22 70  1  0  0  0  0
 22 71  1  0  0  0  0
 22 72  1  0  0  0  0
 23 73  1  0  0  0  0
 23 74  1  0  0  0  0
 23 75  1  0  0  0  0
 24 26  1  0  0  0  0
 24 33  1  0  0  0  0
 24 25  1  1  0  0  0
 24  2  1  0  0  0  0
 26 27  1  0  0  0  0
 26 76  1  0  0  0  0
 26 77  1  0  0  0  0
 27 28  2  0  0  0  0
 27 32  1  0  0  0  0
 28 29  1  0  0  0  0
 28 78  1  0  0  0  0
 29 30  2  0  0  0  0
 29 79  1  0  0  0  0
 30 31  1  0  0  0  0
 30 80  1  0  0  0  0
 31 32  2  0  0  0  0
 31 81  1  0  0  0  0
 32 82  1  0  0  0  0
 33 34  1  0  0  0  0
 33 83  1  0  0  0  0
 34 35  2  0  0  0  0
 36 38  1  0  0  0  0
 36 42  1  0  0  0  0
 36 37  1  6  0  0  0
 36 34  1  0  0  0  0
 38 39  1  0  0  0  0
 38 40  1  0  0  0  0
 38 41  1  0  0  0  0
 39 84  1  0  0  0  0
 39 85  1  0  0  0  0
 39 86  1  0  0  0  0
 40 87  1  0  0  0  0
 40 88  1  0  0  0  0
 40 89  1  0  0  0  0
 41 90  1  0  0  0  0
 41 91  1  0  0  0  0
 41 92  1  0  0  0  0
 42 43  1  0  0  0  0
 42 93  1  0  0  0  0
 43 44  2  0  0  0  0
 45 47  1  0  0  0  0
 45 53  1  0  0  0  0
 45 46  1  6  0  0  0
 45 43  1  0  0  0  0
 47 48  2  0  0  0  0
 47 52  1  0  0  0  0
 48 49  1  0  0  0  0
 48 94  1  0  0  0  0
 49 50  2  0  0  0  0
 49 95  1  0  0  0  0
 50 51  1  0  0  0  0
 50 96  1  0  0  0  0
 51 52  2  0  0  0  0
 51 97  1  0  0  0  0
 52 98  1  0  0  0  0
 53 99  1  0  0  0  0
 53100  1  0  0  0  0
M  END
$$$$
