E20
 OpenBabel04121316113D

 57 60  0  0  1  0  0  0  0  0999 V2000
    1.1054    0.3957   -0.3679 C   0  0  0  0  0  0  0  0  0  0  0  0
    2.5112    0.3230   -0.0869 O   0  0  0  0  0  0  0  0  0  0  0  0
    3.2232   -0.6948   -0.6719 C   0  0  0  0  0  0  0  0  0  0  0  0
    3.9247   -0.4201   -1.8488 C   0  0  0  0  0  0  0  0  0  0  0  0
    4.6195   -1.4584   -2.5821 C   0  0  0  0  0  0  0  0  0  0  0  0
    4.9824   -2.7021   -2.1681 C   0  0  0  0  0  0  0  0  0  0  0  0
    4.2638   -2.9940   -0.9283 C   0  0  0  0  0  0  0  0  0  0  0  0
    3.3306   -2.0169   -0.2128 C   0  0  0  0  0  0  0  0  0  0  0  0
    2.3637   -2.5884    0.6211 O   0  0  0  0  0  0  0  0  0  0  0  0
    1.6955   -1.8089    1.6250 C   0  0  0  0  0  0  0  0  0  0  0  0
    5.2227   -3.6461   -3.7090 C   0  0  0  0  0  0  0  0  0  0  0  0
    3.9530   -4.1053   -3.3311 C   0  0  2  0  0  0  0  0  0  0  0  0
    4.3579   -5.0102   -3.8451 H   0  0  0  0  0  0  0  0  0  0  0  0
    4.1269   -2.2043   -3.7334 C   0  0  0  0  0  0  0  0  0  0  0  0
    4.4545   -1.5807   -4.7864 O   0  0  0  0  0  0  0  0  0  0  0  0
    2.6311   -5.0388   -3.0782 C   0  0  0  0  0  0  0  0  0  0  0  0
    1.8304   -4.3464   -1.9674 C   0  0  0  0  0  0  0  0  0  0  0  0
    1.7934   -3.0223   -2.6450 C   0  0  0  0  0  0  0  0  0  0  0  0
    0.9783   -2.8514   -3.8881 C   0  0  0  0  0  0  0  0  0  0  0  0
   -0.3238   -2.8200   -3.3231 N   0  0  0  0  0  0  0  0  0  0  0  0
   -0.5659   -4.0655   -2.5247 C   0  0  0  0  0  0  0  0  0  0  0  0
    0.4262   -4.3910   -1.4092 C   0  0  0  0  0  0  0  0  0  0  0  0
   -0.2632   -1.6201   -2.4861 C   0  0  0  0  0  0  0  0  0  0  0  0
   -1.5778   -1.2889   -1.9802 C   0  0  0  0  0  0  0  0  0  0  0  0
   -2.4577   -0.8221   -2.9328 C   0  0  0  0  0  0  0  0  0  0  0  0
   -3.6629   -0.3654   -2.4950 C   0  0  0  0  0  0  0  0  0  0  0  0
   -4.0058   -0.5190   -1.1479 C   0  0  0  0  0  0  0  0  0  0  0  0
   -3.1597   -1.1509   -0.2338 C   0  0  0  0  0  0  0  0  0  0  0  0
   -1.9010   -1.4981   -0.6395 C   0  0  0  0  0  0  0  0  0  0  0  0
    0.6174    1.0036    0.4047 H   0  0  0  0  0  0  0  0  0  0  0  0
    0.6249   -0.5657   -0.2926 H   0  0  0  0  0  0  0  0  0  0  0  0
    0.8593    0.7895   -1.3547 H   0  0  0  0  0  0  0  0  0  0  0  0
    4.0244    0.6165   -2.1748 H   0  0  0  0  0  0  0  0  0  0  0  0
    4.1819   -4.0418   -0.6347 H   0  0  0  0  0  0  0  0  0  0  0  0
    1.1337   -2.4871    2.2751 H   0  0  0  0  0  0  0  0  0  0  0  0
    0.8767   -1.1605    1.3201 H   0  0  0  0  0  0  0  0  0  0  0  0
    2.4117   -1.2064    2.1769 H   0  0  0  0  0  0  0  0  0  0  0  0
    6.2017   -4.0201   -3.9277 H   0  0  0  0  0  0  0  0  0  0  0  0
    4.7134   -3.5955   -4.8370 H   0  0  0  0  0  0  0  0  0  0  0  0
    2.0601   -5.1405   -4.0029 H   0  0  0  0  0  0  0  0  0  0  0  0
    2.8101   -6.0779   -2.7566 H   0  0  0  0  0  0  0  0  0  0  0  0
    2.4094   -4.5424   -1.0618 H   0  0  0  0  0  0  0  0  0  0  0  0
    2.6012   -2.9004   -3.2214 H   0  0  0  0  0  0  0  0  0  0  0  0
    1.9283   -2.1744   -2.0142 H   0  0  0  0  0  0  0  0  0  0  0  0
    1.1324   -3.6074   -4.6639 H   0  0  0  0  0  0  0  0  0  0  0  0
    1.3344   -1.9221   -4.3741 H   0  0  0  0  0  0  0  0  0  0  0  0
   -0.5181   -4.9215   -3.2014 H   0  0  0  0  0  0  0  0  0  0  0  0
   -1.5643   -4.0156   -2.0971 H   0  0  0  0  0  0  0  0  0  0  0  0
    0.1986   -5.3013   -0.8470 H   0  0  0  0  0  0  0  0  0  0  0  0
    0.3600   -3.6074   -0.6267 H   0  0  0  0  0  0  0  0  0  0  0  0
    0.1815   -0.7517   -3.0114 H   0  0  0  0  0  0  0  0  0  0  0  0
    0.3370   -1.7463   -1.5993 H   0  0  0  0  0  0  0  0  0  0  0  0
   -2.1576   -0.8320   -3.9802 H   0  0  0  0  0  0  0  0  0  0  0  0
   -4.3210    0.0968   -3.2146 H   0  0  0  0  0  0  0  0  0  0  0  0
   -4.9624   -0.1493   -0.8115 H   0  0  0  0  0  0  0  0  0  0  0  0
   -3.4677   -1.3622    0.7823 H   0  0  0  0  0  0  0  0  0  0  0  0
   -1.1889   -1.9388    0.0576 H   0  0  0  0  0  0  0  0  0  0  0  0
  1  2  1  0  0  0  0
  1 30  1  0  0  0  0
  1 31  1  0  0  0  0
  1 32  1  0  0  0  0
  2  3  1  0  0  0  0
  3  4  2  0  0  0  0
  3  8  1  0  0  0  0
  4  5  1  0  0  0  0
  4 33  1  0  0  0  0
  5  6  2  0  0  0  0
  5 14  1  0  0  0  0
  6  7  1  0  0  0  0
  6 11  1  0  0  0  0
  7  8  2  0  0  0  0
  7 34  1  0  0  0  0
  8  9  1  0  0  0  0
  9 10  1  0  0  0  0
 10 35  1  0  0  0  0
 10 36  1  0  0  0  0
 10 37  1  0  0  0  0
 11 12  1  0  0  0  0
 11 38  1  0  0  0  0
 11 39  1  0  0  0  0
 12 14  1  0  0  0  0
 12 16  1  0  0  0  0
 12 13  1  6  0  0  0
 14 15  2  0  0  0  0
 16 17  1  0  0  0  0
 16 40  1  0  0  0  0
 16 41  1  0  0  0  0
 17 18  1  0  0  0  0
 17 22  1  0  0  0  0
 17 42  1  0  0  0  0
 18 19  1  0  0  0  0
 18 43  1  0  0  0  0
 18 44  1  0  0  0  0
 19 20  1  0  0  0  0
 19 45  1  0  0  0  0
 19 46  1  0  0  0  0
 20 21  1  0  0  0  0
 20 23  1  0  0  0  0
 21 22  1  0  0  0  0
 21 47  1  0  0  0  0
 21 48  1  0  0  0  0
 22 49  1  0  0  0  0
 22 50  1  0  0  0  0
 23 24  1  0  0  0  0
 23 51  1  0  0  0  0
 23 52  1  0  0  0  0
 24 25  2  0  0  0  0
 24 29  1  0  0  0  0
 25 26  1  0  0  0  0
 25 53  1  0  0  0  0
 26 27  2  0  0  0  0
 26 54  1  0  0  0  0
 27 28  1  0  0  0  0
 27 55  1  0  0  0  0
 28 29  2  0  0  0  0
 28 56  1  0  0  0  0
 29 57  1  0  0  0  0
M  END
$$$$
