E38
 OpenBabel04121316113D

 36 38  0  0  0  0  0  0  0  0999 V2000
    0.9988   -0.0088   -0.0647 Br  0  0  0  0  0  0  0  0  0  0  0  0
    2.8938   -0.0045   -0.0686 C   0  0  0  0  0  0  0  0  0  0  0  0
    3.5761   -1.2224   -0.0703 C   0  0  0  0  0  0  0  0  0  0  0  0
    4.9762   -1.2580   -0.0788 C   0  0  0  0  0  0  0  0  0  0  0  0
    5.6410   -0.0248   -0.0821 C   0  0  0  0  0  0  0  0  0  0  0  0
    4.9838    1.2043   -0.0784 C   0  0  0  0  0  0  0  0  0  0  0  0
    3.5784    1.2190   -0.0719 C   0  0  0  0  0  0  0  0  0  0  0  0
    5.8883    2.2550   -0.0824 N   0  0  0  0  0  0  0  0  0  0  0  0
    7.0680    1.6833   -0.0870 C   0  0  0  0  0  0  0  0  0  0  0  0
    6.9719    0.3155   -0.0884 N   0  0  0  0  0  0  0  0  0  0  0  0
    7.7531   -0.3233   -0.0918 H   0  0  0  0  0  0  0  0  0  0  0  0
    8.6367    2.4057   -0.0911 S   0  0  0  0  0  0  0  0  0  0  0  0
    8.3572    4.2151   -0.0833 C   0  0  0  0  0  0  0  0  0  0  0  0
    9.7080    4.9526   -0.1102 C   0  0  0  0  0  0  0  0  0  0  0  0
   10.8159    4.4233   -0.1509 O   0  0  0  0  0  0  0  0  0  0  0  0
    9.7005    6.4369   -0.1439 C   0  0  0  0  0  0  0  0  0  0  0  0
    9.4732    7.1700    1.0194 C   0  0  0  0  0  0  0  0  0  0  0  0
    9.5535    8.5682    0.9831 C   0  0  0  0  0  0  0  0  0  0  0  0
    9.7363    9.2445   -0.2285 C   0  0  0  0  0  0  0  0  0  0  0  0
    9.9732    8.5059   -1.3881 C   0  0  0  0  0  0  0  0  0  0  0  0
   10.0377    7.0998   -1.3301 C   0  0  0  0  0  0  0  0  0  0  0  0
   10.0975    9.3531   -2.9364 S   0  0  0  0  0  0  0  0  0  0  0  0
    8.7922    9.8748   -3.2502 O   0  0  0  0  0  0  0  0  0  0  0  0
   11.3065   10.1462   -2.9236 O   0  0  0  0  0  0  0  0  0  0  0  0
   10.3675    8.1182   -4.0227 N   0  0  0  0  0  0  0  0  0  0  0  0
    9.6252   10.9665   -0.1916 Cl  0  0  0  0  0  0  0  0  0  0  0  0
    3.0211   -2.1600   -0.0654 H   0  0  0  0  0  0  0  0  0  0  0  0
    5.5069   -2.2051   -0.0825 H   0  0  0  0  0  0  0  0  0  0  0  0
    3.0471    2.1631   -0.0696 H   0  0  0  0  0  0  0  0  0  0  0  0
    7.8073    4.5023    0.8175 H   0  0  0  0  0  0  0  0  0  0  0  0
    7.7900    4.5006   -0.9752 H   0  0  0  0  0  0  0  0  0  0  0  0
    9.2704    6.6712    1.9634 H   0  0  0  0  0  0  0  0  0  0  0  0
    9.4621    9.1352    1.9081 H   0  0  0  0  0  0  0  0  0  0  0  0
   10.3428    6.5074   -2.1880 H   0  0  0  0  0  0  0  0  0  0  0  0
    9.5582    7.5595   -4.2750 H   0  0  0  0  0  0  0  0  0  0  0  0
   11.3109    7.7451   -4.0506 H   0  0  0  0  0  0  0  0  0  0  0  0
  1  2  1  0  0  0  0
  2  3  2  0  0  0  0
  2  7  1  0  0  0  0
  3  4  1  0  0  0  0
  3 27  1  0  0  0  0
  4  5  2  0  0  0  0
  4 28  1  0  0  0  0
  5  6  1  0  0  0  0
  5 10  1  0  0  0  0
  6  7  2  0  0  0  0
  6  8  1  0  0  0  0
  7 29  1  0  0  0  0
  8  9  2  0  0  0  0
  9 10  1  0  0  0  0
  9 12  1  0  0  0  0
 10 11  1  0  0  0  0
 12 13  1  0  0  0  0
 13 14  1  0  0  0  0
 13 30  1  0  0  0  0
 13 31  1  0  0  0  0
 14 15  2  0  0  0  0
 14 16  1  0  0  0  0
 16 17  2  0  0  0  0
 16 21  1  0  0  0  0
 17 18  1  0  0  0  0
 17 32  1  0  0  0  0
 18 19  2  0  0  0  0
 18 33  1  0  0  0  0
 19 20  1  0  0  0  0
 19 26  1  0  0  0  0
 20 21  2  0  0  0  0
 20 22  1  0  0  0  0
 21 34  1  0  0  0  0
 22 23  2  0  0  0  0
 22 24  2  0  0  0  0
 22 25  1  0  0  0  0
 25 35  1  0  0  0  0
 25 36  1  0  0  0  0
M  END
$$$$
