E4D
 OpenBabel04121316113D

 62 66  0  0  1  0  0  0  0  0999 V2000
    0.8077   -0.1298    0.1950 O   0  0  0  0  0  0  0  0  0  0  0  0
    2.1644   -0.0681    0.1183 C   0  0  0  0  0  0  0  0  0  0  0  0
    2.8076    1.1539    0.1000 C   0  0  0  0  0  0  0  0  0  0  0  0
    4.1728    1.1811   -0.1308 C   0  0  0  0  0  0  0  0  0  0  0  0
    4.9340   -0.0003   -0.2653 C   0  0  0  0  0  0  0  0  0  0  0  0
    4.2662   -1.2237   -0.1149 C   0  0  0  0  0  0  0  0  0  0  0  0
    2.8802   -1.2546    0.0343 C   0  0  0  0  0  0  0  0  0  0  0  0
    6.4094    0.0287   -0.6562 C   0  0  1  0  0  0  0  0  0  0  0  0
    6.4681   -0.2980   -1.7018 H   0  0  0  0  0  0  0  0  0  0  0  0
    7.0248    1.7443   -0.7623 S   0  0  0  0  0  0  0  0  0  0  0  0
    8.7425    1.4671   -0.5803 C   0  0  0  0  0  0  0  0  0  0  0  0
    9.4798    2.6367   -0.4155 C   0  0  0  0  0  0  0  0  0  0  0  0
   10.8538    2.5703   -0.3827 C   0  0  0  0  0  0  0  0  0  0  0  0
   11.5803    3.7174   -0.3010 O   0  0  0  0  0  0  0  0  0  0  0  0
   11.4974    1.3420   -0.4599 C   0  0  0  0  0  0  0  0  0  0  0  0
   10.7493    0.1568   -0.4917 C   0  0  0  0  0  0  0  0  0  0  0  0
    9.3572    0.2151   -0.5086 C   0  0  0  0  0  0  0  0  0  0  0  0
    8.6862   -0.9753   -0.3907 O   0  0  0  0  0  0  0  0  0  0  0  0
    7.3388   -0.9119    0.1571 C   0  0  1  0  0  0  0  0  0  0  0  0
    6.9757   -1.9369   -0.0122 H   0  0  0  0  0  0  0  0  0  0  0  0
    7.3317   -0.7168    1.6703 C   0  0  0  0  0  0  0  0  0  0  0  0
    7.9126    0.4276    2.2379 C   0  0  0  0  0  0  0  0  0  0  0  0
    8.0425    0.6023    3.5957 C   0  0  0  0  0  0  0  0  0  0  0  0
    7.4634   -0.3017    4.4264 C   0  0  0  0  0  0  0  0  0  0  0  0
    6.7627   -1.4087    3.9082 C   0  0  0  0  0  0  0  0  0  0  0  0
    6.7420   -1.6411    2.5293 C   0  0  0  0  0  0  0  0  0  0  0  0
    7.6475    0.0329    5.7375 O   0  0  0  0  0  0  0  0  0  0  0  0
    7.1351   -0.9487    6.5951 C   0  0  0  0  0  0  0  0  0  0  0  0
    7.6651   -0.7467    8.0032 C   0  0  0  0  0  0  0  0  0  0  0  0
    7.2195   -1.7939    8.9450 N   0  0  0  0  0  0  0  0  0  0  0  0
    6.9506   -3.0982    8.3120 C   0  0  0  0  0  0  0  0  0  0  0  0
    8.2204   -3.7524    7.7527 C   0  0  0  0  0  0  0  0  0  0  0  0
    9.2293   -3.9538    8.8671 C   0  0  0  0  0  0  0  0  0  0  0  0
    9.4999   -2.6289    9.5799 C   0  0  0  0  0  0  0  0  0  0  0  0
    8.1924   -1.9623   10.0364 C   0  0  0  0  0  0  0  0  0  0  0  0
    0.4719    0.7800    0.1279 H   0  0  0  0  0  0  0  0  0  0  0  0
    2.2846    2.0951    0.2289 H   0  0  0  0  0  0  0  0  0  0  0  0
    4.6104    2.1716   -0.2238 H   0  0  0  0  0  0  0  0  0  0  0  0
    4.7986   -2.1706   -0.1386 H   0  0  0  0  0  0  0  0  0  0  0  0
    2.3600   -2.2062    0.0626 H   0  0  0  0  0  0  0  0  0  0  0  0
    8.9598    3.5850   -0.3038 H   0  0  0  0  0  0  0  0  0  0  0  0
   10.9574    4.4666   -0.2895 H   0  0  0  0  0  0  0  0  0  0  0  0
   12.5811    1.3066   -0.4749 H   0  0  0  0  0  0  0  0  0  0  0  0
   11.2559   -0.8047   -0.4860 H   0  0  0  0  0  0  0  0  0  0  0  0
    8.2958    1.2446    1.6704 H   0  0  0  0  0  0  0  0  0  0  0  0
    8.5811    1.4654    3.9773 H   0  0  0  0  0  0  0  0  0  0  0  0
    6.2296   -2.1079    4.5405 H   0  0  0  0  0  0  0  0  0  0  0  0
    6.2417   -2.5375    2.1627 H   0  0  0  0  0  0  0  0  0  0  0  0
    7.4850   -1.9090    6.2179 H   0  0  0  0  0  0  0  0  0  0  0  0
    6.0424   -0.9168    6.5792 H   0  0  0  0  0  0  0  0  0  0  0  0
    7.3400    0.2370    8.3632 H   0  0  0  0  0  0  0  0  0  0  0  0
    8.7574   -0.6693    7.9368 H   0  0  0  0  0  0  0  0  0  0  0  0
    6.1812   -3.0065    7.5341 H   0  0  0  0  0  0  0  0  0  0  0  0
    6.4864   -3.7625    9.0505 H   0  0  0  0  0  0  0  0  0  0  0  0
    8.7166   -3.1399    6.9920 H   0  0  0  0  0  0  0  0  0  0  0  0
    7.9664   -4.6934    7.2562 H   0  0  0  0  0  0  0  0  0  0  0  0
   10.1576   -4.3534    8.4480 H   0  0  0  0  0  0  0  0  0  0  0  0
    8.8338   -4.6861    9.5776 H   0  0  0  0  0  0  0  0  0  0  0  0
   10.0533   -1.9638    8.9054 H   0  0  0  0  0  0  0  0  0  0  0  0
   10.1535   -2.7975   10.4403 H   0  0  0  0  0  0  0  0  0  0  0  0
    8.4007   -0.9958   10.5110 H   0  0  0  0  0  0  0  0  0  0  0  0
    7.7306   -2.5839   10.8139 H   0  0  0  0  0  0  0  0  0  0  0  0
  1  2  1  0  0  0  0
  1 36  1  0  0  0  0
  2  3  2  0  0  0  0
  2  7  1  0  0  0  0
  3  4  1  0  0  0  0
  3 37  1  0  0  0  0
  4  5  2  0  0  0  0
  4 38  1  0  0  0  0
  5  6  1  0  0  0  0
  5  8  1  0  0  0  0
  6  7  2  0  0  0  0
  6 39  1  0  0  0  0
  7 40  1  0  0  0  0
  8  9  1  6  0  0  0
  8 10  1  0  0  0  0
  8 19  1  0  0  0  0
 10 11  1  0  0  0  0
 11 12  2  0  0  0  0
 11 17  1  0  0  0  0
 12 13  1  0  0  0  0
 12 41  1  0  0  0  0
 13 14  1  0  0  0  0
 13 15  2  0  0  0  0
 14 42  1  0  0  0  0
 15 16  1  0  0  0  0
 15 43  1  0  0  0  0
 16 17  2  0  0  0  0
 16 44  1  0  0  0  0
 17 18  1  0  0  0  0
 18 19  1  0  0  0  0
 19 21  1  0  0  0  0
 19 20  1  6  0  0  0
 21 22  2  0  0  0  0
 21 26  1  0  0  0  0
 22 23  1  0  0  0  0
 22 45  1  0  0  0  0
 23 24  2  0  0  0  0
 23 46  1  0  0  0  0
 24 25  1  0  0  0  0
 24 27  1  0  0  0  0
 25 26  2  0  0  0  0
 25 47  1  0  0  0  0
 26 48  1  0  0  0  0
 27 28  1  0  0  0  0
 28 29  1  0  0  0  0
 28 49  1  0  0  0  0
 28 50  1  0  0  0  0
 29 30  1  0  0  0  0
 29 51  1  0  0  0  0
 29 52  1  0  0  0  0
 30 31  1  0  0  0  0
 30 35  1  0  0  0  0
 31 32  1  0  0  0  0
 31 53  1  0  0  0  0
 31 54  1  0  0  0  0
 32 33  1  0  0  0  0
 32 55  1  0  0  0  0
 32 56  1  0  0  0  0
 33 34  1  0  0  0  0
 33 57  1  0  0  0  0
 33 58  1  0  0  0  0
 34 35  1  0  0  0  0
 34 59  1  0  0  0  0
 34 60  1  0  0  0  0
 35 61  1  0  0  0  0
 35 62  1  0  0  0  0
M  END
$$$$
