E4P
 OpenBabel04121316113D

 21 20  0  0  1  0  0  0  0  0999 V2000
    0.8800   -0.0200   -0.1067 O   0  0  0  0  0  0  0  0  0  0  0  0
    2.1192   -0.0220   -0.0538 C   0  0  0  0  0  0  0  0  0  0  0  0
    2.9055   -1.1103    0.6326 C   0  0  1  0  0  0  0  0  0  0  0  0
    2.6670   -1.1037    1.7026 H   0  0  0  0  0  0  0  0  0  0  0  0
    2.5398   -2.4653   -0.0094 C   0  0  1  0  0  0  0  0  0  0  0  0
    2.7940   -2.4547   -1.0760 H   0  0  0  0  0  0  0  0  0  0  0  0
    3.2996   -3.6013    0.6596 C   0  0  0  0  0  0  0  0  0  0  0  0
    4.7028   -3.3959    0.5698 O   0  0  0  0  0  0  0  0  0  0  0  0
    5.5678   -4.6680    1.3613 P   0  0  0  0  0  0  0  0  0  0  0  0
    6.8951   -4.1154    0.8639 O   0  0  0  0  0  0  0  0  0  0  0  0
    5.1756   -4.0149    2.7974 O   0  0  0  0  0  0  0  0  0  0  0  0
    6.4328   -5.9401    2.1528 O   0  0  0  0  0  0  0  0  0  0  0  0
    1.1470   -2.7728    0.1227 O   0  0  0  0  0  0  0  0  0  0  0  0
    4.2866   -0.8036    0.4636 O   0  0  0  0  0  0  0  0  0  0  0  0
    2.7040    0.7730   -0.5361 H   0  0  0  0  0  0  0  0  0  0  0  0
    3.0426   -4.5653    0.2045 H   0  0  0  0  0  0  0  0  0  0  0  0
    2.9993   -3.6681    1.7130 H   0  0  0  0  0  0  0  0  0  0  0  0
    5.0886   -3.0498    2.7045 H   0  0  0  0  0  0  0  0  0  0  0  0
    7.0186   -6.3448    1.4879 H   0  0  0  0  0  0  0  0  0  0  0  0
    0.6371   -2.0135   -0.2309 H   0  0  0  0  0  0  0  0  0  0  0  0
    4.5225   -0.0374    1.0121 H   0  0  0  0  0  0  0  0  0  0  0  0
  1  2  2  0  0  0  0
  2  3  1  0  0  0  0
  2 15  1  0  0  0  0
  3  4  1  1  0  0  0
  3  5  1  0  0  0  0
  3 14  1  0  0  0  0
  5  6  1  6  0  0  0
  5  7  1  0  0  0  0
  5 13  1  0  0  0  0
  7  8  1  0  0  0  0
  7 16  1  0  0  0  0
  7 17  1  0  0  0  0
  8  9  1  0  0  0  0
  9 10  2  0  0  0  0
  9 11  1  0  0  0  0
  9 12  1  0  0  0  0
 11 18  1  0  0  0  0
 12 19  1  0  0  0  0
 13 20  1  0  0  0  0
 14 21  1  0  0  0  0
M  END
$$$$
