E64
 OpenBabel04121316113D

 55 54  0  0  1  0  0  0  0  0999 V2000
    0.0392   -6.9261    1.6896 C   0  0  0  0  0  0  0  0  0  0  0  0
   -0.7114   -5.7620    2.2957 C   0  0  0  0  0  0  0  0  0  0  0  0
    0.2409   -4.6527    2.7704 C   0  0  0  0  0  0  0  0  0  0  0  0
    1.0468   -4.9545    4.0722 C   0  0  1  0  0  0  0  0  0  0  0  0
    0.3557   -5.1433    4.9015 H   0  0  0  0  0  0  0  0  0  0  0  0
    2.0576   -6.1522    3.9748 C   0  0  0  0  0  0  0  0  0  0  0  0
    3.2331   -6.0154    3.6328 O   0  0  0  0  0  0  0  0  0  0  0  0
    1.5129   -7.4285    4.1572 N   0  0  0  0  0  0  0  0  0  0  0  0
    2.2170   -8.5327    3.5141 C   0  0  0  0  0  0  0  0  0  0  0  0
    1.3007   -9.6686    3.0552 C   0  0  0  0  0  0  0  0  0  0  0  0
    2.1341  -10.8966    2.7229 C   0  0  0  0  0  0  0  0  0  0  0  0
    1.2402  -12.0715    2.3787 C   0  0  0  0  0  0  0  0  0  0  0  0
    2.0354  -13.2752    2.1303 N   0  0  0  0  0  0  0  0  0  0  0  0
    1.4802  -14.4590    1.8339 C   0  0  0  0  0  0  0  0  0  0  0  0
    0.1553  -14.5981    1.7417 N   0  3  0  0  0  0  0  0  0  0  0  0
   -0.2766  -15.4835    1.5191 H   0  0  0  0  0  0  0  0  0  0  0  0
   -0.4649  -13.8136    1.8933 H   0  0  0  0  0  0  0  0  0  0  0  0
    2.2550  -15.5246    1.6254 N   0  0  0  0  0  0  0  0  0  0  0  0
    1.7902   -3.7515    4.4214 N   0  0  0  0  0  0  0  0  0  0  0  0
    2.5879   -3.7331    5.5473 C   0  0  0  0  0  0  0  0  0  0  0  0
    2.7193   -4.6977    6.2951 O   0  0  0  0  0  0  0  0  0  0  0  0
    3.2413   -2.3768    5.8141 C   0  0  2  0  0  0  0  0  0  0  0  0
    2.8614   -1.6339    5.1031 H   0  0  0  0  0  0  0  0  0  0  0  0
    4.7628   -2.4584    5.7537 C   0  0  0  0  0  0  0  0  0  0  0  0
    5.2204   -2.7843    4.3578 C   0  0  0  0  0  0  0  0  0  0  0  0
    4.4631   -2.9112    3.3917 O   0  0  0  0  0  0  0  0  0  0  0  0
    6.5592   -2.8424    4.2161 O   0  0  0  0  0  0  0  0  0  0  0  0
    2.8072   -1.9903    7.1215 O   0  0  0  0  0  0  0  0  0  0  0  0
   -1.6239   -5.3464    1.1509 C   0  0  0  0  0  0  0  0  0  0  0  0
    0.9610   -7.0807    2.1836 H   0  0  0  0  0  0  0  0  0  0  0  0
    0.4059   -6.7510    0.6776 H   0  0  0  0  0  0  0  0  0  0  0  0
   -0.5656   -7.8332    1.7348 H   0  0  0  0  0  0  0  0  0  0  0  0
   -1.3177   -6.0753    3.1572 H   0  0  0  0  0  0  0  0  0  0  0  0
   -0.3556   -3.7438    2.9466 H   0  0  0  0  0  0  0  0  0  0  0  0
    0.9310   -4.3959    1.9552 H   0  0  0  0  0  0  0  0  0  0  0  0
    0.5068   -7.4841    4.2623 H   0  0  0  0  0  0  0  0  0  0  0  0
    2.9686   -8.8849    4.2205 H   0  0  0  0  0  0  0  0  0  0  0  0
    2.7501   -8.1604    2.6258 H   0  0  0  0  0  0  0  0  0  0  0  0
    0.7436   -9.4034    2.1488 H   0  0  0  0  0  0  0  0  0  0  0  0
    0.5517   -9.8933    3.8214 H   0  0  0  0  0  0  0  0  0  0  0  0
    2.7646  -11.1528    3.5800 H   0  0  0  0  0  0  0  0  0  0  0  0
    2.8046  -10.6856    1.8798 H   0  0  0  0  0  0  0  0  0  0  0  0
    0.6576  -11.8498    1.4774 H   0  0  0  0  0  0  0  0  0  0  0  0
    0.5653  -12.2732    3.2175 H   0  0  0  0  0  0  0  0  0  0  0  0
    3.0459  -13.2209    2.1908 H   0  0  0  0  0  0  0  0  0  0  0  0
    3.2641  -15.4741    1.6841 H   0  0  0  0  0  0  0  0  0  0  0  0
    1.8538  -16.4259    1.4007 H   0  0  0  0  0  0  0  0  0  0  0  0
    1.9425   -3.0404    3.7132 H   0  0  0  0  0  0  0  0  0  0  0  0
    5.1482   -3.1979    6.4640 H   0  0  0  0  0  0  0  0  0  0  0  0
    5.1746   -1.4796    6.0295 H   0  0  0  0  0  0  0  0  0  0  0  0
    7.0744   -2.6860    5.0313 H   0  0  0  0  0  0  0  0  0  0  0  0
    3.1076   -1.0869    7.2968 H   0  0  0  0  0  0  0  0  0  0  0  0
   -1.0223   -5.1258    0.2601 H   0  0  0  0  0  0  0  0  0  0  0  0
   -2.2381   -4.4798    1.3847 H   0  0  0  0  0  0  0  0  0  0  0  0
   -2.2786   -6.1908    0.8955 H   0  0  0  0  0  0  0  0  0  0  0  0
  1  2  1  0  0  0  0
  1 30  1  0  0  0  0
  1 31  1  0  0  0  0
  1 32  1  0  0  0  0
  2  3  1  0  0  0  0
  2 29  1  0  0  0  0
  2 33  1  0  0  0  0
  3  4  1  0  0  0  0
  3 34  1  0  0  0  0
  3 35  1  0  0  0  0
  4  5  1  1  0  0  0
  4  6  1  0  0  0  0
  4 19  1  0  0  0  0
  6  7  2  0  0  0  0
  6  8  1  0  0  0  0
  8  9  1  0  0  0  0
  8 36  1  0  0  0  0
  9 10  1  0  0  0  0
  9 37  1  0  0  0  0
  9 38  1  0  0  0  0
 10 11  1  0  0  0  0
 10 39  1  0  0  0  0
 10 40  1  0  0  0  0
 11 12  1  0  0  0  0
 11 41  1  0  0  0  0
 11 42  1  0  0  0  0
 12 13  1  0  0  0  0
 12 43  1  0  0  0  0
 12 44  1  0  0  0  0
 13 14  1  0  0  0  0
 13 45  1  0  0  0  0
 14 15  2  0  0  0  0
 14 18  1  0  0  0  0
 15 16  1  0  0  0  0
 15 17  1  0  0  0  0
 18 46  1  0  0  0  0
 18 47  1  0  0  0  0
 19 20  1  0  0  0  0
 19 48  1  0  0  0  0
 20 21  2  0  0  0  0
 22 24  1  0  0  0  0
 22 28  1  0  0  0  0
 22 23  1  6  0  0  0
 22 20  1  0  0  0  0
 24 25  1  0  0  0  0
 24 49  1  0  0  0  0
 24 50  1  0  0  0  0
 25 26  2  0  0  0  0
 25 27  1  0  0  0  0
 27 51  1  0  0  0  0
 28 52  1  0  0  0  0
 29 53  1  0  0  0  0
 29 54  1  0  0  0  0
 29 55  1  0  0  0  0
M  CHG  1  15   1
M  END
$$$$
