E86
 OpenBabel04121316113D

 54 57  0  0  1  0  0  0  0  0999 V2000
    3.0329   -2.5504   -0.0123 O   0  0  0  0  0  0  0  0  0  0  0  0
    2.3730   -1.9961   -1.1595 C   0  0  0  0  0  0  0  0  0  0  0  0
    2.8344   -0.5373   -1.2968 C   0  0  2  0  0  0  0  0  0  0  0  0
    2.5703   -0.0243   -0.3632 H   0  0  0  0  0  0  0  0  0  0  0  0
    2.2840    0.2615   -2.4586 C   0  0  0  0  0  0  0  0  0  0  0  0
    1.8996   -0.3558   -3.6569 C   0  0  0  0  0  0  0  0  0  0  0  0
    1.8405    0.3824   -4.8326 C   0  0  0  0  0  0  0  0  0  0  0  0
    1.9966    1.7640   -4.7914 C   0  0  0  0  0  0  0  0  0  0  0  0
    2.2023    2.4105   -3.5743 C   0  0  0  0  0  0  0  0  0  0  0  0
    2.4058    1.6593   -2.4216 C   0  0  0  0  0  0  0  0  0  0  0  0
    4.2866   -0.4991   -1.3777 N   0  0  0  0  0  0  0  0  0  0  0  0
    4.9392   -1.1422   -2.3896 C   0  0  0  0  0  0  0  0  0  0  0  0
    4.4089   -1.7617   -3.3176 O   0  0  0  0  0  0  0  0  0  0  0  0
    6.3404   -1.0481   -2.2930 C   0  0  0  0  0  0  0  0  0  0  0  0
    7.1558   -2.0283   -1.8038 N   0  0  0  0  0  0  0  0  0  0  0  0
    6.8540   -2.9149   -1.4200 H   0  0  0  0  0  0  0  0  0  0  0  0
    8.4514   -1.6289   -1.9467 C   0  0  0  0  0  0  0  0  0  0  0  0
    8.4514   -0.4190   -2.6158 C   0  0  0  0  0  0  0  0  0  0  0  0
    7.1153   -0.0319   -2.7914 C   0  0  0  0  0  0  0  0  0  0  0  0
    9.6113    0.3155   -3.0417 C   0  0  0  0  0  0  0  0  0  0  0  0
    9.4391    1.6734   -3.0324 N   0  0  0  0  0  0  0  0  0  0  0  0
   10.5253    2.3882   -3.2876 C   0  0  0  0  0  0  0  0  0  0  0  0
   11.7025    1.8072   -3.4373 N   0  0  0  0  0  0  0  0  0  0  0  0
   11.7908    0.4993   -3.6502 C   0  0  0  0  0  0  0  0  0  0  0  0
   10.7600   -0.3419   -3.4351 C   0  0  0  0  0  0  0  0  0  0  0  0
   10.9835   -1.8043   -3.5625 C   0  0  0  0  0  0  0  0  0  0  0  0
   10.4868    3.7731   -3.4251 N   0  0  0  0  0  0  0  0  0  0  0  0
   11.4913    4.6371   -3.9300 C   0  0  0  0  0  0  0  0  0  0  0  0
   11.3134    6.0213   -3.7131 C   0  0  0  0  0  0  0  0  0  0  0  0
   12.2012    6.9614   -4.2593 C   0  0  0  0  0  0  0  0  0  0  0  0
   13.3829    6.5495   -4.8563 C   0  0  0  0  0  0  0  0  0  0  0  0
   13.6769    5.2077   -4.9095 C   0  0  0  0  0  0  0  0  0  0  0  0
   12.7039    4.2651   -4.5863 C   0  0  0  0  0  0  0  0  0  0  0  0
   13.1296    2.7813   -5.3947 Cl  0  0  0  0  0  0  0  0  0  0  0  0
    2.9451   -3.5143   -0.0701 H   0  0  0  0  0  0  0  0  0  0  0  0
    1.2919   -2.0547   -1.0154 H   0  0  0  0  0  0  0  0  0  0  0  0
    2.6263   -2.6101   -2.0311 H   0  0  0  0  0  0  0  0  0  0  0  0
    1.7772   -1.4333   -3.7230 H   0  0  0  0  0  0  0  0  0  0  0  0
    1.7201   -0.1351   -5.7804 H   0  0  0  0  0  0  0  0  0  0  0  0
    1.9738    2.3338   -5.7143 H   0  0  0  0  0  0  0  0  0  0  0  0
    2.2627    3.4931   -3.5318 H   0  0  0  0  0  0  0  0  0  0  0  0
    2.7325    2.1551   -1.5093 H   0  0  0  0  0  0  0  0  0  0  0  0
    4.8127   -0.1960   -0.5669 H   0  0  0  0  0  0  0  0  0  0  0  0
    9.2423   -2.2689   -1.5875 H   0  0  0  0  0  0  0  0  0  0  0  0
    6.7554    0.8590   -3.2910 H   0  0  0  0  0  0  0  0  0  0  0  0
   12.7524    0.1645   -4.0191 H   0  0  0  0  0  0  0  0  0  0  0  0
   11.9609   -2.0258   -4.0033 H   0  0  0  0  0  0  0  0  0  0  0  0
   10.2212   -2.2673   -4.1946 H   0  0  0  0  0  0  0  0  0  0  0  0
   11.0055   -2.2599   -2.5711 H   0  0  0  0  0  0  0  0  0  0  0  0
    9.5808    4.1580   -3.1965 H   0  0  0  0  0  0  0  0  0  0  0  0
   10.4607    6.3978   -3.1499 H   0  0  0  0  0  0  0  0  0  0  0  0
   11.9798    8.0233   -4.2170 H   0  0  0  0  0  0  0  0  0  0  0  0
   14.0751    7.2465   -5.3132 H   0  0  0  0  0  0  0  0  0  0  0  0
   14.6278    4.8706   -5.3144 H   0  0  0  0  0  0  0  0  0  0  0  0
  1  2  1  0  0  0  0
  1 35  1  0  0  0  0
  2 36  1  0  0  0  0
  2 37  1  0  0  0  0
  3  5  1  0  0  0  0
  3 11  1  0  0  0  0
  3  4  1  1  0  0  0
  3  2  1  0  0  0  0
  5  6  2  0  0  0  0
  5 10  1  0  0  0  0
  6  7  1  0  0  0  0
  6 38  1  0  0  0  0
  7  8  2  0  0  0  0
  7 39  1  0  0  0  0
  8  9  1  0  0  0  0
  8 40  1  0  0  0  0
  9 10  2  0  0  0  0
  9 41  1  0  0  0  0
 10 42  1  0  0  0  0
 11 12  1  0  0  0  0
 11 43  1  0  0  0  0
 12 13  2  0  0  0  0
 12 14  1  0  0  0  0
 14 15  1  0  0  0  0
 14 19  2  0  0  0  0
 15 16  1  0  0  0  0
 15 17  1  0  0  0  0
 17 18  2  0  0  0  0
 17 44  1  0  0  0  0
 18 19  1  0  0  0  0
 18 20  1  0  0  0  0
 19 45  1  0  0  0  0
 20 21  2  0  0  0  0
 20 25  1  0  0  0  0
 21 22  1  0  0  0  0
 22 23  2  0  0  0  0
 22 27  1  0  0  0  0
 23 24  1  0  0  0  0
 24 25  2  0  0  0  0
 24 46  1  0  0  0  0
 25 26  1  0  0  0  0
 26 47  1  0  0  0  0
 26 48  1  0  0  0  0
 26 49  1  0  0  0  0
 27 28  1  0  0  0  0
 27 50  1  0  0  0  0
 28 29  2  0  0  0  0
 28 33  1  0  0  0  0
 29 30  1  0  0  0  0
 29 51  1  0  0  0  0
 30 31  2  0  0  0  0
 30 52  1  0  0  0  0
 31 32  1  0  0  0  0
 31 53  1  0  0  0  0
 32 33  2  0  0  0  0
 32 54  1  0  0  0  0
 33 34  1  0  0  0  0
M  END
$$$$
