E89
 OpenBabel04121316113D

 42 45  0  0  0  0  0  0  0  0999 V2000
    0.9949   -0.1191   -0.0415 C   0  0  0  0  0  0  0  0  0  0  0  0
    2.4168   -0.1657   -0.0398 O   0  0  0  0  0  0  0  0  0  0  0  0
    2.9738    0.7195    0.8403 C   0  0  0  0  0  0  0  0  0  0  0  0
    2.6229    2.0673    0.8900 C   0  0  0  0  0  0  0  0  0  0  0  0
    3.3490    2.9376    1.6953 C   0  0  0  0  0  0  0  0  0  0  0  0
    4.3668    2.4512    2.5290 C   0  0  0  0  0  0  0  0  0  0  0  0
    4.6275    1.0800    2.5557 C   0  0  0  0  0  0  0  0  0  0  0  0
    3.9871    0.2300    1.6591 C   0  0  0  0  0  0  0  0  0  0  0  0
    5.1879    3.4582    3.2893 C   0  0  0  0  0  0  0  0  0  0  0  0
    6.3280    2.9332    4.1736 C   0  0  0  0  0  0  0  0  0  0  0  0
    7.0874    3.9787    4.9829 C   0  0  0  0  0  0  0  0  0  0  0  0
    7.9902    3.5661    6.0229 C   0  0  0  0  0  0  0  0  0  0  0  0
    8.5356    2.3300    6.3579 N   0  0  0  0  0  0  0  0  0  0  0  0
    9.3351    2.5449    7.3866 C   0  0  0  0  0  0  0  0  0  0  0  0
    9.2801    3.8424    7.7922 N   0  0  0  0  0  0  0  0  0  0  0  0
    9.8001    4.2741    8.5442 H   0  0  0  0  0  0  0  0  0  0  0  0
    8.4432    4.5047    6.9404 C   0  0  0  0  0  0  0  0  0  0  0  0
    8.0861    5.8324    6.9304 C   0  0  0  0  0  0  0  0  0  0  0  0
    7.4145    6.2629    5.7957 C   0  0  0  0  0  0  0  0  0  0  0  0
    6.9176    5.4005    4.8108 C   0  0  0  0  0  0  0  0  0  0  0  0
    6.2622    5.9720    3.6814 N   0  0  0  0  0  0  0  0  0  0  0  0
    6.1603    7.2591    3.5610 C   0  0  0  0  0  0  0  0  0  0  0  0
    5.5550    7.8529    2.5074 N   0  0  0  0  0  0  0  0  0  0  0  0
    6.6502    8.1192    4.4916 N   0  0  0  0  0  0  0  0  0  0  0  0
    6.5721    9.1150    4.3758 H   0  0  0  0  0  0  0  0  0  0  0  0
    7.2701    7.7080    5.6245 C   0  0  0  0  0  0  0  0  0  0  0  0
    7.7123    8.5075    6.4521 O   0  0  0  0  0  0  0  0  0  0  0  0
    0.6407   -0.8261   -0.7955 H   0  0  0  0  0  0  0  0  0  0  0  0
    0.6049    0.8648   -0.3169 H   0  0  0  0  0  0  0  0  0  0  0  0
    0.6087   -0.4260    0.9356 H   0  0  0  0  0  0  0  0  0  0  0  0
    1.8235    2.4730    0.2818 H   0  0  0  0  0  0  0  0  0  0  0  0
    3.1358    4.0044    1.6519 H   0  0  0  0  0  0  0  0  0  0  0  0
    5.3517    0.6571    3.2449 H   0  0  0  0  0  0  0  0  0  0  0  0
    4.2819   -0.8138    1.6088 H   0  0  0  0  0  0  0  0  0  0  0  0
    4.4978    4.0566    3.8987 H   0  0  0  0  0  0  0  0  0  0  0  0
    5.6277    4.0939    2.5123 H   0  0  0  0  0  0  0  0  0  0  0  0
    7.0282    2.3440    3.5670 H   0  0  0  0  0  0  0  0  0  0  0  0
    5.8781    2.2322    4.8944 H   0  0  0  0  0  0  0  0  0  0  0  0
    9.9755    1.8326    7.8935 H   0  0  0  0  0  0  0  0  0  0  0  0
    8.3962    6.5201    7.7052 H   0  0  0  0  0  0  0  0  0  0  0  0
    5.1914    7.2768    1.7604 H   0  0  0  0  0  0  0  0  0  0  0  0
    5.5019    8.8552    2.3952 H   0  0  0  0  0  0  0  0  0  0  0  0
  1  2  1  0  0  0  0
  1 28  1  0  0  0  0
  1 29  1  0  0  0  0
  1 30  1  0  0  0  0
  2  3  1  0  0  0  0
  3  4  2  0  0  0  0
  3  8  1  0  0  0  0
  4  5  1  0  0  0  0
  4 31  1  0  0  0  0
  5  6  2  0  0  0  0
  5 32  1  0  0  0  0
  6  7  1  0  0  0  0
  6  9  1  0  0  0  0
  7  8  2  0  0  0  0
  7 33  1  0  0  0  0
  8 34  1  0  0  0  0
  9 10  1  0  0  0  0
  9 35  1  0  0  0  0
  9 36  1  0  0  0  0
 10 11  1  0  0  0  0
 10 37  1  0  0  0  0
 10 38  1  0  0  0  0
 11 12  2  0  0  0  0
 11 20  1  0  0  0  0
 12 13  1  0  0  0  0
 12 17  1  0  0  0  0
 13 14  2  0  0  0  0
 14 15  1  0  0  0  0
 14 39  1  0  0  0  0
 15 16  1  0  0  0  0
 15 17  1  0  0  0  0
 17 18  2  0  0  0  0
 18 19  1  0  0  0  0
 18 40  1  0  0  0  0
 19 20  2  0  0  0  0
 19 26  1  0  0  0  0
 20 21  1  0  0  0  0
 21 22  2  0  0  0  0
 22 23  1  0  0  0  0
 22 24  1  0  0  0  0
 23 41  1  0  0  0  0
 23 42  1  0  0  0  0
 24 25  1  0  0  0  0
 24 26  1  0  0  0  0
 26 27  2  0  0  0  0
M  END
$$$$
