EAD
 OpenBabel04121316113D

 90 95  0  0  1  0  0  0  0  0999 V2000
    0.4792   -9.6374  -18.9435 C   0  0  0  0  0  0  0  0  0  0  0  0
   -0.8514   -9.2248  -18.3225 C   0  0  0  0  0  0  0  0  0  0  0  0
   -1.2724   -7.9117  -18.9260 C   0  0  0  0  0  0  0  0  0  0  0  0
   -1.8578   -7.8774  -20.1445 N   0  0  0  0  0  0  0  0  0  0  0  0
   -1.9243   -6.6820  -20.7747 C   0  0  0  0  0  0  0  0  0  0  0  0
   -1.2930   -5.5517  -20.3059 C   0  0  0  0  0  0  0  0  0  0  0  0
   -0.6511   -5.6515  -19.0745 C   0  0  0  0  0  0  0  0  0  0  0  0
   -0.7928   -6.7866  -18.3044 C   0  0  0  0  0  0  0  0  0  0  0  0
    0.0974   -4.5051  -18.5298 C   0  0  0  0  0  0  0  0  0  0  0  0
    0.5095   -3.6681  -19.3328 O   0  0  0  0  0  0  0  0  0  0  0  0
    0.0185   -4.3232  -16.9927 C   0  0  1  0  0  0  0  0  0  0  0  0
   -0.8030   -4.9150  -16.5875 H   0  0  0  0  0  0  0  0  0  0  0  0
    1.1953   -4.6856  -16.1078 C   0  0  0  0  0  0  0  0  0  0  0  0
    1.8871   -3.7293  -15.4686 C   0  0  0  0  0  0  0  0  0  0  0  0
    1.6242   -2.3628  -15.6338 N   0  0  0  0  0  0  0  0  0  0  0  0
    0.4585   -2.0193  -16.3407 C   0  0  0  0  0  0  0  0  0  0  0  0
   -0.3941   -2.8896  -16.9041 C   0  0  0  0  0  0  0  0  0  0  0  0
   -1.5796   -2.3890  -17.6632 C   0  0  0  0  0  0  0  0  0  0  0  0
   -1.7769   -1.1826  -17.8682 O   0  0  0  0  0  0  0  0  0  0  0  0
   -2.4432   -3.2969  -18.1941 N   0  0  0  0  0  0  0  0  0  0  0  0
    2.5849   -1.3246  -15.1350 C   0  0  2  0  0  0  0  0  0  0  0  0
    3.3945   -1.2547  -15.8658 H   0  0  0  0  0  0  0  0  0  0  0  0
    3.2324   -1.6797  -13.8811 O   0  0  0  0  0  0  0  0  0  0  0  0
    2.3372   -1.2531  -12.8370 C   0  0  1  0  0  0  0  0  0  0  0  0
    2.8757   -1.1364  -11.8872 H   0  0  0  0  0  0  0  0  0  0  0  0
    1.7384    0.0632  -13.3043 C   0  0  2  0  0  0  0  0  0  0  0  0
    0.6736    0.1334  -13.0546 H   0  0  0  0  0  0  0  0  0  0  0  0
    1.9557    0.0506  -14.8186 C   0  0  1  0  0  0  0  0  0  0  0  0
    0.9968    0.2309  -15.2901 H   0  0  0  0  0  0  0  0  0  0  0  0
    2.7993    1.1159  -15.2755 O   0  0  0  0  0  0  0  0  0  0  0  0
    2.3824    1.1755  -12.6758 O   0  0  0  0  0  0  0  0  0  0  0  0
    1.3345   -2.3639  -12.7208 C   0  0  0  0  0  0  0  0  0  0  0  0
    0.3369   -2.1258  -11.8115 O   0  0  0  0  0  0  0  0  0  0  0  0
   -0.4076   -3.4666  -11.3149 P   0  0  2  0  0  0  0  0  0  0  0  0
    0.6242   -3.7197  -10.1942 O   0  0  0  0  0  0  0  0  0  0  0  0
    0.0684   -4.8478  -12.0850 O   0  0  0  0  0  0  0  0  0  0  0  0
    1.1748   -5.8286  -11.3660 P   0  0  2  0  0  0  0  0  0  0  0  0
    2.5894   -5.4882  -11.7205 O   0  0  0  0  0  0  0  0  0  0  0  0
    0.7878   -7.3522  -11.7117 O   0  0  0  0  0  0  0  0  0  0  0  0
    1.8880   -8.1674  -12.1017 C   0  0  0  0  0  0  0  0  0  0  0  0
    1.7729   -9.6044  -11.6066 C   0  0  1  0  0  0  0  0  0  0  0  0
    1.2081   -9.6588  -10.6658 H   0  0  0  0  0  0  0  0  0  0  0  0
    1.0471  -10.3341  -12.6199 O   0  0  0  0  0  0  0  0  0  0  0  0
    1.4443  -11.6968  -12.4795 C   0  0  2  0  0  0  0  0  0  0  0  0
    0.7859  -12.1381  -11.7214 H   0  0  0  0  0  0  0  0  0  0  0  0
    2.8998  -11.7210  -12.0069 C   0  0  1  0  0  0  0  0  0  0  0  0
    3.6044  -11.8905  -12.8264 H   0  0  0  0  0  0  0  0  0  0  0  0
    3.1298  -10.3149  -11.4484 C   0  0  2  0  0  0  0  0  0  0  0  0
    3.9128   -9.8154  -12.0298 H   0  0  0  0  0  0  0  0  0  0  0  0
    3.5639  -10.3168  -10.0891 O   0  0  0  0  0  0  0  0  0  0  0  0
    3.1420  -12.7441  -11.0372 O   0  0  0  0  0  0  0  0  0  0  0  0
    1.2139  -12.4121  -13.7193 N   0  0  0  0  0  0  0  0  0  0  0  0
    0.3763  -13.4925  -13.8384 C   0  0  0  0  0  0  0  0  0  0  0  0
    0.4316  -14.0344  -15.0346 N   0  0  0  0  0  0  0  0  0  0  0  0
    1.3450  -13.2672  -15.7265 C   0  0  0  0  0  0  0  0  0  0  0  0
    1.8498  -12.2530  -14.9242 C   0  0  0  0  0  0  0  0  0  0  0  0
    2.7834  -11.3465  -15.2649 N   0  0  0  0  0  0  0  0  0  0  0  0
    3.1812  -11.5254  -16.5453 C   0  0  0  0  0  0  0  0  0  0  0  0
    2.7670  -12.4536  -17.4359 N   0  0  0  0  0  0  0  0  0  0  0  0
    1.8362  -13.3505  -17.0409 C   0  0  0  0  0  0  0  0  0  0  0  0
    1.4144  -14.3078  -17.9353 N   0  0  0  0  0  0  0  0  0  0  0  0
    0.8646   -5.9598   -9.7856 O   0  0  0  0  0  0  0  0  0  0  0  0
   -1.5635   -3.1830  -12.5705 O   0  0  0  0  0  0  0  0  0  0  0  0
    0.8184  -10.5831  -18.5186 H   0  0  0  0  0  0  0  0  0  0  0  0
    1.2625   -8.8877  -18.7650 H   0  0  0  0  0  0  0  0  0  0  0  0
    0.3852   -9.7549  -20.0282 H   0  0  0  0  0  0  0  0  0  0  0  0
   -0.7171   -9.1130  -17.2374 H   0  0  0  0  0  0  0  0  0  0  0  0
   -1.6229   -9.9779  -18.4838 H   0  0  0  0  0  0  0  0  0  0  0  0
   -2.4976   -6.6622  -21.6969 H   0  0  0  0  0  0  0  0  0  0  0  0
   -1.3404   -4.6116  -20.8489 H   0  0  0  0  0  0  0  0  0  0  0  0
   -0.4640   -6.8612  -17.2763 H   0  0  0  0  0  0  0  0  0  0  0  0
    1.3573   -5.7227  -15.8233 H   0  0  0  0  0  0  0  0  0  0  0  0
    2.6025   -3.9837  -14.6820 H   0  0  0  0  0  0  0  0  0  0  0  0
    0.2401   -0.9694  -16.4632 H   0  0  0  0  0  0  0  0  0  0  0  0
   -2.3601   -4.2990  -18.1350 H   0  0  0  0  0  0  0  0  0  0  0  0
   -3.0126   -2.9591  -18.9612 H   0  0  0  0  0  0  0  0  0  0  0  0
    3.6627    1.0274  -14.8442 H   0  0  0  0  0  0  0  0  0  0  0  0
    3.3357    1.1113  -12.8423 H   0  0  0  0  0  0  0  0  0  0  0  0
    1.8835   -3.2641  -12.4567 H   0  0  0  0  0  0  0  0  0  0  0  0
    0.7685   -2.5458  -13.6177 H   0  0  0  0  0  0  0  0  0  0  0  0
    2.8588   -7.7561  -11.8022 H   0  0  0  0  0  0  0  0  0  0  0  0
    1.8003   -8.1193  -13.1846 H   0  0  0  0  0  0  0  0  0  0  0  0
    4.2444  -11.0143  -10.0097 H   0  0  0  0  0  0  0  0  0  0  0  0
    2.9617  -13.6045  -11.4599 H   0  0  0  0  0  0  0  0  0  0  0  0
   -0.2383  -13.8497  -13.0213 H   0  0  0  0  0  0  0  0  0  0  0  0
    3.9335  -10.8318  -16.9126 H   0  0  0  0  0  0  0  0  0  0  0  0
    1.7831  -14.2953  -18.8725 H   0  0  0  0  0  0  0  0  0  0  0  0
    0.7085  -14.9704  -17.6459 H   0  0  0  0  0  0  0  0  0  0  0  0
    1.2310   -5.1945   -9.2865 H   0  0  0  0  0  0  0  0  0  0  0  0
   -2.1191   -3.9745  -12.6885 H   0  0  0  0  0  0  0  0  0  0  0  0
  1  2  1  0  0  0  0
  1 64  1  0  0  0  0
  1 65  1  0  0  0  0
  1 66  1  0  0  0  0
  2  3  1  0  0  0  0
  2 67  1  0  0  0  0
  2 68  1  0  0  0  0
  3  4  2  0  0  0  0
  3  8  1  0  0  0  0
  4  5  1  0  0  0  0
  5  6  2  0  0  0  0
  5 69  1  0  0  0  0
  6  7  1  0  0  0  0
  6 70  1  0  0  0  0
  7  8  2  0  0  0  0
  7  9  1  0  0  0  0
  8 71  1  0  0  0  0
  9 10  2  0  0  0  0
  9 11  1  0  0  0  0
 11 12  1  1  0  0  0
 11 13  1  0  0  0  0
 11 17  1  0  0  0  0
 13 14  2  0  0  0  0
 13 72  1  0  0  0  0
 14 15  1  0  0  0  0
 14 73  1  0  0  0  0
 15 16  1  0  0  0  0
 16 17  2  0  0  0  0
 16 74  1  0  0  0  0
 17 18  1  0  0  0  0
 18 19  2  0  0  0  0
 18 20  1  0  0  0  0
 20 75  1  0  0  0  0
 20 76  1  0  0  0  0
 21 23  1  0  0  0  0
 21 28  1  0  0  0  0
 21 22  1  6  0  0  0
 21 15  1  0  0  0  0
 23 24  1  0  0  0  0
 24 25  1  1  0  0  0
 24 26  1  0  0  0  0
 24 32  1  0  0  0  0
 26 28  1  0  0  0  0
 26 31  1  0  0  0  0
 26 27  1  1  0  0  0
 28 30  1  0  0  0  0
 28 29  1  6  0  0  0
 30 77  1  0  0  0  0
 31 78  1  0  0  0  0
 32 33  1  0  0  0  0
 32 79  1  0  0  0  0
 32 80  1  0  0  0  0
 34 36  1  6  0  0  0
 34 63  1  0  0  0  0
 34 35  2  0  0  0  0
 34 33  1  0  0  0  0
 37 39  1  6  0  0  0
 37 62  1  0  0  0  0
 37 38  2  0  0  0  0
 37 36  1  0  0  0  0
 39 40  1  0  0  0  0
 40 41  1  0  0  0  0
 40 81  1  0  0  0  0
 40 82  1  0  0  0  0
 41 42  1  1  0  0  0
 41 43  1  0  0  0  0
 41 48  1  0  0  0  0
 43 44  1  0  0  0  0
 44 46  1  0  0  0  0
 44 52  1  0  0  0  0
 44 45  1  1  0  0  0
 46 47  1  6  0  0  0
 46 48  1  0  0  0  0
 46 51  1  0  0  0  0
 48 49  1  6  0  0  0
 48 50  1  0  0  0  0
 50 83  1  0  0  0  0
 51 84  1  0  0  0  0
 52 53  1  0  0  0  0
 52 56  1  0  0  0  0
 53 54  2  0  0  0  0
 53 85  1  0  0  0  0
 54 55  1  0  0  0  0
 55 56  2  0  0  0  0
 55 60  1  0  0  0  0
 56 57  1  0  0  0  0
 57 58  2  0  0  0  0
 58 59  1  0  0  0  0
 58 86  1  0  0  0  0
 59 60  2  0  0  0  0
 60 61  1  0  0  0  0
 61 87  1  0  0  0  0
 61 88  1  0  0  0  0
 62 89  1  0  0  0  0
 63 90  1  0  0  0  0
M  END
$$$$
