EBG
 OpenBabel04121316113D

 35 36  0  0  1  0  0  0  0  0999 V2000
    0.7947    0.0811    0.1971 O   0  0  0  0  0  0  0  0  0  0  0  0
    2.2134    0.0542    0.1151 C   0  0  0  0  0  0  0  0  0  0  0  0
    2.8465   -0.8560    1.1944 C   0  0  1  0  0  0  0  0  0  0  0  0
    2.6356   -0.4042    2.1718 H   0  0  0  0  0  0  0  0  0  0  0  0
    2.2450   -2.1716    1.2664 O   0  0  0  0  0  0  0  0  0  0  0  0
    2.4883   -2.9972    0.1348 C   0  0  2  0  0  0  0  0  0  0  0  0
    2.0171   -2.5185   -0.7300 H   0  0  0  0  0  0  0  0  0  0  0  0
    1.8548   -4.2806    0.3105 O   0  0  0  0  0  0  0  0  0  0  0  0
    1.9900   -5.0778   -0.8629 C   0  0  0  0  0  0  0  0  0  0  0  0
    1.2829   -6.4147   -0.7524 C   0  0  0  0  0  0  0  0  0  0  0  0
    1.6653   -7.2582   -1.9342 C   0  0  1  0  0  0  0  0  0  0  0  0
    2.1904   -6.7342   -2.7239 H   0  0  0  0  0  0  0  0  0  0  0  0
    1.9077   -8.7313   -1.7607 C   0  0  0  0  0  0  0  0  0  0  0  0
    0.6922   -8.2277   -2.3312 O   0  0  0  0  0  0  0  0  0  0  0  0
    4.0098   -3.2003   -0.0924 C   0  0  1  0  0  0  0  0  0  0  0  0
    4.1771   -3.7177   -1.0404 H   0  0  0  0  0  0  0  0  0  0  0  0
    4.7401   -1.8669   -0.1770 C   0  0  2  0  0  0  0  0  0  0  0  0
    5.8175   -2.0669   -0.1600 H   0  0  0  0  0  0  0  0  0  0  0  0
    4.3802   -0.9567    1.0108 C   0  0  2  0  0  0  0  0  0  0  0  0
    4.7985    0.0417    0.8462 H   0  0  0  0  0  0  0  0  0  0  0  0
    4.9606   -1.4412    2.2287 O   0  0  0  0  0  0  0  0  0  0  0  0
    4.4866   -1.2081   -1.4252 O   0  0  0  0  0  0  0  0  0  0  0  0
    4.5883   -4.0371    0.9203 O   0  0  0  0  0  0  0  0  0  0  0  0
    0.4689    0.4782   -0.6299 H   0  0  0  0  0  0  0  0  0  0  0  0
    2.5892    1.0781    0.2189 H   0  0  0  0  0  0  0  0  0  0  0  0
    2.4396   -0.2766   -0.8954 H   0  0  0  0  0  0  0  0  0  0  0  0
    3.0463   -5.3159   -1.0118 H   0  0  0  0  0  0  0  0  0  0  0  0
    1.6302   -4.5245   -1.7389 H   0  0  0  0  0  0  0  0  0  0  0  0
    0.1999   -6.2667   -0.6923 H   0  0  0  0  0  0  0  0  0  0  0  0
    1.5884   -6.9015    0.1819 H   0  0  0  0  0  0  0  0  0  0  0  0
    1.8448   -9.1616   -0.7698 H   0  0  0  0  0  0  0  0  0  0  0  0
    2.6301   -9.2002   -2.4170 H   0  0  0  0  0  0  0  0  0  0  0  0
    5.8102   -1.8711    2.0235 H   0  0  0  0  0  0  0  0  0  0  0  0
    3.6726   -1.5581   -1.8375 H   0  0  0  0  0  0  0  0  0  0  0  0
    3.8578   -4.5838    1.2779 H   0  0  0  0  0  0  0  0  0  0  0  0
  1  2  1  0  0  0  0
  1 24  1  0  0  0  0
  2  3  1  0  0  0  0
  2 25  1  0  0  0  0
  2 26  1  0  0  0  0
  3  4  1  1  0  0  0
  3  5  1  0  0  0  0
  3 19  1  0  0  0  0
  5  6  1  0  0  0  0
  6  7  1  6  0  0  0
  6  8  1  0  0  0  0
  6 15  1  0  0  0  0
  8  9  1  0  0  0  0
  9 10  1  0  0  0  0
  9 27  1  0  0  0  0
  9 28  1  0  0  0  0
 10 11  1  0  0  0  0
 10 29  1  0  0  0  0
 10 30  1  0  0  0  0
 11 12  1  6  0  0  0
 11 13  1  0  0  0  0
 11 14  1  0  0  0  0
 13 14  1  0  0  0  0
 13 31  1  0  0  0  0
 13 32  1  0  0  0  0
 15 16  1  6  0  0  0
 15 17  1  0  0  0  0
 15 23  1  0  0  0  0
 17 19  1  0  0  0  0
 17 22  1  0  0  0  0
 17 18  1  1  0  0  0
 19 20  1  6  0  0  0
 19 21  1  0  0  0  0
 21 33  1  0  0  0  0
 22 34  1  0  0  0  0
 23 35  1  0  0  0  0
M  END
$$$$
