ED4
 OpenBabel04121316113D

 82 85  0  0  0  0  0  0  0  0999 V2000
    0.9329    0.0851    0.0239 N   0  0  0  0  0  0  0  0  0  0  0  0
    2.0667    0.1525    0.1257 C   0  0  0  0  0  0  0  0  0  0  0  0
    3.5080    0.1520    0.2866 C   0  0  0  0  0  0  0  0  0  0  0  0
    4.2556    1.2602    0.5198 C   0  0  0  0  0  0  0  0  0  0  0  0
    5.6632    1.1472    0.6193 C   0  0  0  0  0  0  0  0  0  0  0  0
    6.3950    0.0993    0.1451 C   0  0  0  0  0  0  0  0  0  0  0  0
    5.6783   -1.0303    0.3880 C   0  0  0  0  0  0  0  0  0  0  0  0
    4.2253   -1.0085    0.4196 C   0  0  0  0  0  0  0  0  0  0  0  0
    7.6686    0.2405   -0.3738 N   0  0  0  0  0  0  0  0  0  0  0  0
    8.2357    1.5395   -0.8355 C   0  0  0  0  0  0  0  0  0  0  0  0
    7.3691    2.7610   -0.9489 C   0  0  0  0  0  0  0  0  0  0  0  0
    6.0273    2.9825   -1.2146 C   0  0  0  0  0  0  0  0  0  0  0  0
    5.6075    4.1450   -0.6260 N   0  0  0  0  0  0  0  0  0  0  0  0
    6.7151    4.8245   -0.4851 C   0  0  0  0  0  0  0  0  0  0  0  0
    7.8034    4.0314   -0.6876 N   0  0  0  0  0  0  0  0  0  0  0  0
    9.1519    4.4802   -0.8830 C   0  0  0  0  0  0  0  0  0  0  0  0
    8.5780   -0.9004   -0.2996 C   0  0  0  0  0  0  0  0  0  0  0  0
    9.9445   -0.7747   -0.9108 C   0  0  0  0  0  0  0  0  0  0  0  0
   10.5491   -2.1490   -1.1739 N   0  0  0  0  0  0  0  0  0  0  0  0
    9.8390   -3.1157   -2.4382 S   0  0  0  0  0  0  0  0  0  0  0  0
    9.8316   -2.2890   -3.6282 O   0  0  0  0  0  0  0  0  0  0  0  0
   10.5008   -4.3984   -2.4254 O   0  0  0  0  0  0  0  0  0  0  0  0
    8.1772   -3.5364   -2.1759 C   0  0  0  0  0  0  0  0  0  0  0  0
    7.7589   -4.7713   -1.7015 N   0  0  0  0  0  0  0  0  0  0  0  0
    6.4598   -4.6685   -1.5814 C   0  0  0  0  0  0  0  0  0  0  0  0
    6.0266   -3.4385   -1.9565 N   0  0  0  0  0  0  0  0  0  0  0  0
    7.0926   -2.6926   -2.3322 C   0  0  0  0  0  0  0  0  0  0  0  0
    4.7619   -2.9116   -1.5861 C   0  0  0  0  0  0  0  0  0  0  0  0
   11.9220   -1.8626   -1.5699 C   0  0  0  0  0  0  0  0  0  0  0  0
   12.9704   -2.9629   -1.4484 C   0  0  0  0  0  0  0  0  0  0  0  0
   13.6915   -2.5063   -0.1733 C   0  0  0  0  0  0  0  0  0  0  0  0
   12.9627   -3.1289    1.0196 C   0  0  0  0  0  0  0  0  0  0  0  0
   13.1649   -4.5538    1.0010 N   0  0  0  0  0  0  0  0  0  0  0  0
   12.6123   -5.2363   -0.1592 C   0  0  0  0  0  0  0  0  0  0  0  0
   13.0634   -4.5229   -1.4324 C   0  0  0  0  0  0  0  0  0  0  0  0
   13.9538   -5.0823    1.9923 C   0  0  0  0  0  0  0  0  0  0  0  0
   14.3985   -4.3740    2.8912 O   0  0  0  0  0  0  0  0  0  0  0  0
   14.1891   -6.4189    1.8868 O   0  0  0  0  0  0  0  0  0  0  0  0
   14.9864   -7.0236    2.9393 C   0  0  0  0  0  0  0  0  0  0  0  0
   16.4024   -6.4323    2.9763 C   0  0  0  0  0  0  0  0  0  0  0  0
   14.2895   -6.8872    4.3001 C   0  0  0  0  0  0  0  0  0  0  0  0
   15.1064   -8.5202    2.6164 C   0  0  0  0  0  0  0  0  0  0  0  0
    3.8137    2.2461    0.5966 H   0  0  0  0  0  0  0  0  0  0  0  0
    6.2421    1.9916    0.9498 H   0  0  0  0  0  0  0  0  0  0  0  0
    6.2353   -1.9580    0.4919 H   0  0  0  0  0  0  0  0  0  0  0  0
    3.6305   -1.9203    0.4610 H   0  0  0  0  0  0  0  0  0  0  0  0
    8.7395    1.4344   -1.8082 H   0  0  0  0  0  0  0  0  0  0  0  0
    9.0416    1.7415   -0.1140 H   0  0  0  0  0  0  0  0  0  0  0  0
    5.2879    2.2621   -1.5343 H   0  0  0  0  0  0  0  0  0  0  0  0
    6.7531    5.8921   -0.3362 H   0  0  0  0  0  0  0  0  0  0  0  0
    9.1470    5.5687   -0.8986 H   0  0  0  0  0  0  0  0  0  0  0  0
    9.4814    4.0895   -1.8515 H   0  0  0  0  0  0  0  0  0  0  0  0
    9.7680    4.0848   -0.0752 H   0  0  0  0  0  0  0  0  0  0  0  0
    8.1893   -1.6069   -0.9599 H   0  0  0  0  0  0  0  0  0  0  0  0
    8.5645   -1.4285    0.6573 H   0  0  0  0  0  0  0  0  0  0  0  0
   10.5544   -0.1862   -0.2075 H   0  0  0  0  0  0  0  0  0  0  0  0
    9.9533   -0.2332   -1.8661 H   0  0  0  0  0  0  0  0  0  0  0  0
    5.7700   -5.4100   -1.2077 H   0  0  0  0  0  0  0  0  0  0  0  0
    7.0288   -1.6174   -2.4942 H   0  0  0  0  0  0  0  0  0  0  0  0
    3.9243   -3.5944   -1.5418 H   0  0  0  0  0  0  0  0  0  0  0  0
    4.5722   -1.9497   -2.0761 H   0  0  0  0  0  0  0  0  0  0  0  0
    4.9352   -2.8366   -0.5341 H   0  0  0  0  0  0  0  0  0  0  0  0
   12.2154   -0.9975   -0.9523 H   0  0  0  0  0  0  0  0  0  0  0  0
   11.9794   -1.3629   -2.5462 H   0  0  0  0  0  0  0  0  0  0  0  0
   13.4091   -2.8199   -2.4420 H   0  0  0  0  0  0  0  0  0  0  0  0
   13.6727   -1.4260    0.0049 H   0  0  0  0  0  0  0  0  0  0  0  0
   14.7491   -2.7579   -0.2336 H   0  0  0  0  0  0  0  0  0  0  0  0
   11.8767   -2.9672    1.0117 H   0  0  0  0  0  0  0  0  0  0  0  0
   13.3329   -2.6602    1.9329 H   0  0  0  0  0  0  0  0  0  0  0  0
   11.5229   -5.1950   -0.0828 H   0  0  0  0  0  0  0  0  0  0  0  0
   12.9130   -6.2907   -0.1773 H   0  0  0  0  0  0  0  0  0  0  0  0
   12.6625   -5.0178   -2.3206 H   0  0  0  0  0  0  0  0  0  0  0  0
   14.1479   -4.7236   -1.5221 H   0  0  0  0  0  0  0  0  0  0  0  0
   16.4042   -5.3639    3.2036 H   0  0  0  0  0  0  0  0  0  0  0  0
   16.8937   -6.5412    2.0037 H   0  0  0  0  0  0  0  0  0  0  0  0
   17.0123   -6.9182    3.7436 H   0  0  0  0  0  0  0  0  0  0  0  0
   14.1668   -5.8449    4.6038 H   0  0  0  0  0  0  0  0  0  0  0  0
   14.8640   -7.3805    5.0891 H   0  0  0  0  0  0  0  0  0  0  0  0
   13.2830   -7.3176    4.2639 H   0  0  0  0  0  0  0  0  0  0  0  0
   15.5879   -8.6791    1.6454 H   0  0  0  0  0  0  0  0  0  0  0  0
   14.1204   -8.9945    2.5637 H   0  0  0  0  0  0  0  0  0  0  0  0
   15.6964   -9.0407    3.3805 H   0  0  0  0  0  0  0  0  0  0  0  0
  1  2  3  0  0  0  0
  2  3  1  0  0  0  0
  3  4  2  0  0  0  0
  3  8  1  0  0  0  0
  4  5  1  0  0  0  0
  4 43  1  0  0  0  0
  5  6  2  0  0  0  0
  5 44  1  0  0  0  0
  6  7  1  0  0  0  0
  6  9  1  0  0  0  0
  7  8  2  0  0  0  0
  7 45  1  0  0  0  0
  8 46  1  0  0  0  0
  9 10  1  0  0  0  0
  9 17  1  0  0  0  0
 10 11  1  0  0  0  0
 10 47  1  0  0  0  0
 10 48  1  0  0  0  0
 11 12  2  0  0  0  0
 11 15  1  0  0  0  0
 12 13  1  0  0  0  0
 12 49  1  0  0  0  0
 13 14  2  0  0  0  0
 14 15  1  0  0  0  0
 14 50  1  0  0  0  0
 15 16  1  0  0  0  0
 16 51  1  0  0  0  0
 16 52  1  0  0  0  0
 16 53  1  0  0  0  0
 17 18  1  0  0  0  0
 17 54  1  0  0  0  0
 17 55  1  0  0  0  0
 18 19  1  0  0  0  0
 18 56  1  0  0  0  0
 18 57  1  0  0  0  0
 19 20  1  0  0  0  0
 19 29  1  0  0  0  0
 20 21  2  0  0  0  0
 20 22  2  0  0  0  0
 20 23  1  0  0  0  0
 23 24  1  0  0  0  0
 23 27  2  0  0  0  0
 24 25  2  0  0  0  0
 25 26  1  0  0  0  0
 25 58  1  0  0  0  0
 26 27  1  0  0  0  0
 26 28  1  0  0  0  0
 27 59  1  0  0  0  0
 28 60  1  0  0  0  0
 28 61  1  0  0  0  0
 28 62  1  0  0  0  0
 29 30  1  0  0  0  0
 29 63  1  0  0  0  0
 29 64  1  0  0  0  0
 30 31  1  0  0  0  0
 30 35  1  0  0  0  0
 30 65  1  0  0  0  0
 31 32  1  0  0  0  0
 31 66  1  0  0  0  0
 31 67  1  0  0  0  0
 32 33  1  0  0  0  0
 32 68  1  0  0  0  0
 32 69  1  0  0  0  0
 33 34  1  0  0  0  0
 33 36  1  0  0  0  0
 34 35  1  0  0  0  0
 34 70  1  0  0  0  0
 34 71  1  0  0  0  0
 35 72  1  0  0  0  0
 35 73  1  0  0  0  0
 36 37  2  0  0  0  0
 36 38  1  0  0  0  0
 38 39  1  0  0  0  0
 39 40  1  0  0  0  0
 39 41  1  0  0  0  0
 39 42  1  0  0  0  0
 40 74  1  0  0  0  0
 40 75  1  0  0  0  0
 40 76  1  0  0  0  0
 41 77  1  0  0  0  0
 41 78  1  0  0  0  0
 41 79  1  0  0  0  0
 42 80  1  0  0  0  0
 42 81  1  0  0  0  0
 42 82  1  0  0  0  0
M  END
$$$$
