ED7
 OpenBabel04121316113D

 65 68  0  0  0  0  0  0  0  0999 V2000
    0.8510   -0.0626   -0.1061 N   0  0  0  0  0  0  0  0  0  0  0  0
    1.9932   -0.0937   -0.0355 C   0  0  0  0  0  0  0  0  0  0  0  0
    3.4306   -0.1324    0.1126 C   0  0  0  0  0  0  0  0  0  0  0  0
    4.1341    1.0071    0.4045 C   0  0  0  0  0  0  0  0  0  0  0  0
    5.5278    0.9391    0.5598 C   0  0  0  0  0  0  0  0  0  0  0  0
    6.3086   -0.1244    0.1812 C   0  0  0  0  0  0  0  0  0  0  0  0
    5.5843   -1.3051    0.2210 C   0  0  0  0  0  0  0  0  0  0  0  0
    4.1568   -1.3141    0.1134 C   0  0  0  0  0  0  0  0  0  0  0  0
    7.6505    0.0787   -0.1514 N   0  0  0  0  0  0  0  0  0  0  0  0
    8.1434    1.3684   -0.8068 C   0  0  0  0  0  0  0  0  0  0  0  0
    7.2708    2.5963   -0.9736 C   0  0  0  0  0  0  0  0  0  0  0  0
    5.9371    2.8163   -1.2890 C   0  0  0  0  0  0  0  0  0  0  0  0
    5.5090    4.0084   -0.7671 N   0  0  0  0  0  0  0  0  0  0  0  0
    6.6152    4.6875   -0.6137 C   0  0  0  0  0  0  0  0  0  0  0  0
    7.7047    3.8868   -0.7903 N   0  0  0  0  0  0  0  0  0  0  0  0
    9.0491    4.3455   -1.0013 C   0  0  0  0  0  0  0  0  0  0  0  0
    8.5520   -1.1015   -0.1446 C   0  0  0  0  0  0  0  0  0  0  0  0
    9.8968   -0.9448   -0.8703 C   0  0  0  0  0  0  0  0  0  0  0  0
   10.4980   -2.2755   -1.2488 N   0  0  0  0  0  0  0  0  0  0  0  0
    9.7776   -3.1517   -2.6639 S   0  0  0  0  0  0  0  0  0  0  0  0
    9.8111   -2.2334   -3.7814 O   0  0  0  0  0  0  0  0  0  0  0  0
   10.3676   -4.4620   -2.8322 O   0  0  0  0  0  0  0  0  0  0  0  0
    8.0734   -3.5402   -2.2787 C   0  0  0  0  0  0  0  0  0  0  0  0
    7.7196   -4.8609   -1.9027 C   0  0  0  0  0  0  0  0  0  0  0  0
    6.3743   -5.2194   -1.7607 C   0  0  0  0  0  0  0  0  0  0  0  0
    5.4032   -4.2366   -1.8127 C   0  0  0  0  0  0  0  0  0  0  0  0
    5.7662   -2.9420   -2.1680 C   0  0  0  0  0  0  0  0  0  0  0  0
    7.0762   -2.5822   -2.4902 C   0  0  0  0  0  0  0  0  0  0  0  0
    7.3429   -1.1635   -2.9076 C   0  0  0  0  0  0  0  0  0  0  0  0
   11.9619   -1.9777   -1.4940 C   0  0  0  0  0  0  0  0  0  0  0  0
   12.8275   -3.1926   -1.4752 C   0  0  0  0  0  0  0  0  0  0  0  0
   14.1391   -3.1363   -1.9323 C   0  0  0  0  0  0  0  0  0  0  0  0
   14.7876   -4.3250   -2.2533 C   0  0  0  0  0  0  0  0  0  0  0  0
   14.1648   -5.5556   -2.0310 C   0  0  0  0  0  0  0  0  0  0  0  0
   12.9386   -5.6068   -1.3908 C   0  0  0  0  0  0  0  0  0  0  0  0
   12.2993   -4.4239   -1.0778 C   0  0  0  0  0  0  0  0  0  0  0  0
    3.6649    1.9871    0.4623 H   0  0  0  0  0  0  0  0  0  0  0  0
    6.0611    1.8249    0.8681 H   0  0  0  0  0  0  0  0  0  0  0  0
    6.0955   -2.2616    0.2507 H   0  0  0  0  0  0  0  0  0  0  0  0
    3.6312   -2.2567   -0.0261 H   0  0  0  0  0  0  0  0  0  0  0  0
    8.5709    1.1990   -1.8074 H   0  0  0  0  0  0  0  0  0  0  0  0
    9.0100    1.6482   -0.1930 H   0  0  0  0  0  0  0  0  0  0  0  0
    5.1981    2.0997   -1.6173 H   0  0  0  0  0  0  0  0  0  0  0  0
    6.6558    5.7571   -0.4681 H   0  0  0  0  0  0  0  0  0  0  0  0
    9.0429    5.4356   -1.0198 H   0  0  0  0  0  0  0  0  0  0  0  0
    9.3765    3.9575   -1.9714 H   0  0  0  0  0  0  0  0  0  0  0  0
    9.6741    3.9610   -0.1959 H   0  0  0  0  0  0  0  0  0  0  0  0
    8.0714   -1.9026   -0.6540 H   0  0  0  0  0  0  0  0  0  0  0  0
    8.6221   -1.5653    0.8437 H   0  0  0  0  0  0  0  0  0  0  0  0
   10.5448   -0.3571   -0.2067 H   0  0  0  0  0  0  0  0  0  0  0  0
    9.9054   -0.3587   -1.7983 H   0  0  0  0  0  0  0  0  0  0  0  0
    8.4706   -5.6392   -1.7668 H   0  0  0  0  0  0  0  0  0  0  0  0
    6.0725   -6.2574   -1.6399 H   0  0  0  0  0  0  0  0  0  0  0  0
    4.3596   -4.4572   -1.6049 H   0  0  0  0  0  0  0  0  0  0  0  0
    5.0142   -2.1630   -2.1139 H   0  0  0  0  0  0  0  0  0  0  0  0
    6.5202   -0.4890   -2.6591 H   0  0  0  0  0  0  0  0  0  0  0  0
    7.6814   -1.0657   -3.9303 H   0  0  0  0  0  0  0  0  0  0  0  0
    8.1675   -0.7382   -2.3771 H   0  0  0  0  0  0  0  0  0  0  0  0
   12.3460   -1.2981   -0.7197 H   0  0  0  0  0  0  0  0  0  0  0  0
   12.0473   -1.4284   -2.4459 H   0  0  0  0  0  0  0  0  0  0  0  0
   14.6392   -2.1812   -2.0701 H   0  0  0  0  0  0  0  0  0  0  0  0
   15.7742   -4.2965   -2.7017 H   0  0  0  0  0  0  0  0  0  0  0  0
   14.6410   -6.4789   -2.3380 H   0  0  0  0  0  0  0  0  0  0  0  0
   12.4321   -6.5428   -1.1819 H   0  0  0  0  0  0  0  0  0  0  0  0
   11.2942   -4.4876   -0.6659 H   0  0  0  0  0  0  0  0  0  0  0  0
  1  2  3  0  0  0  0
  2  3  1  0  0  0  0
  3  4  2  0  0  0  0
  3  8  1  0  0  0  0
  4  5  1  0  0  0  0
  4 37  1  0  0  0  0
  5  6  2  0  0  0  0
  5 38  1  0  0  0  0
  6  7  1  0  0  0  0
  6  9  1  0  0  0  0
  7  8  2  0  0  0  0
  7 39  1  0  0  0  0
  8 40  1  0  0  0  0
  9 10  1  0  0  0  0
  9 17  1  0  0  0  0
 10 11  1  0  0  0  0
 10 41  1  0  0  0  0
 10 42  1  0  0  0  0
 11 12  2  0  0  0  0
 11 15  1  0  0  0  0
 12 13  1  0  0  0  0
 12 43  1  0  0  0  0
 13 14  2  0  0  0  0
 14 15  1  0  0  0  0
 14 44  1  0  0  0  0
 15 16  1  0  0  0  0
 16 45  1  0  0  0  0
 16 46  1  0  0  0  0
 16 47  1  0  0  0  0
 17 18  1  0  0  0  0
 17 48  1  0  0  0  0
 17 49  1  0  0  0  0
 18 19  1  0  0  0  0
 18 50  1  0  0  0  0
 18 51  1  0  0  0  0
 19 20  1  0  0  0  0
 19 30  1  0  0  0  0
 20 21  2  0  0  0  0
 20 22  2  0  0  0  0
 20 23  1  0  0  0  0
 23 24  2  0  0  0  0
 23 28  1  0  0  0  0
 24 25  1  0  0  0  0
 24 52  1  0  0  0  0
 25 26  2  0  0  0  0
 25 53  1  0  0  0  0
 26 27  1  0  0  0  0
 26 54  1  0  0  0  0
 27 28  2  0  0  0  0
 27 55  1  0  0  0  0
 28 29  1  0  0  0  0
 29 56  1  0  0  0  0
 29 57  1  0  0  0  0
 29 58  1  0  0  0  0
 30 31  1  0  0  0  0
 30 59  1  0  0  0  0
 30 60  1  0  0  0  0
 31 32  2  0  0  0  0
 31 36  1  0  0  0  0
 32 33  1  0  0  0  0
 32 61  1  0  0  0  0
 33 34  2  0  0  0  0
 33 62  1  0  0  0  0
 34 35  1  0  0  0  0
 34 63  1  0  0  0  0
 35 36  2  0  0  0  0
 35 64  1  0  0  0  0
 36 65  1  0  0  0  0
M  END
$$$$
