EDB
 OpenBabel04121316113D

 49 52  0  0  0  0  0  0  0  0999 V2000
    0.9056   -0.0167    0.0110 N   0  0  0  0  0  0  0  0  0  0  0  0
    2.2625   -0.0409   -0.0986 C   0  0  0  0  0  0  0  0  0  0  0  0
    2.7597   -0.8154   -0.9098 O   0  0  0  0  0  0  0  0  0  0  0  0
    3.0257    0.9046    0.8435 C   0  0  0  0  0  0  0  0  0  0  0  0
    4.5229    0.8063    0.6957 C   0  0  0  0  0  0  0  0  0  0  0  0
    5.3704    1.8858    0.5006 C   0  0  0  0  0  0  0  0  0  0  0  0
    6.7305    1.6739    0.2494 C   0  0  0  0  0  0  0  0  0  0  0  0
    7.2216    0.3857    0.0572 C   0  0  0  0  0  0  0  0  0  0  0  0
    6.3992   -0.7072    0.2861 C   0  0  0  0  0  0  0  0  0  0  0  0
    5.0907   -0.4562    0.7099 C   0  0  0  0  0  0  0  0  0  0  0  0
    6.8523   -2.0172    0.0920 N   0  0  0  0  0  0  0  0  0  0  0  0
    7.9640   -2.4143   -0.5984 N   0  0  0  0  0  0  0  0  0  0  0  0
    8.5758   -1.8104   -1.1305 H   0  0  0  0  0  0  0  0  0  0  0  0
    7.9736   -3.7860   -0.7277 C   0  0  0  0  0  0  0  0  0  0  0  0
    6.9105   -4.3178   -0.1036 C   0  0  0  0  0  0  0  0  0  0  0  0
    6.1370   -3.1686    0.4243 C   0  0  0  0  0  0  0  0  0  0  0  0
    5.0179   -3.2503    1.0799 N   0  0  0  0  0  0  0  0  0  0  0  0
    4.3518   -4.4225    1.0452 C   0  0  0  0  0  0  0  0  0  0  0  0
    4.4592   -5.2427    0.1292 O   0  0  0  0  0  0  0  0  0  0  0  0
    3.4080   -4.5685    2.0274 N   0  0  0  0  0  0  0  0  0  0  0  0
    2.7991   -5.8323    2.2408 C   0  0  0  0  0  0  0  0  0  0  0  0
    1.4405   -5.8396    2.5882 C   0  0  0  0  0  0  0  0  0  0  0  0
    0.7262   -7.0384    2.5559 C   0  0  0  0  0  0  0  0  0  0  0  0
    1.4010   -8.2497    2.4332 C   0  0  0  0  0  0  0  0  0  0  0  0
    2.7776   -8.2711    2.2405 C   0  0  0  0  0  0  0  0  0  0  0  0
    3.4858   -7.0750    2.0924 C   0  0  0  0  0  0  0  0  0  0  0  0
    5.2181   -7.2185    1.8827 Cl  0  0  0  0  0  0  0  0  0  0  0  0
    3.5482   -9.8234    2.2442 Cl  0  0  0  0  0  0  0  0  0  0  0  0
    8.9199   -4.6438   -1.3446 C   0  0  0  0  0  0  0  0  0  0  0  0
   10.0992   -4.3555   -2.0080 C   0  0  0  0  0  0  0  0  0  0  0  0
   10.7658   -5.5330   -2.4706 C   0  0  0  0  0  0  0  0  0  0  0  0
   10.0859   -6.6811   -2.1500 C   0  0  0  0  0  0  0  0  0  0  0  0
    8.6681   -6.3639   -1.3053 S   0  0  0  0  0  0  0  0  0  0  0  0
    0.4032   -0.6193   -0.6302 H   0  0  0  0  0  0  0  0  0  0  0  0
    0.3965    0.6291    0.5929 H   0  0  0  0  0  0  0  0  0  0  0  0
    2.7524    0.6659    1.8796 H   0  0  0  0  0  0  0  0  0  0  0  0
    2.7042    1.9261    0.6247 H   0  0  0  0  0  0  0  0  0  0  0  0
    4.9783    2.8948    0.5206 H   0  0  0  0  0  0  0  0  0  0  0  0
    7.4139    2.5113    0.1731 H   0  0  0  0  0  0  0  0  0  0  0  0
    8.2523    0.2338   -0.2433 H   0  0  0  0  0  0  0  0  0  0  0  0
    4.4122   -1.2599    0.9604 H   0  0  0  0  0  0  0  0  0  0  0  0
    6.6547   -5.3476    0.0242 H   0  0  0  0  0  0  0  0  0  0  0  0
    2.9160   -3.7049    2.2316 H   0  0  0  0  0  0  0  0  0  0  0  0
    0.9107   -4.9281    2.8586 H   0  0  0  0  0  0  0  0  0  0  0  0
   -0.3584   -7.0390    2.6325 H   0  0  0  0  0  0  0  0  0  0  0  0
    0.8632   -9.1879    2.5279 H   0  0  0  0  0  0  0  0  0  0  0  0
   10.4715   -3.3483   -2.1563 H   0  0  0  0  0  0  0  0  0  0  0  0
   11.6987   -5.5421   -3.0141 H   0  0  0  0  0  0  0  0  0  0  0  0
   10.3259   -7.7108   -2.3579 H   0  0  0  0  0  0  0  0  0  0  0  0
  1  2  1  0  0  0  0
  1 34  1  0  0  0  0
  1 35  1  0  0  0  0
  2  3  2  0  0  0  0
  2  4  1  0  0  0  0
  4  5  1  0  0  0  0
  4 36  1  0  0  0  0
  4 37  1  0  0  0  0
  5  6  2  0  0  0  0
  5 10  1  0  0  0  0
  6  7  1  0  0  0  0
  6 38  1  0  0  0  0
  7  8  2  0  0  0  0
  7 39  1  0  0  0  0
  8  9  1  0  0  0  0
  8 40  1  0  0  0  0
  9 10  2  0  0  0  0
  9 11  1  0  0  0  0
 10 41  1  0  0  0  0
 11 12  1  0  0  0  0
 11 16  1  0  0  0  0
 12 13  1  0  0  0  0
 12 14  1  0  0  0  0
 14 15  2  0  0  0  0
 14 29  1  0  0  0  0
 15 16  1  0  0  0  0
 15 42  1  0  0  0  0
 16 17  2  0  0  0  0
 17 18  1  0  0  0  0
 18 19  2  0  0  0  0
 18 20  1  0  0  0  0
 20 21  1  0  0  0  0
 20 43  1  0  0  0  0
 21 22  2  0  0  0  0
 21 26  1  0  0  0  0
 22 23  1  0  0  0  0
 22 44  1  0  0  0  0
 23 24  2  0  0  0  0
 23 45  1  0  0  0  0
 24 25  1  0  0  0  0
 24 46  1  0  0  0  0
 25 26  2  0  0  0  0
 25 28  1  0  0  0  0
 26 27  1  0  0  0  0
 29 30  2  0  0  0  0
 29 33  1  0  0  0  0
 30 31  1  0  0  0  0
 30 47  1  0  0  0  0
 31 32  2  0  0  0  0
 31 48  1  0  0  0  0
 32 33  1  0  0  0  0
 32 49  1  0  0  0  0
M  END
$$$$
