EDR
 OpenBabel04121316113D

 28 28  0  0  0  0  0  0  0  0999 V2000
    0.9990   -0.1126   -0.1000 C   0  0  0  0  0  0  0  0  0  0  0  0
    2.5183   -0.2518   -0.0395 C   0  0  0  0  0  0  0  0  0  0  0  0
    3.2021    0.4955    1.1779 N   0  3  0  0  0  0  0  0  0  0  0  0
    3.7821    1.7082    0.5075 C   0  0  0  0  0  0  0  0  0  0  0  0
    3.4621    3.0028    0.8377 C   0  0  0  0  0  0  0  0  0  0  0  0
    4.1527    4.0288    0.1860 C   0  0  0  0  0  0  0  0  0  0  0  0
    5.0776    3.7530   -0.8387 C   0  0  0  0  0  0  0  0  0  0  0  0
    5.3779    2.4542   -1.1734 C   0  0  0  0  0  0  0  0  0  0  0  0
    4.7667    1.4353   -0.4798 C   0  0  0  0  0  0  0  0  0  0  0  0
    6.2459    2.0743   -2.1426 O   0  0  0  0  0  0  0  0  0  0  0  0
    2.2404    0.7082    2.3549 C   0  0  0  0  0  0  0  0  0  0  0  0
    4.4990   -0.0710    1.8598 C   0  0  0  0  0  0  0  0  0  0  0  0
    0.6342   -0.3460   -1.1073 H   0  0  0  0  0  0  0  0  0  0  0  0
    0.6691    0.9166    0.0937 H   0  0  0  0  0  0  0  0  0  0  0  0
    0.5131   -0.7985    0.5967 H   0  0  0  0  0  0  0  0  0  0  0  0
    2.8189    0.2461   -0.9739 H   0  0  0  0  0  0  0  0  0  0  0  0
    2.8981   -1.2724   -0.0947 H   0  0  0  0  0  0  0  0  0  0  0  0
    2.7222    3.2538    1.5880 H   0  0  0  0  0  0  0  0  0  0  0  0
    3.9702    5.0551    0.4868 H   0  0  0  0  0  0  0  0  0  0  0  0
    5.5600    4.5776   -1.3567 H   0  0  0  0  0  0  0  0  0  0  0  0
    5.0561    0.4217   -0.7479 H   0  0  0  0  0  0  0  0  0  0  0  0
    6.5177    2.8452   -2.6713 H   0  0  0  0  0  0  0  0  0  0  0  0
    1.1970    0.7286    2.0491 H   0  0  0  0  0  0  0  0  0  0  0  0
    2.4815    1.6170    2.9044 H   0  0  0  0  0  0  0  0  0  0  0  0
    2.3403   -0.1506    3.0315 H   0  0  0  0  0  0  0  0  0  0  0  0
    5.1721   -0.5106    1.1224 H   0  0  0  0  0  0  0  0  0  0  0  0
    4.2545   -0.7956    2.6358 H   0  0  0  0  0  0  0  0  0  0  0  0
    4.9952    0.7881    2.3499 H   0  0  0  0  0  0  0  0  0  0  0  0
  1  2  1  0  0  0  0
  1 13  1  0  0  0  0
  1 14  1  0  0  0  0
  1 15  1  0  0  0  0
  2  3  1  0  0  0  0
  2 16  1  0  0  0  0
  2 17  1  0  0  0  0
  3  4  1  0  0  0  0
  3 11  1  0  0  0  0
  3 12  1  0  0  0  0
  4  5  2  0  0  0  0
  4  9  1  0  0  0  0
  5  6  1  0  0  0  0
  5 18  1  0  0  0  0
  6  7  2  0  0  0  0
  6 19  1  0  0  0  0
  7  8  1  0  0  0  0
  7 20  1  0  0  0  0
  8  9  2  0  0  0  0
  8 10  1  0  0  0  0
  9 21  1  0  0  0  0
 10 22  1  0  0  0  0
 11 23  1  0  0  0  0
 11 24  1  0  0  0  0
 11 25  1  0  0  0  0
 12 26  1  0  0  0  0
 12 27  1  0  0  0  0
 12 28  1  0  0  0  0
M  CHG  1   3   1
M  END
$$$$
