EEA
 OpenBabel04121316113D

 70 72  0  0  1  0  0  0  0  0999 V2000
    4.6322   -1.9365   -0.0507 O   0  0  0  0  0  0  0  0  0  0  0  0
    3.5294   -2.4557    0.1238 C   0  0  0  0  0  0  0  0  0  0  0  0
    2.4283   -2.3220   -0.6901 N   0  0  0  0  0  0  0  0  0  0  0  0
    2.3674   -1.5841   -1.9598 C   0  0  2  0  0  0  0  0  0  0  0  0
    1.7623   -0.6836   -1.7837 H   0  0  0  0  0  0  0  0  0  0  0  0
    1.6382   -2.4146   -3.0478 C   0  0  0  0  0  0  0  0  0  0  0  0
    2.1033   -2.6321   -4.1675 O   0  0  0  0  0  0  0  0  0  0  0  0
    0.3966   -2.9169   -2.8153 N   0  0  0  0  0  0  0  0  0  0  0  0
   -0.5667   -2.5360   -1.7936 C   0  0  2  0  0  0  0  0  0  0  0  0
   -0.0556   -2.1133   -0.9345 H   0  0  0  0  0  0  0  0  0  0  0  0
   -1.2907   -3.7942   -1.2972 C   0  0  0  0  0  0  0  0  0  0  0  0
   -2.5020   -3.8730   -1.1295 O   0  0  0  0  0  0  0  0  0  0  0  0
   -0.4875   -4.8287   -0.9137 N   0  0  0  0  0  0  0  0  0  0  0  0
   -1.5012   -1.4340   -2.2553 C   0  0  0  0  0  0  0  0  0  0  0  0
   -2.3893   -1.8514   -3.4224 C   0  0  0  0  0  0  0  0  0  0  0  0
   -3.3454   -0.7360   -3.7498 C   0  0  0  0  0  0  0  0  0  0  0  0
   -3.3666    0.3425   -3.1908 O   0  0  0  0  0  0  0  0  0  0  0  0
   -4.1939   -1.0591   -4.7510 O   0  0  0  0  0  0  0  0  0  0  0  0
    3.7490   -1.1972   -2.4568 C   0  0  0  0  0  0  0  0  0  0  0  0
    4.6347   -2.4361   -2.7273 C   0  0  0  0  0  0  0  0  0  0  0  0
    6.0612   -2.0103   -2.8870 C   0  0  0  0  0  0  0  0  0  0  0  0
    6.4357   -0.8504   -2.9867 O   0  0  0  0  0  0  0  0  0  0  0  0
    6.9100   -3.0592   -2.9722 O   0  0  0  0  0  0  0  0  0  0  0  0
    3.4128   -3.4222    1.2405 C   0  0  0  0  0  0  0  0  0  0  0  0
    1.9932   -3.6097    1.6833 C   0  0  0  0  0  0  0  0  0  0  0  0
    1.9433   -4.3902    2.8981 C   0  0  0  0  0  0  0  0  0  0  0  0
    2.9292   -4.2228    3.8056 O   0  0  0  0  0  0  0  0  0  0  0  0
    2.7035   -5.0726    4.8561 N   0  0  0  0  0  0  0  0  0  0  0  0
    1.5613   -5.7133    4.5650 C   0  0  0  0  0  0  0  0  0  0  0  0
    1.0534   -5.3212    3.3180 C   0  0  0  0  0  0  0  0  0  0  0  0
    0.9902   -6.7030    5.4322 C   0  0  0  0  0  0  0  0  0  0  0  0
    1.5859   -6.9697    6.6540 C   0  0  0  0  0  0  0  0  0  0  0  0
    1.1608   -8.0654    7.3819 C   0  0  0  0  0  0  0  0  0  0  0  0
    0.0529   -8.8376    6.9828 C   0  0  0  0  0  0  0  0  0  0  0  0
   -0.6339   -8.4287    5.8300 C   0  0  0  0  0  0  0  0  0  0  0  0
   -0.1331   -7.4216    5.0259 C   0  0  0  0  0  0  0  0  0  0  0  0
   -0.3007  -10.0903    7.6815 C   0  0  0  0  0  0  0  0  0  0  0  0
    0.3904  -10.5024    8.8344 C   0  0  0  0  0  0  0  0  0  0  0  0
    0.1683  -11.7457    9.4162 C   0  0  0  0  0  0  0  0  0  0  0  0
   -0.6801  -12.6520    8.7962 C   0  0  0  0  0  0  0  0  0  0  0  0
   -1.3956  -12.2632    7.6727 C   0  0  0  0  0  0  0  0  0  0  0  0
   -1.2628  -10.9759    7.1638 C   0  0  0  0  0  0  0  0  0  0  0  0
   -2.4145  -13.3879    6.8634 Cl  0  0  0  0  0  0  0  0  0  0  0  0
    1.5397   -2.5044   -0.2621 H   0  0  0  0  0  0  0  0  0  0  0  0
    0.0459   -3.4064   -3.6345 H   0  0  0  0  0  0  0  0  0  0  0  0
    0.5069   -4.8578   -1.0959 H   0  0  0  0  0  0  0  0  0  0  0  0
   -0.9594   -5.6804   -0.6349 H   0  0  0  0  0  0  0  0  0  0  0  0
   -0.9151   -0.5467   -2.5346 H   0  0  0  0  0  0  0  0  0  0  0  0
   -2.1214   -1.1327   -1.4002 H   0  0  0  0  0  0  0  0  0  0  0  0
   -2.9794   -2.7353   -3.1675 H   0  0  0  0  0  0  0  0  0  0  0  0
   -1.7772   -2.0789   -4.3006 H   0  0  0  0  0  0  0  0  0  0  0  0
   -4.0841   -1.9627   -5.1007 H   0  0  0  0  0  0  0  0  0  0  0  0
    4.1969   -0.5194   -1.7161 H   0  0  0  0  0  0  0  0  0  0  0  0
    3.6744   -0.5930   -3.3654 H   0  0  0  0  0  0  0  0  0  0  0  0
    4.3199   -2.9628   -3.6281 H   0  0  0  0  0  0  0  0  0  0  0  0
    4.5894   -3.1950   -1.9367 H   0  0  0  0  0  0  0  0  0  0  0  0
    6.4720   -3.9235   -2.8613 H   0  0  0  0  0  0  0  0  0  0  0  0
    4.0143   -2.9937    2.0501 H   0  0  0  0  0  0  0  0  0  0  0  0
    3.8744   -4.3746    0.9462 H   0  0  0  0  0  0  0  0  0  0  0  0
    1.4338   -4.1541    0.9123 H   0  0  0  0  0  0  0  0  0  0  0  0
    1.4880   -2.6522    1.8454 H   0  0  0  0  0  0  0  0  0  0  0  0
    0.1767   -5.6548    2.7869 H   0  0  0  0  0  0  0  0  0  0  0  0
    2.4168   -6.3711    7.0212 H   0  0  0  0  0  0  0  0  0  0  0  0
    1.7653   -8.3100    8.2472 H   0  0  0  0  0  0  0  0  0  0  0  0
   -1.5443   -8.9091    5.4892 H   0  0  0  0  0  0  0  0  0  0  0  0
   -0.6274   -7.2388    4.0766 H   0  0  0  0  0  0  0  0  0  0  0  0
    1.1457   -9.8776    9.3012 H   0  0  0  0  0  0  0  0  0  0  0  0
    0.6904  -12.0040   10.3320 H   0  0  0  0  0  0  0  0  0  0  0  0
   -0.7763  -13.6563    9.1910 H   0  0  0  0  0  0  0  0  0  0  0  0
   -1.8956  -10.7036    6.3255 H   0  0  0  0  0  0  0  0  0  0  0  0
  1  2  2  0  0  0  0
  2  3  1  0  0  0  0
  2 24  1  0  0  0  0
  3 44  1  0  0  0  0
  4  6  1  0  0  0  0
  4 19  1  0  0  0  0
  4  5  1  1  0  0  0
  4  3  1  0  0  0  0
  6  7  2  0  0  0  0
  6  8  1  0  0  0  0
  8 45  1  0  0  0  0
  9 11  1  0  0  0  0
  9 14  1  0  0  0  0
  9 10  1  1  0  0  0
  9  8  1  0  0  0  0
 11 12  2  0  0  0  0
 11 13  1  0  0  0  0
 13 46  1  0  0  0  0
 13 47  1  0  0  0  0
 14 15  1  0  0  0  0
 14 48  1  0  0  0  0
 14 49  1  0  0  0  0
 15 16  1  0  0  0  0
 15 50  1  0  0  0  0
 15 51  1  0  0  0  0
 16 17  2  0  0  0  0
 16 18  1  0  0  0  0
 18 52  1  0  0  0  0
 19 20  1  0  0  0  0
 19 53  1  0  0  0  0
 19 54  1  0  0  0  0
 20 21  1  0  0  0  0
 20 55  1  0  0  0  0
 20 56  1  0  0  0  0
 21 22  2  0  0  0  0
 21 23  1  0  0  0  0
 23 57  1  0  0  0  0
 24 25  1  0  0  0  0
 24 58  1  0  0  0  0
 24 59  1  0  0  0  0
 25 26  1  0  0  0  0
 25 60  1  0  0  0  0
 25 61  1  0  0  0  0
 26 27  1  0  0  0  0
 26 30  2  0  0  0  0
 27 28  1  0  0  0  0
 28 29  2  0  0  0  0
 29 30  1  0  0  0  0
 29 31  1  0  0  0  0
 30 62  1  0  0  0  0
 31 32  2  0  0  0  0
 31 36  1  0  0  0  0
 32 33  1  0  0  0  0
 32 63  1  0  0  0  0
 33 34  2  0  0  0  0
 33 64  1  0  0  0  0
 34 35  1  0  0  0  0
 34 37  1  0  0  0  0
 35 36  2  0  0  0  0
 35 65  1  0  0  0  0
 36 66  1  0  0  0  0
 37 38  2  0  0  0  0
 37 42  1  0  0  0  0
 38 39  1  0  0  0  0
 38 67  1  0  0  0  0
 39 40  2  0  0  0  0
 39 68  1  0  0  0  0
 40 41  1  0  0  0  0
 40 69  1  0  0  0  0
 41 42  2  0  0  0  0
 41 43  1  0  0  0  0
 42 70  1  0  0  0  0
M  END
$$$$
