EEC
 OpenBabel04121316113D

 60 61  0  0  1  0  0  0  0  0999 V2000
    3.6215   -0.5480    1.6844 O   0  0  0  0  0  0  0  0  0  0  0  0
    2.6126   -0.4041    0.9980 C   0  0  0  0  0  0  0  0  0  0  0  0
    1.4745   -1.1636    1.0764 N   0  0  0  0  0  0  0  0  0  0  0  0
    1.3182   -2.3453    1.9257 C   0  0  2  0  0  0  0  0  0  0  0  0
    0.3506   -2.7665    1.6532 H   0  0  0  0  0  0  0  0  0  0  0  0
    1.2298   -2.0369    3.4451 C   0  0  0  0  0  0  0  0  0  0  0  0
    1.8180   -2.7088    4.2932 O   0  0  0  0  0  0  0  0  0  0  0  0
    0.3575   -1.0798    3.8982 N   0  0  0  0  0  0  0  0  0  0  0  0
   -0.6187   -0.3181    3.1270 C   0  0  2  0  0  0  0  0  0  0  0  0
   -0.0476    0.2432    2.3861 H   0  0  0  0  0  0  0  0  0  0  0  0
   -1.3308    0.7573    3.9605 C   0  0  0  0  0  0  0  0  0  0  0  0
   -2.5396    0.9623    3.9221 O   0  0  0  0  0  0  0  0  0  0  0  0
   -0.5299    1.5906    4.6752 N   0  0  0  0  0  0  0  0  0  0  0  0
   -1.6606   -1.1945    2.4328 C   0  0  0  0  0  0  0  0  0  0  0  0
   -2.4860   -2.0287    3.4127 C   0  0  0  0  0  0  0  0  0  0  0  0
   -3.4148   -2.9306    2.6449 C   0  0  0  0  0  0  0  0  0  0  0  0
   -3.4133   -3.0501    1.4307 O   0  0  0  0  0  0  0  0  0  0  0  0
   -4.2484   -3.6281    3.4442 O   0  0  0  0  0  0  0  0  0  0  0  0
    2.2395   -3.4946    1.5499 C   0  0  0  0  0  0  0  0  0  0  0  0
    3.6796   -3.1761    1.8515 C   0  0  0  0  0  0  0  0  0  0  0  0
    4.6636   -4.2182    1.5047 C   0  0  0  0  0  0  0  0  0  0  0  0
    4.3906   -5.2834    0.9534 O   0  0  0  0  0  0  0  0  0  0  0  0
    5.9259   -3.7793    1.7198 O   0  0  0  0  0  0  0  0  0  0  0  0
    2.6280    0.7024    0.0127 C   0  0  0  0  0  0  0  0  0  0  0  0
    1.2674    1.3052   -0.2618 C   0  0  0  0  0  0  0  0  0  0  0  0
    1.5091    2.6010   -0.8857 C   0  0  0  0  0  0  0  0  0  0  0  0
    0.9578    2.8697   -2.0895 O   0  0  0  0  0  0  0  0  0  0  0  0
    1.4461    4.0932   -2.5315 N   0  0  0  0  0  0  0  0  0  0  0  0
    2.2994    4.5005   -1.5830 C   0  0  0  0  0  0  0  0  0  0  0  0
    2.3450    3.6102   -0.5057 C   0  0  0  0  0  0  0  0  0  0  0  0
    3.0657    5.7131   -1.6383 C   0  0  0  0  0  0  0  0  0  0  0  0
    4.4349    5.6552   -1.9176 C   0  0  0  0  0  0  0  0  0  0  0  0
    5.2206    6.7831   -1.7076 C   0  0  0  0  0  0  0  0  0  0  0  0
    4.6198    7.9820   -1.3217 C   0  0  0  0  0  0  0  0  0  0  0  0
    3.2379    8.0556   -1.1384 C   0  0  0  0  0  0  0  0  0  0  0  0
    2.4663    6.9050   -1.2342 C   0  0  0  0  0  0  0  0  0  0  0  0
    0.6175   -0.8013    0.6820 H   0  0  0  0  0  0  0  0  0  0  0  0
    0.3219   -1.0286    4.9127 H   0  0  0  0  0  0  0  0  0  0  0  0
    0.4791    1.5888    4.6108 H   0  0  0  0  0  0  0  0  0  0  0  0
   -0.9946    2.3542    5.1513 H   0  0  0  0  0  0  0  0  0  0  0  0
   -1.2130   -1.8729    1.7128 H   0  0  0  0  0  0  0  0  0  0  0  0
   -2.3061   -0.5700    1.8043 H   0  0  0  0  0  0  0  0  0  0  0  0
   -3.0841   -1.3815    4.0576 H   0  0  0  0  0  0  0  0  0  0  0  0
   -1.8336   -2.6481    4.0387 H   0  0  0  0  0  0  0  0  0  0  0  0
   -4.1482   -3.4380    4.3961 H   0  0  0  0  0  0  0  0  0  0  0  0
    2.1308   -3.6798    0.4721 H   0  0  0  0  0  0  0  0  0  0  0  0
    1.9149   -4.4067    2.0625 H   0  0  0  0  0  0  0  0  0  0  0  0
    3.8241   -2.8201    2.8788 H   0  0  0  0  0  0  0  0  0  0  0  0
    3.9795   -2.4352    1.1217 H   0  0  0  0  0  0  0  0  0  0  0  0
    5.9457   -2.8586    2.0651 H   0  0  0  0  0  0  0  0  0  0  0  0
    3.1578    0.4200   -0.9049 H   0  0  0  0  0  0  0  0  0  0  0  0
    3.2630    1.4464    0.5163 H   0  0  0  0  0  0  0  0  0  0  0  0
    0.7302    1.4659    0.6794 H   0  0  0  0  0  0  0  0  0  0  0  0
    0.6638    0.6402   -0.8877 H   0  0  0  0  0  0  0  0  0  0  0  0
    2.9592    3.6558    0.3832 H   0  0  0  0  0  0  0  0  0  0  0  0
    4.8905    4.7316   -2.2686 H   0  0  0  0  0  0  0  0  0  0  0  0
    6.2969    6.7290   -1.8460 H   0  0  0  0  0  0  0  0  0  0  0  0
    5.2312    8.8663   -1.1676 H   0  0  0  0  0  0  0  0  0  0  0  0
    2.7625    9.0033   -0.9064 H   0  0  0  0  0  0  0  0  0  0  0  0
    1.4095    6.9270   -0.9772 H   0  0  0  0  0  0  0  0  0  0  0  0
  1  2  2  0  0  0  0
  2  3  1  0  0  0  0
  2 24  1  0  0  0  0
  3 37  1  0  0  0  0
  4  6  1  0  0  0  0
  4 19  1  0  0  0  0
  4  5  1  6  0  0  0
  4  3  1  0  0  0  0
  6  7  2  0  0  0  0
  6  8  1  0  0  0  0
  8 38  1  0  0  0  0
  9 11  1  0  0  0  0
  9 14  1  0  0  0  0
  9 10  1  6  0  0  0
  9  8  1  0  0  0  0
 11 12  2  0  0  0  0
 11 13  1  0  0  0  0
 13 39  1  0  0  0  0
 13 40  1  0  0  0  0
 14 15  1  0  0  0  0
 14 41  1  0  0  0  0
 14 42  1  0  0  0  0
 15 16  1  0  0  0  0
 15 43  1  0  0  0  0
 15 44  1  0  0  0  0
 16 17  2  0  0  0  0
 16 18  1  0  0  0  0
 18 45  1  0  0  0  0
 19 20  1  0  0  0  0
 19 46  1  0  0  0  0
 19 47  1  0  0  0  0
 20 21  1  0  0  0  0
 20 48  1  0  0  0  0
 20 49  1  0  0  0  0
 21 22  2  0  0  0  0
 21 23  1  0  0  0  0
 23 50  1  0  0  0  0
 24 25  1  0  0  0  0
 24 51  1  0  0  0  0
 24 52  1  0  0  0  0
 25 26  1  0  0  0  0
 25 53  1  0  0  0  0
 25 54  1  0  0  0  0
 26 27  1  0  0  0  0
 26 30  2  0  0  0  0
 27 28  1  0  0  0  0
 28 29  2  0  0  0  0
 29 30  1  0  0  0  0
 29 31  1  0  0  0  0
 30 55  1  0  0  0  0
 31 32  2  0  0  0  0
 31 36  1  0  0  0  0
 32 33  1  0  0  0  0
 32 56  1  0  0  0  0
 33 34  2  0  0  0  0
 33 57  1  0  0  0  0
 34 35  1  0  0  0  0
 34 58  1  0  0  0  0
 35 36  2  0  0  0  0
 35 59  1  0  0  0  0
 36 60  1  0  0  0  0
M  END
$$$$
