EFQ
 OpenBabel04121316113D

 41 43  0  0  1  0  0  0  0  0999 V2000
    9.7457   -1.1542  -17.0862 C   0  0  0  0  0  0  0  0  0  0  0  0
    8.3823   -1.1052  -17.5153 O   0  0  0  0  0  0  0  0  0  0  0  0
    7.5594   -1.3338  -16.4520 C   0  0  0  0  0  0  0  0  0  0  0  0
    6.7935   -0.2962  -15.9223 C   0  0  0  0  0  0  0  0  0  0  0  0
    6.0569   -0.4912  -14.7440 C   0  0  0  0  0  0  0  0  0  0  0  0
    5.9584   -1.7703  -14.1880 C   0  0  0  0  0  0  0  0  0  0  0  0
    6.5611   -2.8193  -14.9058 C   0  0  0  0  0  0  0  0  0  0  0  0
    7.4337   -2.6085  -15.9537 C   0  0  0  0  0  0  0  0  0  0  0  0
    5.2577   -1.9886  -12.8485 C   0  0  0  0  0  0  0  0  0  0  0  0
    5.3116   -3.4243  -12.3257 C   0  0  0  0  0  0  0  0  0  0  0  0
    6.0508   -4.2844  -12.8163 O   0  0  0  0  0  0  0  0  0  0  0  0
    4.5924   -3.7072  -11.1945 N   0  0  0  0  0  0  0  0  0  0  0  0
    4.6095   -5.0121  -10.7533 C   0  0  0  0  0  0  0  0  0  0  0  0
    4.7389   -6.0850  -11.5924 N   0  0  0  0  0  0  0  0  0  0  0  0
    4.7708   -7.1468  -10.8216 C   0  0  0  0  0  0  0  0  0  0  0  0
    4.6266   -6.7908   -9.5159 N   0  0  0  0  0  0  0  0  0  0  0  0
    4.5290   -5.4249   -9.4554 C   0  0  0  0  0  0  0  0  0  0  0  0
    4.5722   -7.5886   -8.3197 C   0  0  2  0  0  0  0  0  0  0  0  0
    4.6146   -6.9509   -7.4295 H   0  0  0  0  0  0  0  0  0  0  0  0
    5.4836   -8.8327   -8.2518 C   0  0  0  0  0  0  0  0  0  0  0  0
    4.3117   -9.7077   -8.7452 C   0  0  1  0  0  0  0  0  0  0  0  0
    4.1878  -10.6370   -8.1810 H   0  0  0  0  0  0  0  0  0  0  0  0
    3.3768   -8.5752   -8.2733 C   0  0  0  0  0  0  0  0  0  0  0  0
    4.2659  -10.0173  -10.1479 O   0  0  0  0  0  0  0  0  0  0  0  0
   10.3714   -1.0005  -17.9685 H   0  0  0  0  0  0  0  0  0  0  0  0
   10.0227   -2.1208  -16.6457 H   0  0  0  0  0  0  0  0  0  0  0  0
    9.9475   -0.3470  -16.3738 H   0  0  0  0  0  0  0  0  0  0  0  0
    6.7908    0.6685  -16.4167 H   0  0  0  0  0  0  0  0  0  0  0  0
    5.5620    0.3585  -14.2796 H   0  0  0  0  0  0  0  0  0  0  0  0
    6.4029   -3.8676  -14.6924 H   0  0  0  0  0  0  0  0  0  0  0  0
    7.9714   -3.4575  -16.3626 H   0  0  0  0  0  0  0  0  0  0  0  0
    4.2158   -1.6529  -12.9168 H   0  0  0  0  0  0  0  0  0  0  0  0
    5.7599   -1.3632  -12.0941 H   0  0  0  0  0  0  0  0  0  0  0  0
    4.3547   -2.9775  -10.5409 H   0  0  0  0  0  0  0  0  0  0  0  0
    4.8925   -8.1496  -11.2026 H   0  0  0  0  0  0  0  0  0  0  0  0
    4.4624   -4.8844   -8.5265 H   0  0  0  0  0  0  0  0  0  0  0  0
    5.7586   -9.0588   -7.2105 H   0  0  0  0  0  0  0  0  0  0  0  0
    6.4036   -8.8329   -8.8401 H   0  0  0  0  0  0  0  0  0  0  0  0
    3.0191   -8.7256   -7.2452 H   0  0  0  0  0  0  0  0  0  0  0  0
    2.5063   -8.3566   -8.8977 H   0  0  0  0  0  0  0  0  0  0  0  0
    4.9620  -10.6800  -10.2988 H   0  0  0  0  0  0  0  0  0  0  0  0
  1  2  1  0  0  0  0
  1 25  1  0  0  0  0
  1 26  1  0  0  0  0
  1 27  1  0  0  0  0
  2  3  1  0  0  0  0
  3  4  2  0  0  0  0
  3  8  1  0  0  0  0
  4  5  1  0  0  0  0
  4 28  1  0  0  0  0
  5  6  2  0  0  0  0
  5 29  1  0  0  0  0
  6  7  1  0  0  0  0
  6  9  1  0  0  0  0
  7  8  2  0  0  0  0
  7 30  1  0  0  0  0
  8 31  1  0  0  0  0
  9 10  1  0  0  0  0
  9 32  1  0  0  0  0
  9 33  1  0  0  0  0
 10 11  2  0  0  0  0
 10 12  1  0  0  0  0
 12 13  1  0  0  0  0
 12 34  1  0  0  0  0
 13 14  1  0  0  0  0
 13 17  2  0  0  0  0
 14 15  2  0  0  0  0
 15 16  1  0  0  0  0
 15 35  1  0  0  0  0
 16 17  1  0  0  0  0
 17 36  1  0  0  0  0
 18 20  1  0  0  0  0
 18 23  1  0  0  0  0
 18 19  1  1  0  0  0
 18 16  1  0  0  0  0
 20 21  1  0  0  0  0
 20 37  1  0  0  0  0
 20 38  1  0  0  0  0
 21 22  1  1  0  0  0
 21 23  1  0  0  0  0
 21 24  1  0  0  0  0
 23 39  1  0  0  0  0
 23 40  1  0  0  0  0
 24 41  1  0  0  0  0
M  END
$$$$
