EFS
 OpenBabel04121316113D

 14 13  0  0  0  0  0  0  0  0999 V2000
    0.9973    0.0776    0.0350 C   0  0  0  0  0  0  0  0  0  0  0  0
    2.5087    0.0867    0.0252 C   0  0  0  0  0  0  0  0  0  0  0  0
    3.0061   -1.1128    0.6089 O   0  0  0  0  0  0  0  0  0  0  0  0
    4.7361   -1.1128    0.6089 P   0  0  0  0  0  0  0  0  0  0  0  0
    4.7766   -1.8815    1.9228 O   0  0  0  0  0  0  0  0  0  0  0  0
    4.6473   -2.2015   -0.6013 O   0  0  0  0  0  0  0  0  0  0  0  0
    6.4661   -1.1128    0.6089 O   0  0  0  0  0  0  0  0  0  0  0  0
    0.6047    0.9990   -0.4053 H   0  0  0  0  0  0  0  0  0  0  0  0
    0.6176   -0.0143    1.0574 H   0  0  0  0  0  0  0  0  0  0  0  0
    0.6134   -0.7765   -0.5311 H   0  0  0  0  0  0  0  0  0  0  0  0
    2.8827    0.9392    0.6028 H   0  0  0  0  0  0  0  0  0  0  0  0
    2.8824    0.1686   -1.0005 H   0  0  0  0  0  0  0  0  0  0  0  0
    4.0989   -2.9062   -0.3121 H   0  0  0  0  0  0  0  0  0  0  0  0
    6.7327   -0.9720    1.5377 H   0  0  0  0  0  0  0  0  0  0  0  0
  1  2  1  0  0  0  0
  1  8  1  0  0  0  0
  1  9  1  0  0  0  0
  1 10  1  0  0  0  0
  2  3  1  0  0  0  0
  2 11  1  0  0  0  0
  2 12  1  0  0  0  0
  3  4  1  0  0  0  0
  4  5  2  0  0  0  0
  4  6  1  0  0  0  0
  4  7  1  0  0  0  0
  6 13  1  0  0  0  0
  7 14  1  0  0  0  0
M  END
$$$$
