EH5
 OpenBabel04121316113D

110116  0  0  1  0  0  0  0  0999 V2000
    1.8499   -2.7078  -13.6691 C   0  0  0  0  0  0  0  0  0  0  0  0
    2.6126   -3.2144  -14.7633 O   0  0  0  0  0  0  0  0  0  0  0  0
    3.3908   -2.2340  -15.2942 C   0  0  0  0  0  0  0  0  0  0  0  0
    4.7031   -2.3320  -14.9374 C   0  0  0  0  0  0  0  0  0  0  0  0
    5.5100   -1.3305  -15.3823 C   0  0  0  0  0  0  0  0  0  0  0  0
    5.0636   -0.3805  -16.2732 C   0  0  0  0  0  0  0  0  0  0  0  0
    3.7655   -0.2096  -16.5756 C   0  0  0  0  0  0  0  0  0  0  0  0
    2.9173   -1.1826  -16.1144 C   0  0  0  0  0  0  0  0  0  0  0  0
    1.6416   -1.0158  -16.4906 O   0  0  0  0  0  0  0  0  0  0  0  0
    0.8522   -2.1683  -16.4448 C   0  0  0  0  0  0  0  0  0  0  0  0
   -0.4210   -1.7919  -17.0723 C   0  0  0  0  0  0  0  0  0  0  0  0
   -0.4181   -1.0207  -18.2284 C   0  0  0  0  0  0  0  0  0  0  0  0
   -1.6056   -0.5187  -18.6977 C   0  0  0  0  0  0  0  0  0  0  0  0
   -2.7939   -0.9433  -18.1081 C   0  0  0  0  0  0  0  0  0  0  0  0
   -2.7952   -1.8125  -17.0149 C   0  0  0  0  0  0  0  0  0  0  0  0
   -1.6007   -2.1709  -16.4377 C   0  0  0  0  0  0  0  0  0  0  0  0
    3.5862    0.9653  -17.2460 O   0  0  0  0  0  0  0  0  0  0  0  0
    2.3016    1.1861  -17.7618 C   0  0  0  0  0  0  0  0  0  0  0  0
    6.7492   -1.1813  -14.6962 C   0  0  0  0  0  0  0  0  0  0  0  0
    7.0775   -1.9591  -13.8072 O   0  0  0  0  0  0  0  0  0  0  0  0
    7.5356   -0.1319  -15.0039 N   0  0  0  0  0  0  0  0  0  0  0  0
    7.4060    1.2474  -15.8142 C   0  0  2  0  0  0  0  0  0  0  0  0
    7.1550    0.8909  -16.8117 H   0  0  0  0  0  0  0  0  0  0  0  0
    8.6808    2.1091  -16.3058 C   0  0  2  0  0  0  0  0  0  0  0  0
    9.3909    1.5511  -16.9108 H   0  0  0  0  0  0  0  0  0  0  0  0
    9.5308    2.7496  -15.2251 C   0  0  0  0  0  0  0  0  0  0  0  0
   10.2782    1.7732  -14.3250 N   0  0  0  0  0  0  0  0  0  0  0  0
   10.2834    0.3443  -14.4586 C   0  0  0  0  0  0  0  0  0  0  0  0
   10.3017   -0.3894  -13.4662 O   0  0  0  0  0  0  0  0  0  0  0  0
   10.0539   -0.4135  -15.7787 C   0  0  0  0  0  0  0  0  0  0  0  0
    9.6472   -1.9272  -15.7124 C   0  0  0  0  0  0  0  0  0  0  0  0
    8.8724   -2.4015  -16.9206 N   0  0  0  0  0  0  0  0  0  0  0  0
    8.6444   -1.5847  -18.0118 C   0  0  0  0  0  0  0  0  0  0  0  0
    8.9213   -0.4505  -18.2536 O   0  0  0  0  0  0  0  0  0  0  0  0
    7.9636   -2.3626  -19.0134 C   0  0  0  0  0  0  0  0  0  0  0  0
    7.7350   -3.6262  -18.5337 C   0  0  0  0  0  0  0  0  0  0  0  0
    8.2631   -3.6253  -17.1374 C   0  0  0  0  0  0  0  0  0  0  0  0
    8.1422   -4.5818  -16.3784 O   0  0  0  0  0  0  0  0  0  0  0  0
    7.1841   -4.5586  -19.4026 C   0  0  0  0  0  0  0  0  0  0  0  0
    6.9085   -4.1538  -20.7357 C   0  0  0  0  0  0  0  0  0  0  0  0
    7.1635   -2.8433  -21.1788 C   0  0  0  0  0  0  0  0  0  0  0  0
    7.6937   -1.9226  -20.2963 C   0  0  0  0  0  0  0  0  0  0  0  0
   10.5419    2.3675  -12.9689 C   0  0  0  0  0  0  0  0  0  0  0  0
   10.7855    1.4297  -11.7480 C   0  0  0  0  0  0  0  0  0  0  0  0
   10.9958    2.1119  -10.3931 C   0  0  2  0  0  0  0  0  0  0  0  0
   10.3882    1.6281   -9.6033 H   0  0  0  0  0  0  0  0  0  0  0  0
   10.6706    3.6107  -10.3860 C   0  0  0  0  0  0  0  0  0  0  0  0
   11.3247    4.3618   -9.2637 C   0  0  0  0  0  0  0  0  0  0  0  0
   12.8038    4.0736   -9.2649 C   0  0  1  0  0  0  0  0  0  0  0  0
   13.2905    4.6495   -8.4779 H   0  0  0  0  0  0  0  0  0  0  0  0
   13.1653    2.6108   -9.1672 C   0  0  1  0  0  0  0  0  0  0  0  0
   13.0387    2.1988   -8.1636 H   0  0  0  0  0  0  0  0  0  0  0  0
   12.4445    1.7522  -10.1603 C   0  0  0  0  0  0  0  0  0  0  0  0
   14.5375    2.6080   -9.5833 O   0  0  0  0  0  0  0  0  0  0  0  0
   14.6303    3.7047  -10.5113 C   0  0  0  0  0  0  0  0  0  0  0  0
   13.4061    4.4484  -10.5122 O   0  0  0  0  0  0  0  0  0  0  0  0
    8.2263    3.0877  -17.2593 O   0  0  0  0  0  0  0  0  0  0  0  0
    6.2861    2.1518  -15.1042 C   0  0  0  0  0  0  0  0  0  0  0  0
    6.6507    2.5521  -13.7087 C   0  0  0  0  0  0  0  0  0  0  0  0
    7.5558    1.7136  -13.1606 C   0  0  0  0  0  0  0  0  0  0  0  0
    7.8758    1.5022  -11.8798 C   0  0  0  0  0  0  0  0  0  0  0  0
    7.6309    2.5394  -11.0634 C   0  0  0  0  0  0  0  0  0  0  0  0
    6.8232    3.5686  -11.5539 C   0  0  0  0  0  0  0  0  0  0  0  0
    6.1877    3.4745  -12.8201 C   0  0  0  0  0  0  0  0  0  0  0  0
    1.0627   -3.4508  -13.5253 H   0  0  0  0  0  0  0  0  0  0  0  0
    1.3797   -1.7345  -13.8683 H   0  0  0  0  0  0  0  0  0  0  0  0
    2.4530   -2.5862  -12.7735 H   0  0  0  0  0  0  0  0  0  0  0  0
    5.0646   -3.0975  -14.2570 H   0  0  0  0  0  0  0  0  0  0  0  0
    5.6158    0.4165  -16.6866 H   0  0  0  0  0  0  0  0  0  0  0  0
    0.5594   -2.3270  -15.4245 H   0  0  0  0  0  0  0  0  0  0  0  0
    1.3134   -3.0544  -16.8894 H   0  0  0  0  0  0  0  0  0  0  0  0
    0.5179   -0.7832  -18.7182 H   0  0  0  0  0  0  0  0  0  0  0  0
   -1.5916    0.1748  -19.5294 H   0  0  0  0  0  0  0  0  0  0  0  0
   -3.7345   -0.6012  -18.5168 H   0  0  0  0  0  0  0  0  0  0  0  0
   -3.7167   -2.2065  -16.6056 H   0  0  0  0  0  0  0  0  0  0  0  0
   -1.5745   -2.7345  -15.5052 H   0  0  0  0  0  0  0  0  0  0  0  0
    2.2873    2.1186  -18.3274 H   0  0  0  0  0  0  0  0  0  0  0  0
    1.5826    1.2746  -16.9446 H   0  0  0  0  0  0  0  0  0  0  0  0
    2.0958    0.3813  -18.4621 H   0  0  0  0  0  0  0  0  0  0  0  0
    8.2146   -0.2621  -14.2527 H   0  0  0  0  0  0  0  0  0  0  0  0
    8.8493    3.3996  -14.6498 H   0  0  0  0  0  0  0  0  0  0  0  0
   10.2269    3.5001  -15.6242 H   0  0  0  0  0  0  0  0  0  0  0  0
   10.8019   -0.1703  -16.5242 H   0  0  0  0  0  0  0  0  0  0  0  0
    9.1605   -0.0397  -16.2009 H   0  0  0  0  0  0  0  0  0  0  0  0
    9.0463   -2.1816  -14.8348 H   0  0  0  0  0  0  0  0  0  0  0  0
   10.5434   -2.5246  -15.5671 H   0  0  0  0  0  0  0  0  0  0  0  0
    6.9901   -5.5849  -19.1055 H   0  0  0  0  0  0  0  0  0  0  0  0
    6.5014   -4.8623  -21.4569 H   0  0  0  0  0  0  0  0  0  0  0  0
    6.9691   -2.5399  -22.2054 H   0  0  0  0  0  0  0  0  0  0  0  0
    7.9304   -0.9045  -20.5867 H   0  0  0  0  0  0  0  0  0  0  0  0
    9.7306    3.0791  -12.7519 H   0  0  0  0  0  0  0  0  0  0  0  0
   11.4043    3.0338  -13.0943 H   0  0  0  0  0  0  0  0  0  0  0  0
   11.6239    0.7919  -12.0470 H   0  0  0  0  0  0  0  0  0  0  0  0
   10.1332    0.6132  -11.4574 H   0  0  0  0  0  0  0  0  0  0  0  0
    9.6084    3.8371  -10.3200 H   0  0  0  0  0  0  0  0  0  0  0  0
   11.0023    4.0777  -11.3111 H   0  0  0  0  0  0  0  0  0  0  0  0
   10.8582    4.0988   -8.3085 H   0  0  0  0  0  0  0  0  0  0  0  0
   11.1411    5.4254   -9.4556 H   0  0  0  0  0  0  0  0  0  0  0  0
   12.5302    0.6838   -9.9061 H   0  0  0  0  0  0  0  0  0  0  0  0
   12.9636    1.8410  -11.1253 H   0  0  0  0  0  0  0  0  0  0  0  0
   14.8528    3.3469  -11.5243 H   0  0  0  0  0  0  0  0  0  0  0  0
   15.4273    4.3635  -10.1708 H   0  0  0  0  0  0  0  0  0  0  0  0
    9.0197    3.3976  -17.7362 H   0  0  0  0  0  0  0  0  0  0  0  0
    5.4070    1.5353  -14.8947 H   0  0  0  0  0  0  0  0  0  0  0  0
    5.9826    2.9776  -15.7441 H   0  0  0  0  0  0  0  0  0  0  0  0
    8.2632    1.2870  -13.8013 H   0  0  0  0  0  0  0  0  0  0  0  0
    8.5159    0.6529  -11.7760 H   0  0  0  0  0  0  0  0  0  0  0  0
    8.1525    2.5515  -10.1187 H   0  0  0  0  0  0  0  0  0  0  0  0
    6.6968    4.4450  -10.9358 H   0  0  0  0  0  0  0  0  0  0  0  0
    5.3834    4.1346  -13.0986 H   0  0  0  0  0  0  0  0  0  0  0  0
  1  2  1  0  0  0  0
  1 65  1  0  0  0  0
  1 66  1  0  0  0  0
  1 67  1  0  0  0  0
  2  3  1  0  0  0  0
  3  4  2  0  0  0  0
  3  8  1  0  0  0  0
  4  5  1  0  0  0  0
  4 68  1  0  0  0  0
  5  6  2  0  0  0  0
  5 19  1  0  0  0  0
  6  7  1  0  0  0  0
  6 69  1  0  0  0  0
  7  8  2  0  0  0  0
  7 17  1  0  0  0  0
  8  9  1  0  0  0  0
  9 10  1  0  0  0  0
 10 11  1  0  0  0  0
 10 70  1  0  0  0  0
 10 71  1  0  0  0  0
 11 12  2  0  0  0  0
 11 16  1  0  0  0  0
 12 13  1  0  0  0  0
 12 72  1  0  0  0  0
 13 14  2  0  0  0  0
 13 73  1  0  0  0  0
 14 15  1  0  0  0  0
 14 74  1  0  0  0  0
 15 16  2  0  0  0  0
 15 75  1  0  0  0  0
 16 76  1  0  0  0  0
 17 18  1  0  0  0  0
 18 77  1  0  0  0  0
 18 78  1  0  0  0  0
 18 79  1  0  0  0  0
 19 20  2  0  0  0  0
 19 21  1  0  0  0  0
 21 80  1  0  0  0  0
 22 58  1  0  0  0  0
 22 23  1  6  0  0  0
 22 21  1  0  0  0  0
 24 26  1  0  0  0  0
 24 57  1  0  0  0  0
 24 25  1  6  0  0  0
 24 22  1  0  0  0  0
 26 27  1  0  0  0  0
 26 81  1  0  0  0  0
 26 82  1  0  0  0  0
 27 28  1  0  0  0  0
 27 43  1  0  0  0  0
 28 29  2  0  0  0  0
 28 30  1  0  0  0  0
 30 31  1  0  0  0  0
 30 83  1  0  0  0  0
 30 84  1  0  0  0  0
 31 32  1  0  0  0  0
 31 85  1  0  0  0  0
 31 86  1  0  0  0  0
 32 33  1  0  0  0  0
 32 37  1  0  0  0  0
 33 34  2  0  0  0  0
 33 35  1  0  0  0  0
 35 36  2  0  0  0  0
 35 42  1  0  0  0  0
 36 37  1  0  0  0  0
 36 39  1  0  0  0  0
 37 38  2  0  0  0  0
 39 40  2  0  0  0  0
 39 87  1  0  0  0  0
 40 41  1  0  0  0  0
 40 88  1  0  0  0  0
 41 42  2  0  0  0  0
 41 89  1  0  0  0  0
 42 90  1  0  0  0  0
 43 44  1  0  0  0  0
 43 91  1  0  0  0  0
 43 92  1  0  0  0  0
 44 93  1  0  0  0  0
 44 94  1  0  0  0  0
 45 47  1  0  0  0  0
 45 53  1  0  0  0  0
 45 46  1  1  0  0  0
 45 44  1  0  0  0  0
 47 48  1  0  0  0  0
 47 95  1  0  0  0  0
 47 96  1  0  0  0  0
 48 49  1  0  0  0  0
 48 97  1  0  0  0  0
 48 98  1  0  0  0  0
 49 50  1  1  0  0  0
 49 51  1  0  0  0  0
 49 56  1  0  0  0  0
 51 52  1  1  0  0  0
 51 53  1  0  0  0  0
 51 54  1  0  0  0  0
 53 99  1  0  0  0  0
 53100  1  0  0  0  0
 54 55  1  0  0  0  0
 55 56  1  0  0  0  0
 55101  1  0  0  0  0
 55102  1  0  0  0  0
 57103  1  0  0  0  0
 58 59  1  0  0  0  0
 58104  1  0  0  0  0
 58105  1  0  0  0  0
 59 60  2  0  0  0  0
 59 64  1  0  0  0  0
 60 61  1  0  0  0  0
 60106  1  0  0  0  0
 61 62  2  0  0  0  0
 61107  1  0  0  0  0
 62 63  1  0  0  0  0
 62108  1  0  0  0  0
 63 64  2  0  0  0  0
 63109  1  0  0  0  0
 64110  1  0  0  0  0
M  END
$$$$
