EJT
 OpenBabel04121316113D

 87 89  0  0  1  0  0  0  0  0999 V2000
    0.9249   -0.0144    0.0848 O   0  0  0  0  0  0  0  0  0  0  0  0
    2.3069    0.0842    0.3222 C   0  0  0  0  0  0  0  0  0  0  0  0
    3.0316   -1.2585    0.5935 C   0  0  1  0  0  0  0  0  0  0  0  0
    3.1503   -1.3357    1.6830 H   0  0  0  0  0  0  0  0  0  0  0  0
    2.3866   -2.5028    0.2378 O   0  0  0  0  0  0  0  0  0  0  0  0
    2.2721   -2.8040   -1.1529 C   0  0  2  0  0  0  0  0  0  0  0  0
    1.5014   -2.1325   -1.5382 H   0  0  0  0  0  0  0  0  0  0  0  0
    1.7548   -4.1375   -1.3595 O   0  0  0  0  0  0  0  0  0  0  0  0
    1.5425   -4.3718   -2.7498 C   0  0  0  0  0  0  0  0  0  0  0  0
    0.9797   -5.7296   -3.0425 C   0  0  0  0  0  0  0  0  0  0  0  0
    0.8557   -5.8594   -4.5518 C   0  0  0  0  0  0  0  0  0  0  0  0
    0.3543   -7.1537   -4.9078 N   0  0  0  0  0  0  0  0  0  0  0  0
    0.1121   -7.4547   -6.2216 C   0  0  0  0  0  0  0  0  0  0  0  0
    0.2621   -6.6899   -7.1634 O   0  0  0  0  0  0  0  0  0  0  0  0
   -0.3902   -8.8128   -6.4489 C   0  0  0  0  0  0  0  0  0  0  0  0
    0.3783   -9.9075   -6.0545 C   0  0  0  0  0  0  0  0  0  0  0  0
   -0.0774  -11.1967   -6.3268 C   0  0  0  0  0  0  0  0  0  0  0  0
    0.7506  -12.3952   -5.9454 C   0  0  0  0  0  0  0  0  0  0  0  0
    0.0807  -13.6394   -6.3275 N   0  0  0  0  0  0  0  0  0  0  0  0
    0.6524  -14.6947   -6.0648 N   0  3  0  0  0  0  0  0  0  0  0  0
    1.1663  -15.6917   -5.8280 N   0  5  0  0  0  0  0  0  0  0  0  0
   -1.3078  -11.3565   -6.9766 C   0  0  0  0  0  0  0  0  0  0  0  0
   -2.0768  -10.2606   -7.3597 C   0  0  0  0  0  0  0  0  0  0  0  0
   -1.6116   -8.9724   -7.0990 C   0  0  0  0  0  0  0  0  0  0  0  0
   -3.3611  -10.5598   -8.0337 C   0  0  0  0  0  0  0  0  0  0  0  0
   -3.7186  -11.7136   -8.2443 O   0  0  0  0  0  0  0  0  0  0  0  0
   -4.1150   -9.4779   -8.3901 N   0  0  0  0  0  0  0  0  0  0  0  0
   -5.3762   -9.6674   -9.0210 C   0  0  0  0  0  0  0  0  0  0  0  0
   -6.0176   -8.3162   -9.2710 C   0  0  0  0  0  0  0  0  0  0  0  0
   -7.3663   -8.5895   -9.8512 C   0  0  0  0  0  0  0  0  0  0  0  0
   -7.9539   -7.4259  -10.4028 O   0  0  0  0  0  0  0  0  0  0  0  0
   -9.2059   -7.6651  -11.0719 C   0  0  1  0  0  0  0  0  0  0  0  0
  -10.0113   -7.4162  -10.3682 H   0  0  0  0  0  0  0  0  0  0  0  0
   -9.3289   -6.7412  -12.1750 O   0  0  0  0  0  0  0  0  0  0  0  0
   -8.3636   -6.9756  -13.2108 C   0  0  2  0  0  0  0  0  0  0  0  0
   -7.3637   -6.8252  -12.7802 H   0  0  0  0  0  0  0  0  0  0  0  0
   -8.5308   -5.9482  -14.3362 C   0  0  0  0  0  0  0  0  0  0  0  0
   -7.5431   -6.0846  -15.3549 O   0  0  0  0  0  0  0  0  0  0  0  0
   -8.4723   -8.3996  -13.7982 C   0  0  2  0  0  0  0  0  0  0  0  0
   -9.4205   -8.5443  -14.3250 H   0  0  0  0  0  0  0  0  0  0  0  0
   -8.3569   -9.3989  -12.6710 C   0  0  1  0  0  0  0  0  0  0  0  0
   -7.3169   -9.3044  -12.3566 H   0  0  0  0  0  0  0  0  0  0  0  0
   -9.3884   -9.1198  -11.5754 C   0  0  2  0  0  0  0  0  0  0  0  0
   -9.2737   -9.8375  -10.7568 H   0  0  0  0  0  0  0  0  0  0  0  0
  -10.7069   -9.3546  -12.0760 O   0  0  0  0  0  0  0  0  0  0  0  0
   -8.4591  -10.7494  -13.1190 O   0  0  0  0  0  0  0  0  0  0  0  0
   -7.3978   -8.7172  -14.6978 O   0  0  0  0  0  0  0  0  0  0  0  0
    3.6263   -2.6380   -1.9081 C   0  0  2  0  0  0  0  0  0  0  0  0
    4.3155   -3.4381   -1.6105 H   0  0  0  0  0  0  0  0  0  0  0  0
    4.2032   -1.2748   -1.6252 C   0  0  2  0  0  0  0  0  0  0  0  0
    5.1699   -1.1826   -2.1247 H   0  0  0  0  0  0  0  0  0  0  0  0
    4.3896   -1.0994   -0.1080 C   0  0  2  0  0  0  0  0  0  0  0  0
    4.7926   -0.1053    0.1116 H   0  0  0  0  0  0  0  0  0  0  0  0
    5.3319   -2.0468    0.3914 O   0  0  0  0  0  0  0  0  0  0  0  0
    3.3585   -0.3061   -2.2930 O   0  0  0  0  0  0  0  0  0  0  0  0
    3.5069   -2.6683   -3.3456 O   0  0  0  0  0  0  0  0  0  0  0  0
    0.6438    0.8692   -0.2178 H   0  0  0  0  0  0  0  0  0  0  0  0
    2.5405    0.7972    1.1203 H   0  0  0  0  0  0  0  0  0  0  0  0
    2.7237    0.6168   -0.5302 H   0  0  0  0  0  0  0  0  0  0  0  0
    2.4993   -4.4145   -3.2631 H   0  0  0  0  0  0  0  0  0  0  0  0
    0.9126   -3.5777   -3.1726 H   0  0  0  0  0  0  0  0  0  0  0  0
    0.0218   -5.8676   -2.5375 H   0  0  0  0  0  0  0  0  0  0  0  0
    1.6683   -6.4892   -2.6530 H   0  0  0  0  0  0  0  0  0  0  0  0
    1.8254   -5.7302   -5.0538 H   0  0  0  0  0  0  0  0  0  0  0  0
    0.1826   -5.0964   -4.9631 H   0  0  0  0  0  0  0  0  0  0  0  0
    0.1404   -7.8188   -4.1748 H   0  0  0  0  0  0  0  0  0  0  0  0
    1.3402   -9.7496   -5.5732 H   0  0  0  0  0  0  0  0  0  0  0  0
    0.9080  -12.3674   -4.8609 H   0  0  0  0  0  0  0  0  0  0  0  0
    1.7204  -12.3165   -6.4515 H   0  0  0  0  0  0  0  0  0  0  0  0
   -1.6818  -12.3553   -7.2020 H   0  0  0  0  0  0  0  0  0  0  0  0
   -2.1561   -8.0800   -7.3827 H   0  0  0  0  0  0  0  0  0  0  0  0
   -3.8099   -8.5332   -8.2279 H   0  0  0  0  0  0  0  0  0  0  0  0
   -6.0032  -10.2991   -8.3795 H   0  0  0  0  0  0  0  0  0  0  0  0
   -5.2085  -10.2232   -9.9555 H   0  0  0  0  0  0  0  0  0  0  0  0
   -5.4051   -7.7294   -9.9684 H   0  0  0  0  0  0  0  0  0  0  0  0
   -6.1187   -7.7302   -8.3548 H   0  0  0  0  0  0  0  0  0  0  0  0
   -8.0328   -9.0875   -9.1427 H   0  0  0  0  0  0  0  0  0  0  0  0
   -7.1371   -9.3040  -10.6277 H   0  0  0  0  0  0  0  0  0  0  0  0
   -8.4684   -4.9289  -13.9472 H   0  0  0  0  0  0  0  0  0  0  0  0
   -9.5156   -6.0624  -14.8006 H   0  0  0  0  0  0  0  0  0  0  0  0
   -6.6686   -6.1334  -14.9374 H   0  0  0  0  0  0  0  0  0  0  0  0
  -10.6778  -10.2688  -12.4226 H   0  0  0  0  0  0  0  0  0  0  0  0
   -7.7781  -10.8281  -13.8184 H   0  0  0  0  0  0  0  0  0  0  0  0
   -6.5706   -8.3745  -14.3182 H   0  0  0  0  0  0  0  0  0  0  0  0
    6.1755   -1.8921   -0.0705 H   0  0  0  0  0  0  0  0  0  0  0  0
    2.4164   -0.4704   -2.0907 H   0  0  0  0  0  0  0  0  0  0  0  0
    2.8012   -2.0398   -3.5827 H   0  0  0  0  0  0  0  0  0  0  0  0
  1  2  1  0  0  0  0
  1 57  1  0  0  0  0
  2  3  1  0  0  0  0
  2 58  1  0  0  0  0
  2 59  1  0  0  0  0
  3  4  1  1  0  0  0
  3  5  1  0  0  0  0
  3 52  1  0  0  0  0
  5  6  1  0  0  0  0
  6  7  1  6  0  0  0
  6  8  1  0  0  0  0
  6 48  1  0  0  0  0
  8  9  1  0  0  0  0
  9 10  1  0  0  0  0
  9 60  1  0  0  0  0
  9 61  1  0  0  0  0
 10 11  1  0  0  0  0
 10 62  1  0  0  0  0
 10 63  1  0  0  0  0
 11 12  1  0  0  0  0
 11 64  1  0  0  0  0
 11 65  1  0  0  0  0
 12 13  1  0  0  0  0
 12 66  1  0  0  0  0
 13 14  2  0  0  0  0
 13 15  1  0  0  0  0
 15 16  2  0  0  0  0
 15 24  1  0  0  0  0
 16 17  1  0  0  0  0
 16 67  1  0  0  0  0
 17 18  1  0  0  0  0
 17 22  2  0  0  0  0
 18 19  1  0  0  0  0
 18 68  1  0  0  0  0
 18 69  1  0  0  0  0
 19 20  2  0  0  0  0
 20 21  2  0  0  0  0
 22 23  1  0  0  0  0
 22 70  1  0  0  0  0
 23 24  2  0  0  0  0
 23 25  1  0  0  0  0
 24 71  1  0  0  0  0
 25 26  2  0  0  0  0
 25 27  1  0  0  0  0
 27 28  1  0  0  0  0
 27 72  1  0  0  0  0
 28 29  1  0  0  0  0
 28 73  1  0  0  0  0
 28 74  1  0  0  0  0
 29 30  1  0  0  0  0
 29 75  1  0  0  0  0
 29 76  1  0  0  0  0
 30 31  1  0  0  0  0
 30 77  1  0  0  0  0
 30 78  1  0  0  0  0
 31 32  1  0  0  0  0
 32 33  1  1  0  0  0
 32 34  1  0  0  0  0
 32 43  1  0  0  0  0
 34 35  1  0  0  0  0
 35 36  1  1  0  0  0
 35 37  1  0  0  0  0
 35 39  1  0  0  0  0
 37 38  1  0  0  0  0
 37 79  1  0  0  0  0
 37 80  1  0  0  0  0
 38 81  1  0  0  0  0
 39 41  1  0  0  0  0
 39 47  1  0  0  0  0
 39 40  1  6  0  0  0
 41 42  1  1  0  0  0
 41 43  1  0  0  0  0
 41 46  1  0  0  0  0
 43 44  1  1  0  0  0
 43 45  1  0  0  0  0
 45 82  1  0  0  0  0
 46 83  1  0  0  0  0
 47 84  1  0  0  0  0
 48 50  1  0  0  0  0
 48 56  1  0  0  0  0
 48 49  1  1  0  0  0
 50 52  1  0  0  0  0
 50 55  1  0  0  0  0
 50 51  1  6  0  0  0
 52 53  1  1  0  0  0
 52 54  1  0  0  0  0
 54 85  1  0  0  0  0
 55 86  1  0  0  0  0
 56 87  1  0  0  0  0
M  CHG  2  20   1  21  -1
M  END
$$$$
