EKO
 OpenBabel04121316113D

 39 41  0  0  1  0  0  0  0  0999 V2000
    0.9742    0.0029    0.0820 Cl  0  0  0  0  0  0  0  0  0  0  0  0
    2.6884   -0.0130   -0.0179 C   0  0  0  0  0  0  0  0  0  0  0  0
    3.3836    1.1941   -0.0572 C   0  0  0  0  0  0  0  0  0  0  0  0
    4.7506    1.1757   -0.2860 C   0  0  0  0  0  0  0  0  0  0  0  0
    5.4208   -0.0535   -0.3959 C   0  0  0  0  0  0  0  0  0  0  0  0
    4.7377   -1.2530   -0.2251 C   0  0  0  0  0  0  0  0  0  0  0  0
    3.3598   -1.2341   -0.0851 C   0  0  0  0  0  0  0  0  0  0  0  0
    6.8887   -0.0278   -0.6352 C   0  0  0  0  0  0  0  0  0  0  0  0
    7.5032   -1.3127   -0.6422 O   0  0  0  0  0  0  0  0  0  0  0  0
    8.9136   -1.2421   -0.9191 C   0  0  1  0  0  0  0  0  0  0  0  0
    9.0198   -0.6934   -1.8702 H   0  0  0  0  0  0  0  0  0  0  0  0
    9.6674   -0.4410    0.1685 C   0  0  0  0  0  0  0  0  0  0  0  0
    9.5464    0.9753    0.0981 C   0  0  0  0  0  0  0  0  0  0  0  0
   10.1441    1.8270    1.0199 C   0  0  0  0  0  0  0  0  0  0  0  0
   10.9968    1.2939    1.9658 C   0  0  0  0  0  0  0  0  0  0  0  0
   11.1796   -0.0781    2.0465 C   0  0  0  0  0  0  0  0  0  0  0  0
   10.5000   -0.9496    1.1871 C   0  0  0  0  0  0  0  0  0  0  0  0
   10.8508   -2.6106    1.5113 Cl  0  0  0  0  0  0  0  0  0  0  0  0
   11.8712    2.3340    3.0123 Cl  0  0  0  0  0  0  0  0  0  0  0  0
    9.4213   -2.6650   -1.2314 C   0  0  0  0  0  0  0  0  0  0  0  0
   10.8595   -2.6576   -1.6549 C   0  0  0  0  0  0  0  0  0  0  0  0
   11.6938   -1.5683   -1.8495 C   0  0  0  0  0  0  0  0  0  0  0  0
   12.9461   -2.0839   -1.9584 N   0  0  0  0  0  0  0  0  0  0  0  0
   13.8053   -1.5472   -2.0195 H   0  0  0  0  0  0  0  0  0  0  0  0
   12.8385   -3.4392   -1.9066 C   0  0  0  0  0  0  0  0  0  0  0  0
   11.5864   -3.8189   -1.7413 N   0  0  0  0  0  0  0  0  0  0  0  0
    2.8722    2.1430    0.0711 H   0  0  0  0  0  0  0  0  0  0  0  0
    5.2991    2.1139   -0.3679 H   0  0  0  0  0  0  0  0  0  0  0  0
    5.2817   -2.1953   -0.2114 H   0  0  0  0  0  0  0  0  0  0  0  0
    2.8255   -2.1763   -0.0365 H   0  0  0  0  0  0  0  0  0  0  0  0
    7.2521    0.5276    0.2276 H   0  0  0  0  0  0  0  0  0  0  0  0
    7.0901    0.4976   -1.5793 H   0  0  0  0  0  0  0  0  0  0  0  0
    8.9388    1.4504   -0.6721 H   0  0  0  0  0  0  0  0  0  0  0  0
    9.9497    2.8945    0.9738 H   0  0  0  0  0  0  0  0  0  0  0  0
   11.8613   -0.4866    2.7876 H   0  0  0  0  0  0  0  0  0  0  0  0
    8.8054   -3.1356   -2.0091 H   0  0  0  0  0  0  0  0  0  0  0  0
    9.2552   -3.3117   -0.3620 H   0  0  0  0  0  0  0  0  0  0  0  0
   11.5258   -0.5032   -1.8023 H   0  0  0  0  0  0  0  0  0  0  0  0
   13.6961   -4.0886   -1.9731 H   0  0  0  0  0  0  0  0  0  0  0  0
  1  2  1  0  0  0  0
  2  3  2  0  0  0  0
  2  7  1  0  0  0  0
  3  4  1  0  0  0  0
  3 27  1  0  0  0  0
  4  5  2  0  0  0  0
  4 28  1  0  0  0  0
  5  6  1  0  0  0  0
  5  8  1  0  0  0  0
  6  7  2  0  0  0  0
  6 29  1  0  0  0  0
  7 30  1  0  0  0  0
  8  9  1  0  0  0  0
  8 31  1  0  0  0  0
  8 32  1  0  0  0  0
  9 10  1  0  0  0  0
 10 11  1  6  0  0  0
 10 12  1  0  0  0  0
 10 20  1  0  0  0  0
 12 13  2  0  0  0  0
 12 17  1  0  0  0  0
 13 14  1  0  0  0  0
 13 33  1  0  0  0  0
 14 15  2  0  0  0  0
 14 34  1  0  0  0  0
 15 16  1  0  0  0  0
 15 19  1  0  0  0  0
 16 17  2  0  0  0  0
 16 35  1  0  0  0  0
 17 18  1  0  0  0  0
 20 21  1  0  0  0  0
 20 36  1  0  0  0  0
 20 37  1  0  0  0  0
 21 22  2  0  0  0  0
 21 26  1  0  0  0  0
 22 23  1  0  0  0  0
 22 38  1  0  0  0  0
 23 24  1  0  0  0  0
 23 25  1  0  0  0  0
 25 26  2  0  0  0  0
 25 39  1  0  0  0  0
M  END
$$$$
