ELV
 OpenBabel04121316113D

 54 56  0  0  1  0  0  0  0  0999 V2000
    0.8931   -0.0630    0.1219 O   0  0  0  0  0  0  0  0  0  0  0  0
    2.3145   -0.0824    0.2098 C   0  0  0  0  0  0  0  0  0  0  0  0
    2.9531   -1.1671   -0.7198 C   0  0  1  0  0  0  0  0  0  0  0  0
    2.6061   -2.1171   -0.2906 H   0  0  0  0  0  0  0  0  0  0  0  0
    2.4926   -1.1350   -2.1279 N   0  0  0  0  0  0  0  0  0  0  0  0
    2.1136   -2.3066   -2.8198 C   0  0  0  0  0  0  0  0  0  0  0  0
    1.6787   -2.4162   -4.0904 C   0  0  0  0  0  0  0  0  0  0  0  0
    1.3383   -3.6590   -4.8290 C   0  0  0  0  0  0  0  0  0  0  0  0
    0.9334   -3.6860   -5.9898 O   0  0  0  0  0  0  0  0  0  0  0  0
    1.5056   -4.8132   -4.1576 O   0  0  0  0  0  0  0  0  0  0  0  0
    1.5343   -1.1214   -4.7932 C   0  0  0  0  0  0  0  0  0  0  0  0
    1.1956   -1.0228   -5.9533 O   0  0  0  0  0  0  0  0  0  0  0  0
    1.8343    0.1002   -4.0211 C   0  0  0  0  0  0  0  0  0  0  0  0
    2.4181    0.0976   -2.7900 C   0  0  0  0  0  0  0  0  0  0  0  0
    2.7952    1.3623   -2.2914 C   0  0  0  0  0  0  0  0  0  0  0  0
    2.3121    2.5815   -2.8000 C   0  0  0  0  0  0  0  0  0  0  0  0
    2.4794    3.6349   -1.9379 O   0  0  0  0  0  0  0  0  0  0  0  0
    1.9507    4.9102   -2.2834 C   0  0  0  0  0  0  0  0  0  0  0  0
    1.7013    2.5553   -4.0398 C   0  0  0  0  0  0  0  0  0  0  0  0
    1.4555    1.2894   -4.5784 C   0  0  0  0  0  0  0  0  0  0  0  0
    1.3042    3.7828   -4.8161 C   0  0  0  0  0  0  0  0  0  0  0  0
    0.8864    3.6676   -6.2484 C   0  0  0  0  0  0  0  0  0  0  0  0
    1.1337    2.5598   -7.0433 C   0  0  0  0  0  0  0  0  0  0  0  0
    0.2233    2.2224   -8.0075 C   0  0  0  0  0  0  0  0  0  0  0  0
   -0.3116    3.2856   -8.6924 C   0  0  0  0  0  0  0  0  0  0  0  0
   -0.2015    4.5721   -8.1584 C   0  0  0  0  0  0  0  0  0  0  0  0
    0.2544    4.7314   -6.8592 C   0  0  0  0  0  0  0  0  0  0  0  0
    0.1869    5.9096   -6.2194 F   0  0  0  0  0  0  0  0  0  0  0  0
   -0.5521    5.9352   -9.1313 Cl  0  0  0  0  0  0  0  0  0  0  0  0
    4.5029   -1.1800   -0.7474 C   0  0  0  0  0  0  0  0  0  0  0  0
    5.0584   -1.2061    0.6656 C   0  0  0  0  0  0  0  0  0  0  0  0
    5.0423   -2.3865   -1.5352 C   0  0  0  0  0  0  0  0  0  0  0  0
    0.6118    0.8305    0.3924 H   0  0  0  0  0  0  0  0  0  0  0  0
    2.5735   -0.2658    1.2532 H   0  0  0  0  0  0  0  0  0  0  0  0
    2.6676    0.9323    0.0456 H   0  0  0  0  0  0  0  0  0  0  0  0
    2.2519   -3.1793   -2.1952 H   0  0  0  0  0  0  0  0  0  0  0  0
    1.8198   -4.7502   -3.2443 H   0  0  0  0  0  0  0  0  0  0  0  0
    3.4958    1.4620   -1.4736 H   0  0  0  0  0  0  0  0  0  0  0  0
    2.0789    5.6090   -1.4539 H   0  0  0  0  0  0  0  0  0  0  0  0
    0.8741    4.8796   -2.4821 H   0  0  0  0  0  0  0  0  0  0  0  0
    2.5281    5.3224   -3.1116 H   0  0  0  0  0  0  0  0  0  0  0  0
    0.8864    1.1319   -5.4724 H   0  0  0  0  0  0  0  0  0  0  0  0
    2.1446    4.4774   -4.8301 H   0  0  0  0  0  0  0  0  0  0  0  0
    0.4370    4.1946   -4.2873 H   0  0  0  0  0  0  0  0  0  0  0  0
    1.9366    1.8605   -6.8325 H   0  0  0  0  0  0  0  0  0  0  0  0
    0.0910    1.1818   -8.2929 H   0  0  0  0  0  0  0  0  0  0  0  0
   -0.7116    3.0993   -9.6787 H   0  0  0  0  0  0  0  0  0  0  0  0
    4.8788   -0.2803   -1.2502 H   0  0  0  0  0  0  0  0  0  0  0  0
    4.6875   -2.0869    1.1989 H   0  0  0  0  0  0  0  0  0  0  0  0
    4.7616   -0.3121    1.2204 H   0  0  0  0  0  0  0  0  0  0  0  0
    6.1500   -1.2325    0.6514 H   0  0  0  0  0  0  0  0  0  0  0  0
    4.6757   -3.3250   -1.1060 H   0  0  0  0  0  0  0  0  0  0  0  0
    6.1351   -2.4028   -1.5289 H   0  0  0  0  0  0  0  0  0  0  0  0
    4.7449   -2.3583   -2.5892 H   0  0  0  0  0  0  0  0  0  0  0  0
  1  2  1  0  0  0  0
  1 33  1  0  0  0  0
  2  3  1  0  0  0  0
  2 34  1  0  0  0  0
  2 35  1  0  0  0  0
  3  4  1  1  0  0  0
  3  5  1  0  0  0  0
  3 30  1  0  0  0  0
  5  6  1  0  0  0  0
  5 14  1  0  0  0  0
  6  7  2  0  0  0  0
  6 36  1  0  0  0  0
  7  8  1  0  0  0  0
  7 11  1  0  0  0  0
  8  9  2  0  0  0  0
  8 10  1  0  0  0  0
 10 37  1  0  0  0  0
 11 12  2  0  0  0  0
 11 13  1  0  0  0  0
 13 14  2  0  0  0  0
 13 20  1  0  0  0  0
 14 15  1  0  0  0  0
 15 16  2  0  0  0  0
 15 38  1  0  0  0  0
 16 17  1  0  0  0  0
 16 19  1  0  0  0  0
 17 18  1  0  0  0  0
 18 39  1  0  0  0  0
 18 40  1  0  0  0  0
 18 41  1  0  0  0  0
 19 20  2  0  0  0  0
 19 21  1  0  0  0  0
 20 42  1  0  0  0  0
 21 22  1  0  0  0  0
 21 43  1  0  0  0  0
 21 44  1  0  0  0  0
 22 23  2  0  0  0  0
 22 27  1  0  0  0  0
 23 24  1  0  0  0  0
 23 45  1  0  0  0  0
 24 25  2  0  0  0  0
 24 46  1  0  0  0  0
 25 26  1  0  0  0  0
 25 47  1  0  0  0  0
 26 27  2  0  0  0  0
 26 29  1  0  0  0  0
 27 28  1  0  0  0  0
 30 31  1  0  0  0  0
 30 32  1  0  0  0  0
 30 48  1  0  0  0  0
 31 49  1  0  0  0  0
 31 50  1  0  0  0  0
 31 51  1  0  0  0  0
 32 52  1  0  0  0  0
 32 53  1  0  0  0  0
 32 54  1  0  0  0  0
M  END
$$$$
