EMH
 OpenBabel04121316113D

 70 75  0  0  0  0  0  0  0  0999 V2000
    1.0501   -0.4081   -0.7254 C   0  0  0  0  0  0  0  0  0  0  0  0
    2.5477   -0.2095   -0.4056 C   0  0  0  0  0  0  0  0  0  0  0  0
    2.9380    1.1988   -0.7741 C   0  0  0  0  0  0  0  0  0  0  0  0
    3.9086    1.2281   -1.7564 C   0  0  0  0  0  0  0  0  0  0  0  0
    4.2532    2.4290   -2.3239 C   0  0  0  0  0  0  0  0  0  0  0  0
    5.1582    2.3605   -3.4704 C   0  0  0  0  0  0  0  0  0  0  0  0
    5.5926    1.2895   -3.8780 O   0  0  0  0  0  0  0  0  0  0  0  0
    5.4681    3.6301   -4.0552 C   0  0  0  0  0  0  0  0  0  0  0  0
    6.3040    3.9005   -5.1380 C   0  0  0  0  0  0  0  0  0  0  0  0
    7.0698    3.0667   -5.9586 C   0  0  0  0  0  0  0  0  0  0  0  0
    7.8182    3.6463   -6.9699 C   0  0  0  0  0  0  0  0  0  0  0  0
    7.7974    5.0305   -7.1558 C   0  0  0  0  0  0  0  0  0  0  0  0
    7.0339    5.8816   -6.3412 C   0  0  0  0  0  0  0  0  0  0  0  0
    6.2899    5.2797   -5.3314 C   0  0  0  0  0  0  0  0  0  0  0  0
    5.4541    5.8264   -4.3846 N   0  0  0  0  0  0  0  0  0  0  0  0
    5.2406    6.8111   -4.2855 H   0  0  0  0  0  0  0  0  0  0  0  0
    4.9541    4.8230   -3.6050 C   0  0  0  0  0  0  0  0  0  0  0  0
    3.9958    4.9878   -2.4801 C   0  0  0  0  0  0  0  0  0  0  0  0
    3.7205    3.6325   -1.8552 C   0  0  0  0  0  0  0  0  0  0  0  0
    2.8287    3.5928   -0.8001 C   0  0  0  0  0  0  0  0  0  0  0  0
    2.3509    2.4064   -0.2852 C   0  0  0  0  0  0  0  0  0  0  0  0
    1.2443    2.4829    0.5421 N   0  0  0  0  0  0  0  0  0  0  0  0
    0.6885    3.7345    1.1091 C   0  0  0  0  0  0  0  0  0  0  0  0
   -0.7698    3.4731    1.4472 C   0  0  0  0  0  0  0  0  0  0  0  0
   -1.0014    2.2079    2.3533 C   0  0  0  0  0  0  0  0  0  0  0  0
   -0.4744    1.0664    1.5476 C   0  0  0  0  0  0  0  0  0  0  0  0
    0.9940    1.3262    1.3416 C   0  0  0  0  0  0  0  0  0  0  0  0
   -0.5050    2.1768    3.7691 N   0  0  0  0  0  0  0  0  0  0  0  0
   -0.0537    0.8634    4.3466 C   0  0  0  0  0  0  0  0  0  0  0  0
    1.3593    0.4163    3.9534 C   0  0  0  0  0  0  0  0  0  0  0  0
    2.3489    1.4585    4.1343 O   0  0  0  0  0  0  0  0  0  0  0  0
    1.9723    2.7857    3.7103 C   0  0  0  0  0  0  0  0  0  0  0  0
    0.5261    3.1694    4.1090 C   0  0  0  0  0  0  0  0  0  0  0  0
    2.6614    5.5201   -3.0430 C   0  0  0  0  0  0  0  0  0  0  0  0
    4.6155    5.8778   -1.3910 C   0  0  0  0  0  0  0  0  0  0  0  0
    8.5852    5.6008   -8.2206 C   0  0  0  0  0  0  0  0  0  0  0  0
    9.2068    6.0528   -9.0638 N   0  0  0  0  0  0  0  0  0  0  0  0
    0.6022   -1.1617   -0.0637 H   0  0  0  0  0  0  0  0  0  0  0  0
    0.8086   -0.5284   -1.7702 H   0  0  0  0  0  0  0  0  0  0  0  0
    0.4805    0.5087   -0.5900 H   0  0  0  0  0  0  0  0  0  0  0  0
    3.0966   -0.9935   -0.9280 H   0  0  0  0  0  0  0  0  0  0  0  0
    2.9040   -0.3415    0.6366 H   0  0  0  0  0  0  0  0  0  0  0  0
    4.3231    0.2994   -2.1405 H   0  0  0  0  0  0  0  0  0  0  0  0
    7.0706    1.9912   -5.7951 H   0  0  0  0  0  0  0  0  0  0  0  0
    8.4137    2.9953   -7.6034 H   0  0  0  0  0  0  0  0  0  0  0  0
    7.0202    6.9565   -6.4843 H   0  0  0  0  0  0  0  0  0  0  0  0
    2.4326    4.5350   -0.4516 H   0  0  0  0  0  0  0  0  0  0  0  0
    0.8127    4.6251    0.4941 H   0  0  0  0  0  0  0  0  0  0  0  0
    1.1718    4.1093    2.0042 H   0  0  0  0  0  0  0  0  0  0  0  0
   -1.2480    3.3223    0.4658 H   0  0  0  0  0  0  0  0  0  0  0  0
   -1.2156    4.3515    1.9092 H   0  0  0  0  0  0  0  0  0  0  0  0
   -2.0907    2.0680    2.3772 H   0  0  0  0  0  0  0  0  0  0  0  0
   -1.0065    1.0168    0.5866 H   0  0  0  0  0  0  0  0  0  0  0  0
   -0.6865    0.0761    1.9713 H   0  0  0  0  0  0  0  0  0  0  0  0
    1.3146    0.3360    1.1388 H   0  0  0  0  0  0  0  0  0  0  0  0
    1.7902    1.3543    2.0439 H   0  0  0  0  0  0  0  0  0  0  0  0
   -0.7756    0.0736    4.1082 H   0  0  0  0  0  0  0  0  0  0  0  0
   -0.0192    0.9505    5.4337 H   0  0  0  0  0  0  0  0  0  0  0  0
    1.2262   -0.0178    2.9702 H   0  0  0  0  0  0  0  0  0  0  0  0
    1.7850   -0.5083    4.3485 H   0  0  0  0  0  0  0  0  0  0  0  0
    2.2153    2.8467    2.6630 H   0  0  0  0  0  0  0  0  0  0  0  0
    2.6850    3.5683    3.9940 H   0  0  0  0  0  0  0  0  0  0  0  0
    0.1998    4.1590    3.7659 H   0  0  0  0  0  0  0  0  0  0  0  0
    0.5449    3.2779    5.1953 H   0  0  0  0  0  0  0  0  0  0  0  0
    2.2572    4.8186   -3.7886 H   0  0  0  0  0  0  0  0  0  0  0  0
    2.7884    6.4881   -3.5334 H   0  0  0  0  0  0  0  0  0  0  0  0
    1.8874    5.6373   -2.2763 H   0  0  0  0  0  0  0  0  0  0  0  0
    5.5345    5.4143   -1.0041 H   0  0  0  0  0  0  0  0  0  0  0  0
    3.9540    6.0212   -0.5290 H   0  0  0  0  0  0  0  0  0  0  0  0
    4.8703    6.8678   -1.7732 H   0  0  0  0  0  0  0  0  0  0  0  0
  1  2  1  0  0  0  0
  1 38  1  0  0  0  0
  1 39  1  0  0  0  0
  1 40  1  0  0  0  0
  2  3  1  0  0  0  0
  2 41  1  0  0  0  0
  2 42  1  0  0  0  0
  3  4  2  0  0  0  0
  3 21  1  0  0  0  0
  4  5  1  0  0  0  0
  4 43  1  0  0  0  0
  5  6  1  0  0  0  0
  5 19  2  0  0  0  0
  6  7  2  0  0  0  0
  6  8  1  0  0  0  0
  8  9  1  0  0  0  0
  8 17  2  0  0  0  0
  9 10  2  0  0  0  0
  9 14  1  0  0  0  0
 10 11  1  0  0  0  0
 10 44  1  0  0  0  0
 11 12  2  0  0  0  0
 11 45  1  0  0  0  0
 12 13  1  0  0  0  0
 12 36  1  0  0  0  0
 13 14  2  0  0  0  0
 13 46  1  0  0  0  0
 14 15  1  0  0  0  0
 15 16  1  0  0  0  0
 15 17  1  0  0  0  0
 17 18  1  0  0  0  0
 18 19  1  0  0  0  0
 18 34  1  0  0  0  0
 18 35  1  0  0  0  0
 19 20  1  0  0  0  0
 20 21  2  0  0  0  0
 20 47  1  0  0  0  0
 21 22  1  0  0  0  0
 22 23  1  0  0  0  0
 22 27  1  0  0  0  0
 23 24  1  0  0  0  0
 23 48  1  0  0  0  0
 23 49  1  0  0  0  0
 24 25  1  0  0  0  0
 24 50  1  0  0  0  0
 24 51  1  0  0  0  0
 25 26  1  0  0  0  0
 25 28  1  0  0  0  0
 25 52  1  0  0  0  0
 26 27  1  0  0  0  0
 26 53  1  0  0  0  0
 26 54  1  0  0  0  0
 27 55  1  0  0  0  0
 27 56  1  0  0  0  0
 28 29  1  0  0  0  0
 28 33  1  0  0  0  0
 29 30  1  0  0  0  0
 29 57  1  0  0  0  0
 29 58  1  0  0  0  0
 30 31  1  0  0  0  0
 30 59  1  0  0  0  0
 30 60  1  0  0  0  0
 31 32  1  0  0  0  0
 32 33  1  0  0  0  0
 32 61  1  0  0  0  0
 32 62  1  0  0  0  0
 33 63  1  0  0  0  0
 33 64  1  0  0  0  0
 34 65  1  0  0  0  0
 34 66  1  0  0  0  0
 34 67  1  0  0  0  0
 35 68  1  0  0  0  0
 35 69  1  0  0  0  0
 35 70  1  0  0  0  0
 36 37  3  0  0  0  0
M  END
$$$$
