ENC
 OpenBabel04121316113D

 10  9  0  0  0  0  0  0  0  0999 V2000
    1.0552    0.0718   -0.0574 C   0  0  0  0  0  0  0  0  0  0  0  0
    2.5700    0.0704   -0.0556 C   0  0  0  0  0  0  0  0  0  0  0  0
    3.0570   -0.7618    1.0011 N   0  3  0  0  0  0  0  0  0  0  0  0
    3.4295   -1.4117    1.8264 C   0  0  0  0  0  0  0  0  0  0  0  0
    0.6711    0.7054   -0.8619 H   0  0  0  0  0  0  0  0  0  0  0  0
    0.6675    0.4465    0.8956 H   0  0  0  0  0  0  0  0  0  0  0  0
    0.6675   -0.9425   -0.1982 H   0  0  0  0  0  0  0  0  0  0  0  0
    2.9512    1.0866    0.0876 H   0  0  0  0  0  0  0  0  0  0  0  0
    2.9513   -0.3071   -1.0099 H   0  0  0  0  0  0  0  0  0  0  0  0
    3.7783   -2.0347    2.6174 H   0  0  0  0  0  0  0  0  0  0  0  0
  1  2  1  0  0  0  0
  1  5  1  0  0  0  0
  1  6  1  0  0  0  0
  1  7  1  0  0  0  0
  2  3  1  0  0  0  0
  2  8  1  0  0  0  0
  2  9  1  0  0  0  0
  3  4  3  0  0  0  0
  4 10  1  0  0  0  0
M  CHG  1   3   1
M  END
$$$$
