ENS
 OpenBabel04121316113D

 65 68  0  0  1  0  0  0  0  0999 V2000
    0.9307   -0.0345   -0.0634 N   0  0  0  0  0  0  0  0  0  0  0  0
    2.0818   -0.0345   -0.0634 C   0  0  0  0  0  0  0  0  0  0  0  0
    3.4878   -0.0345   -0.0634 C   0  0  0  0  0  0  0  0  0  0  0  0
    4.2761    0.6561   -0.9125 C   0  0  0  0  0  0  0  0  0  0  0  0
    5.6753    0.6164   -0.9525 N   0  0  0  0  0  0  0  0  0  0  0  0
    6.6027   -0.2383   -0.3181 C   0  0  0  0  0  0  0  0  0  0  0  0
    7.4871    0.2891    0.6657 C   0  0  0  0  0  0  0  0  0  0  0  0
    8.2047   -0.5521    1.5407 C   0  0  0  0  0  0  0  0  0  0  0  0
    8.0941   -1.9721    1.4221 C   0  0  0  0  0  0  0  0  0  0  0  0
    7.1987   -2.5363    0.4344 C   0  0  0  0  0  0  0  0  0  0  0  0
    6.5037   -1.6473   -0.4096 C   0  0  0  0  0  0  0  0  0  0  0  0
    5.5545   -2.3855   -1.1017 N   0  0  0  0  0  0  0  0  0  0  0  0
    4.8340   -1.9623   -1.6721 H   0  0  0  0  0  0  0  0  0  0  0  0
    5.4879   -3.6588   -0.6116 C   0  0  0  0  0  0  0  0  0  0  0  0
    6.4801   -3.7906    0.3341 C   0  0  0  0  0  0  0  0  0  0  0  0
    6.5901   -5.1192    1.3993 Cl  0  0  0  0  0  0  0  0  0  0  0  0
    3.6090    1.4828   -1.8113 N   0  0  0  0  0  0  0  0  0  0  0  0
    4.1789    2.4078   -2.7587 C   0  0  1  0  0  0  0  0  0  0  0  0
    5.2423    2.5542   -2.5700 H   0  0  0  0  0  0  0  0  0  0  0  0
    4.0280    1.7760   -4.1331 C   0  0  0  0  0  0  0  0  0  0  0  0
    4.7031    2.6212   -5.2033 C   0  0  0  0  0  0  0  0  0  0  0  0
    3.8447    3.8473   -5.5204 C   0  0  0  0  0  0  0  0  0  0  0  0
    4.1889    5.0759   -4.6544 C   0  0  0  0  0  0  0  0  0  0  0  0
    4.3563    4.7797   -3.2345 N   0  0  0  0  0  0  0  0  0  0  0  0
    3.5330    3.8075   -2.6795 C   0  0  0  0  0  0  0  0  0  0  0  0
    2.3880    4.0440   -2.3091 O   0  0  0  0  0  0  0  0  0  0  0  0
    5.4472    5.3784   -2.4407 C   0  0  0  0  0  0  0  0  0  0  0  0
    5.5980    4.9175   -0.9502 C   0  0  0  0  0  0  0  0  0  0  0  0
    4.9828    3.9820   -0.4492 O   0  0  0  0  0  0  0  0  0  0  0  0
    6.6915    5.4693   -0.3185 N   0  0  0  0  0  0  0  0  0  0  0  0
    6.6267    6.7518    0.3471 C   0  0  0  0  0  0  0  0  0  0  0  0
    8.1036    7.0364    0.5301 C   0  0  0  0  0  0  0  0  0  0  0  0
    8.6985    5.6606    0.8709 C   0  0  0  0  0  0  0  0  0  0  0  0
    7.6685    4.6462    0.3710 C   0  0  0  0  0  0  0  0  0  0  0  0
    3.7720   -0.8773    1.1193 C   0  0  0  0  0  0  0  0  0  0  0  0
    3.1540   -1.8834    1.3821 O   0  0  0  0  0  0  0  0  0  0  0  0
    4.6594   -0.3092    1.9607 O   0  0  0  0  0  0  0  0  0  0  0  0
    5.3577   -1.3605    2.5736 C   0  0  0  0  0  0  0  0  0  0  0  0
    6.1077    1.4195   -1.3845 H   0  0  0  0  0  0  0  0  0  0  0  0
    7.4054    1.3500    0.9243 H   0  0  0  0  0  0  0  0  0  0  0  0
    8.5493   -0.1210    2.4934 H   0  0  0  0  0  0  0  0  0  0  0  0
    8.3067   -2.5669    2.3210 H   0  0  0  0  0  0  0  0  0  0  0  0
    4.6723   -4.3154   -0.8964 H   0  0  0  0  0  0  0  0  0  0  0  0
    2.5965    1.6064   -1.7129 H   0  0  0  0  0  0  0  0  0  0  0  0
    2.9660    1.6217   -4.3710 H   0  0  0  0  0  0  0  0  0  0  0  0
    4.4831    0.7776   -4.1170 H   0  0  0  0  0  0  0  0  0  0  0  0
    4.8244    2.0040   -6.0988 H   0  0  0  0  0  0  0  0  0  0  0  0
    5.7100    2.9162   -4.8811 H   0  0  0  0  0  0  0  0  0  0  0  0
    2.7823    3.5972   -5.3901 H   0  0  0  0  0  0  0  0  0  0  0  0
    3.9616    4.1009   -6.5792 H   0  0  0  0  0  0  0  0  0  0  0  0
    3.3796    5.8083   -4.7434 H   0  0  0  0  0  0  0  0  0  0  0  0
    5.1074    5.5307   -5.0405 H   0  0  0  0  0  0  0  0  0  0  0  0
    5.3340    6.4670   -2.4788 H   0  0  0  0  0  0  0  0  0  0  0  0
    6.3898    5.1221   -2.9476 H   0  0  0  0  0  0  0  0  0  0  0  0
    6.1293    6.6396    1.3223 H   0  0  0  0  0  0  0  0  0  0  0  0
    6.0791    7.4905   -0.2411 H   0  0  0  0  0  0  0  0  0  0  0  0
    8.3150    7.7907    1.2906 H   0  0  0  0  0  0  0  0  0  0  0  0
    8.5185    7.3831   -0.4250 H   0  0  0  0  0  0  0  0  0  0  0  0
    8.8537    5.5566    1.9495 H   0  0  0  0  0  0  0  0  0  0  0  0
    9.6674    5.5197    0.3800 H   0  0  0  0  0  0  0  0  0  0  0  0
    7.2169    4.0911    1.2033 H   0  0  0  0  0  0  0  0  0  0  0  0
    8.0878    3.9235   -0.3362 H   0  0  0  0  0  0  0  0  0  0  0  0
    6.2025   -1.2824    1.9796 H   0  0  0  0  0  0  0  0  0  0  0  0
    5.0877   -2.4053    2.3646 H   0  0  0  0  0  0  0  0  0  0  0  0
    5.7915   -1.1584    3.5444 H   0  0  0  0  0  0  0  0  0  0  0  0
  1  2  3  0  0  0  0
  2  3  1  0  0  0  0
  3  4  2  0  0  0  0
  3 35  1  0  0  0  0
  4  5  1  0  0  0  0
  4 17  1  0  0  0  0
  5  6  1  0  0  0  0
  5 39  1  0  0  0  0
  6  7  2  0  0  0  0
  6 11  1  0  0  0  0
  7  8  1  0  0  0  0
  7 40  1  0  0  0  0
  8  9  2  0  0  0  0
  8 41  1  0  0  0  0
  9 10  1  0  0  0  0
  9 42  1  0  0  0  0
 10 11  2  0  0  0  0
 10 15  1  0  0  0  0
 11 12  1  0  0  0  0
 12 13  1  0  0  0  0
 12 14  1  0  0  0  0
 14 15  2  0  0  0  0
 14 43  1  0  0  0  0
 15 16  1  0  0  0  0
 17 18  1  0  0  0  0
 17 44  1  0  0  0  0
 18 19  1  1  0  0  0
 18 20  1  0  0  0  0
 18 25  1  0  0  0  0
 20 21  1  0  0  0  0
 20 45  1  0  0  0  0
 20 46  1  0  0  0  0
 21 22  1  0  0  0  0
 21 47  1  0  0  0  0
 21 48  1  0  0  0  0
 22 23  1  0  0  0  0
 22 49  1  0  0  0  0
 22 50  1  0  0  0  0
 23 24  1  0  0  0  0
 23 51  1  0  0  0  0
 23 52  1  0  0  0  0
 24 25  1  0  0  0  0
 24 27  1  0  0  0  0
 25 26  2  0  0  0  0
 27 28  1  0  0  0  0
 27 53  1  0  0  0  0
 27 54  1  0  0  0  0
 28 29  2  0  0  0  0
 28 30  1  0  0  0  0
 30 31  1  0  0  0  0
 30 34  1  0  0  0  0
 31 32  1  0  0  0  0
 31 55  1  0  0  0  0
 31 56  1  0  0  0  0
 32 33  1  0  0  0  0
 32 57  1  0  0  0  0
 32 58  1  0  0  0  0
 33 34  1  0  0  0  0
 33 59  1  0  0  0  0
 33 60  1  0  0  0  0
 34 61  1  0  0  0  0
 34 62  1  0  0  0  0
 35 36  2  0  0  0  0
 35 37  1  0  0  0  0
 37 38  1  0  0  0  0
 38 63  1  0  0  0  0
 38 64  1  0  0  0  0
 38 65  1  0  0  0  0
M  END
$$$$
