EP2
 OpenBabel04121316113D

 82 83  0  0  1  0  0  0  0  0999 V2000
    8.4362    7.7206   -1.2309 C   0  0  0  0  0  0  0  0  0  0  0  0
    8.5861    6.4411   -0.6141 O   0  0  0  0  0  0  0  0  0  0  0  0
    7.4060    5.8973   -0.2117 C   0  0  0  0  0  0  0  0  0  0  0  0
    6.3021    6.4142   -0.3564 O   0  0  0  0  0  0  0  0  0  0  0  0
    7.6230    4.5456    0.4391 C   0  0  0  0  0  0  0  0  0  0  0  0
    6.3359    4.0016    0.8362 N   0  0  0  0  0  0  0  0  0  0  0  0
    6.2547    2.7800    1.4470 C   0  0  0  0  0  0  0  0  0  0  0  0
    7.2529    2.1098    1.7052 O   0  0  0  0  0  0  0  0  0  0  0  0
    4.8345    2.3437    1.7889 C   0  0  0  0  0  0  0  0  0  0  0  0
    4.8707    1.0272    2.3585 N   0  0  0  0  0  0  0  0  0  0  0  0
    3.7464    0.4190    2.8489 C   0  0  0  0  0  0  0  0  0  0  0  0
    2.6299    0.9159    2.7227 O   0  0  0  0  0  0  0  0  0  0  0  0
    4.0095   -0.9278    3.5523 C   0  0  1  0  0  0  0  0  0  0  0  0
    4.5094   -1.6067    2.8489 H   0  0  0  0  0  0  0  0  0  0  0  0
    4.9020   -0.6524    4.6833 N   0  0  0  0  0  0  0  0  0  0  0  0
    6.2496   -0.4559    4.5588 C   0  0  0  0  0  0  0  0  0  0  0  0
    6.8281   -0.3822    3.4790 O   0  0  0  0  0  0  0  0  0  0  0  0
    6.9792   -0.2752    5.8292 C   0  0  1  0  0  0  0  0  0  0  0  0
    6.4189    0.1403    6.6576 H   0  0  0  0  0  0  0  0  0  0  0  0
    7.9198   -1.3127    6.1476 O   0  0  0  0  0  0  0  0  0  0  0  0
    8.4674   -0.0377    5.7714 C   0  0  2  0  0  0  0  0  0  0  0  0
    8.9410   -0.0038    4.8000 H   0  0  0  0  0  0  0  0  0  0  0  0
    9.1310    0.7545    6.8258 C   0  0  0  0  0  0  0  0  0  0  0  0
    9.2363    0.3311    7.9760 O   0  0  0  0  0  0  0  0  0  0  0  0
    9.6269    1.9798    6.4567 N   0  0  0  0  0  0  0  0  0  0  0  0
    9.3941    2.6638    5.1777 C   0  0  2  0  0  0  0  0  0  0  0  0
    9.4515    1.9106    4.3883 H   0  0  0  0  0  0  0  0  0  0  0  0
   10.4681    3.7065    4.7411 C   0  0  0  0  0  0  0  0  0  0  0  0
   10.1753    4.6759    4.0355 O   0  0  0  0  0  0  0  0  0  0  0  0
   11.7877    3.4618    5.0365 N   0  0  0  0  0  0  0  0  0  0  0  0
   12.7879    4.5081    4.9784 C   0  0  0  0  0  0  0  0  0  0  0  0
   13.8701    3.9115    4.1088 C   0  0  0  0  0  0  0  0  0  0  0  0
   13.8199    2.4141    4.4306 C   0  0  0  0  0  0  0  0  0  0  0  0
   12.4232    2.1464    5.0174 C   0  0  1  0  0  0  0  0  0  0  0  0
   11.8339    1.4618    4.3963 H   0  0  0  0  0  0  0  0  0  0  0  0
   12.5272    1.6022    6.4497 C   0  0  0  0  0  0  0  0  0  0  0  0
   12.1937    2.2318    7.4467 O   0  0  0  0  0  0  0  0  0  0  0  0
   13.0191    0.3460    6.5353 O   0  0  0  0  0  0  0  0  0  0  0  0
    7.9631    3.2383    5.1700 C   0  0  0  0  0  0  0  0  0  0  0  0
    7.6846    4.2829    6.2751 C   0  0  0  0  0  0  0  0  0  0  0  0
    8.5940    5.5029    6.1874 C   0  0  0  0  0  0  0  0  0  0  0  0
    6.2388    4.7593    6.1885 C   0  0  0  0  0  0  0  0  0  0  0  0
    2.6650   -1.5307    4.0004 C   0  0  0  0  0  0  0  0  0  0  0  0
    2.7568   -2.9192    4.6602 C   0  0  0  0  0  0  0  0  0  0  0  0
    3.6003   -2.9260    5.9331 C   0  0  0  0  0  0  0  0  0  0  0  0
    1.3545   -3.4118    5.0199 C   0  0  0  0  0  0  0  0  0  0  0  0
    9.4269    8.0841   -1.5161 H   0  0  0  0  0  0  0  0  0  0  0  0
    7.9938    8.4339   -0.5280 H   0  0  0  0  0  0  0  0  0  0  0  0
    7.8233    7.6388   -2.1344 H   0  0  0  0  0  0  0  0  0  0  0  0
    8.2474    4.6442    1.3317 H   0  0  0  0  0  0  0  0  0  0  0  0
    8.0799    3.8511   -0.2727 H   0  0  0  0  0  0  0  0  0  0  0  0
    5.5046    4.5569    0.6484 H   0  0  0  0  0  0  0  0  0  0  0  0
    4.2146    2.3020    0.8903 H   0  0  0  0  0  0  0  0  0  0  0  0
    4.3959    3.0310    2.5196 H   0  0  0  0  0  0  0  0  0  0  0  0
    5.7920    0.6008    2.5050 H   0  0  0  0  0  0  0  0  0  0  0  0
    4.5087   -0.6848    5.6130 H   0  0  0  0  0  0  0  0  0  0  0  0
   10.0906    2.4887    7.2133 H   0  0  0  0  0  0  0  0  0  0  0  0
   13.1570    4.6526    6.0013 H   0  0  0  0  0  0  0  0  0  0  0  0
   12.4056    5.4660    4.6153 H   0  0  0  0  0  0  0  0  0  0  0  0
   14.8529    4.3495    4.3074 H   0  0  0  0  0  0  0  0  0  0  0  0
   13.6326    4.0804    3.0516 H   0  0  0  0  0  0  0  0  0  0  0  0
   14.6132    2.1546    5.1388 H   0  0  0  0  0  0  0  0  0  0  0  0
   13.9890    1.8288    3.5197 H   0  0  0  0  0  0  0  0  0  0  0  0
   13.2541   -0.0908    5.6964 H   0  0  0  0  0  0  0  0  0  0  0  0
    7.2469    2.4172    5.3083 H   0  0  0  0  0  0  0  0  0  0  0  0
    7.7390    3.6547    4.1812 H   0  0  0  0  0  0  0  0  0  0  0  0
    7.8305    3.8165    7.2575 H   0  0  0  0  0  0  0  0  0  0  0  0
    8.5356    5.9424    5.1855 H   0  0  0  0  0  0  0  0  0  0  0  0
    9.6267    5.2361    6.4232 H   0  0  0  0  0  0  0  0  0  0  0  0
    8.3197    6.2808    6.9016 H   0  0  0  0  0  0  0  0  0  0  0  0
    6.0314    5.1936    5.2046 H   0  0  0  0  0  0  0  0  0  0  0  0
    6.0503    5.5275    6.9456 H   0  0  0  0  0  0  0  0  0  0  0  0
    5.5412    3.9345    6.3587 H   0  0  0  0  0  0  0  0  0  0  0  0
    2.0099   -1.6121    3.1191 H   0  0  0  0  0  0  0  0  0  0  0  0
    2.1581   -0.8328    4.6814 H   0  0  0  0  0  0  0  0  0  0  0  0
    3.1993   -3.6188    3.9406 H   0  0  0  0  0  0  0  0  0  0  0  0
    3.2462   -2.1579    6.6313 H   0  0  0  0  0  0  0  0  0  0  0  0
    4.6559   -2.7572    5.7131 H   0  0  0  0  0  0  0  0  0  0  0  0
    3.5652   -3.8927    6.4391 H   0  0  0  0  0  0  0  0  0  0  0  0
    0.8685   -2.7265    5.7239 H   0  0  0  0  0  0  0  0  0  0  0  0
    1.4079   -4.3976    5.4933 H   0  0  0  0  0  0  0  0  0  0  0  0
    0.7215   -3.4952    4.1317 H   0  0  0  0  0  0  0  0  0  0  0  0
  1  2  1  0  0  0  0
  1 47  1  0  0  0  0
  1 48  1  0  0  0  0
  1 49  1  0  0  0  0
  2  3  1  0  0  0  0
  3  4  2  0  0  0  0
  3  5  1  0  0  0  0
  5  6  1  0  0  0  0
  5 50  1  0  0  0  0
  5 51  1  0  0  0  0
  6  7  1  0  0  0  0
  6 52  1  0  0  0  0
  7  8  2  0  0  0  0
  7  9  1  0  0  0  0
  9 10  1  0  0  0  0
  9 53  1  0  0  0  0
  9 54  1  0  0  0  0
 10 11  1  0  0  0  0
 10 55  1  0  0  0  0
 11 12  2  0  0  0  0
 11 13  1  0  0  0  0
 13 14  1  6  0  0  0
 13 15  1  0  0  0  0
 13 43  1  0  0  0  0
 15 16  1  0  0  0  0
 15 56  1  0  0  0  0
 16 17  2  0  0  0  0
 16 18  1  0  0  0  0
 18 19  1  1  0  0  0
 18 20  1  0  0  0  0
 18 21  1  0  0  0  0
 20 21  1  0  0  0  0
 21 22  1  6  0  0  0
 21 23  1  0  0  0  0
 23 24  2  0  0  0  0
 23 25  1  0  0  0  0
 25 57  1  0  0  0  0
 26 28  1  0  0  0  0
 26 39  1  0  0  0  0
 26 27  1  6  0  0  0
 26 25  1  0  0  0  0
 28 29  2  0  0  0  0
 28 30  1  0  0  0  0
 30 31  1  0  0  0  0
 30 34  1  0  0  0  0
 31 32  1  0  0  0  0
 31 58  1  0  0  0  0
 31 59  1  0  0  0  0
 32 33  1  0  0  0  0
 32 60  1  0  0  0  0
 32 61  1  0  0  0  0
 33 34  1  0  0  0  0
 33 62  1  0  0  0  0
 33 63  1  0  0  0  0
 34 36  1  0  0  0  0
 34 35  1  6  0  0  0
 36 37  2  0  0  0  0
 36 38  1  0  0  0  0
 38 64  1  0  0  0  0
 39 40  1  0  0  0  0
 39 65  1  0  0  0  0
 39 66  1  0  0  0  0
 40 41  1  0  0  0  0
 40 42  1  0  0  0  0
 40 67  1  0  0  0  0
 41 68  1  0  0  0  0
 41 69  1  0  0  0  0
 41 70  1  0  0  0  0
 42 71  1  0  0  0  0
 42 72  1  0  0  0  0
 42 73  1  0  0  0  0
 43 44  1  0  0  0  0
 43 74  1  0  0  0  0
 43 75  1  0  0  0  0
 44 45  1  0  0  0  0
 44 46  1  0  0  0  0
 44 76  1  0  0  0  0
 45 77  1  0  0  0  0
 45 78  1  0  0  0  0
 45 79  1  0  0  0  0
 46 80  1  0  0  0  0
 46 81  1  0  0  0  0
 46 82  1  0  0  0  0
M  END
$$$$
