EPE
 OpenBabel04121316113D

 33 33  0  0  0  0  0  0  0  0999 V2000
    0.7744    0.0482   -0.2473 O   0  0  0  0  0  0  0  0  0  0  0  0
    2.1819    0.0465   -0.1984 C   0  0  0  0  0  0  0  0  0  0  0  0
    2.9342    1.0026   -1.1368 C   0  0  0  0  0  0  0  0  0  0  0  0
    4.4227    0.9701   -1.0708 N   0  0  0  0  0  0  0  0  0  0  0  0
    4.9418    2.0164   -0.1625 C   0  0  0  0  0  0  0  0  0  0  0  0
    4.6442    1.7092    1.3209 C   0  0  0  0  0  0  0  0  0  0  0  0
    5.1573    0.3809    1.7695 N   0  0  0  0  0  0  0  0  0  0  0  0
    4.7384   -0.6963    0.8461 C   0  0  0  0  0  0  0  0  0  0  0  0
    4.9552   -0.3489   -0.6562 C   0  0  0  0  0  0  0  0  0  0  0  0
    6.6265    0.4292    1.7953 C   0  0  0  0  0  0  0  0  0  0  0  0
    7.2038   -0.8793    2.2920 C   0  0  0  0  0  0  0  0  0  0  0  0
    8.9596   -0.7959    2.2073 S   0  0  0  0  0  0  0  0  0  0  0  0
    9.3479   -0.8082    0.8202 O   0  0  0  0  0  0  0  0  0  0  0  0
    9.4258    0.1906    3.1589 O   0  0  0  0  0  0  0  0  0  0  0  0
    9.2453   -2.2748    2.7921 O   0  0  0  0  0  0  0  0  0  0  0  0
    0.5292   -0.5652    0.4753 H   0  0  0  0  0  0  0  0  0  0  0  0
    2.4816   -0.9823   -0.4218 H   0  0  0  0  0  0  0  0  0  0  0  0
    2.4003    0.3133    0.8338 H   0  0  0  0  0  0  0  0  0  0  0  0
    2.5718    2.0250   -0.9728 H   0  0  0  0  0  0  0  0  0  0  0  0
    2.6473    0.7628   -2.1655 H   0  0  0  0  0  0  0  0  0  0  0  0
    4.5455    3.0016   -0.4377 H   0  0  0  0  0  0  0  0  0  0  0  0
    6.0269    2.1217   -0.3047 H   0  0  0  0  0  0  0  0  0  0  0  0
    3.5636    1.7816    1.4868 H   0  0  0  0  0  0  0  0  0  0  0  0
    5.0481    2.5063    1.9571 H   0  0  0  0  0  0  0  0  0  0  0  0
    3.7260   -0.9733    1.1248 H   0  0  0  0  0  0  0  0  0  0  0  0
    5.1959   -1.6660    1.0507 H   0  0  0  0  0  0  0  0  0  0  0  0
    4.5592   -1.1422   -1.3006 H   0  0  0  0  0  0  0  0  0  0  0  0
    6.0373   -0.3661   -0.8535 H   0  0  0  0  0  0  0  0  0  0  0  0
    6.9463    1.2510    2.4443 H   0  0  0  0  0  0  0  0  0  0  0  0
    7.0366    0.6455    0.8033 H   0  0  0  0  0  0  0  0  0  0  0  0
    6.9586   -1.7278    1.6462 H   0  0  0  0  0  0  0  0  0  0  0  0
    6.8715   -1.0989    3.3084 H   0  0  0  0  0  0  0  0  0  0  0  0
    9.1808   -2.9345    2.0690 H   0  0  0  0  0  0  0  0  0  0  0  0
  1  2  1  0  0  0  0
  1 16  1  0  0  0  0
  2  3  1  0  0  0  0
  2 17  1  0  0  0  0
  2 18  1  0  0  0  0
  3  4  1  0  0  0  0
  3 19  1  0  0  0  0
  3 20  1  0  0  0  0
  4  5  1  0  0  0  0
  4  9  1  0  0  0  0
  5  6  1  0  0  0  0
  5 21  1  0  0  0  0
  5 22  1  0  0  0  0
  6  7  1  0  0  0  0
  6 23  1  0  0  0  0
  6 24  1  0  0  0  0
  7  8  1  0  0  0  0
  7 10  1  0  0  0  0
  8  9  1  0  0  0  0
  8 25  1  0  0  0  0
  8 26  1  0  0  0  0
  9 27  1  0  0  0  0
  9 28  1  0  0  0  0
 10 11  1  0  0  0  0
 10 29  1  0  0  0  0
 10 30  1  0  0  0  0
 11 12  1  0  0  0  0
 11 31  1  0  0  0  0
 11 32  1  0  0  0  0
 12 13  2  0  0  0  0
 12 14  2  0  0  0  0
 12 15  1  0  0  0  0
 15 33  1  0  0  0  0
M  END
$$$$
