EPJ
 OpenBabel04121316113D

 27 29  0  0  1  0  0  0  0  0999 V2000
    7.0172    4.9829   -4.1590 Cl  0  0  0  0  0  0  0  0  0  0  0  0
    7.0091    3.5088   -3.2864 C   0  0  0  0  0  0  0  0  0  0  0  0
    5.8577    2.7451   -3.1862 C   0  0  0  0  0  0  0  0  0  0  0  0
    5.8791    1.6470   -2.3302 C   0  0  0  0  0  0  0  0  0  0  0  0
    7.0475    1.3296   -1.6371 C   0  0  0  0  0  0  0  0  0  0  0  0
    8.1718    2.1183   -1.8968 C   0  0  0  0  0  0  0  0  0  0  0  0
    8.1705    3.2119   -2.6876 N   0  0  0  0  0  0  0  0  0  0  0  0
    7.0260    0.2280   -0.6032 C   0  0  1  0  0  0  0  0  0  0  0  0
    5.9996    0.1546   -0.2152 H   0  0  0  0  0  0  0  0  0  0  0  0
    7.4718   -1.1538   -1.1167 C   0  0  0  0  0  0  0  0  0  0  0  0
    8.5834   -1.5392   -0.1277 C   0  0  1  0  0  0  0  0  0  0  0  0
    9.2608   -2.3116   -0.4976 H   0  0  0  0  0  0  0  0  0  0  0  0
    9.2224   -0.2448    0.1466 N   0  0  0  0  0  0  0  0  0  0  0  0
    7.9968    0.4622    0.5758 C   0  0  2  0  0  0  0  0  0  0  0  0
    8.1308    1.5091    0.8629 H   0  0  0  0  0  0  0  0  0  0  0  0
    7.5892   -0.4299    1.7487 C   0  0  0  0  0  0  0  0  0  0  0  0
    8.0004   -1.8234    1.2579 C   0  0  0  0  0  0  0  0  0  0  0  0
    4.9626    3.0108   -3.7295 H   0  0  0  0  0  0  0  0  0  0  0  0
    4.9684    1.0700   -2.1784 H   0  0  0  0  0  0  0  0  0  0  0  0
    9.1391    1.9275   -1.4494 H   0  0  0  0  0  0  0  0  0  0  0  0
    7.8421   -1.1121   -2.1472 H   0  0  0  0  0  0  0  0  0  0  0  0
    6.6479   -1.8765   -1.0793 H   0  0  0  0  0  0  0  0  0  0  0  0
    9.6016    0.1301   -0.7195 H   0  0  0  0  0  0  0  0  0  0  0  0
    6.5181   -0.3738    1.9688 H   0  0  0  0  0  0  0  0  0  0  0  0
    8.1421   -0.1616    2.6560 H   0  0  0  0  0  0  0  0  0  0  0  0
    7.1491   -2.5084    1.2186 H   0  0  0  0  0  0  0  0  0  0  0  0
    8.7598   -2.2425    1.9279 H   0  0  0  0  0  0  0  0  0  0  0  0
  1  2  1  0  0  0  0
  2  3  2  0  0  0  0
  2  7  1  0  0  0  0
  3  4  1  0  0  0  0
  3 18  1  0  0  0  0
  4  5  2  0  0  0  0
  4 19  1  0  0  0  0
  5  6  1  0  0  0  0
  6  7  2  0  0  0  0
  6 20  1  0  0  0  0
  8 10  1  0  0  0  0
  8 14  1  0  0  0  0
  8  9  1  1  0  0  0
  8  5  1  0  0  0  0
 10 11  1  0  0  0  0
 10 21  1  0  0  0  0
 10 22  1  0  0  0  0
 11 13  1  0  0  0  0
 11 17  1  0  0  0  0
 11 12  1  6  0  0  0
 13 14  1  0  0  0  0
 13 23  1  0  0  0  0
 14 16  1  0  0  0  0
 14 15  1  1  0  0  0
 16 17  1  0  0  0  0
 16 24  1  0  0  0  0
 16 25  1  0  0  0  0
 17 26  1  0  0  0  0
 17 27  1  0  0  0  0
M  END
$$$$
