EPU
 OpenBabel04121316113D

 73 75  0  0  1  0  0  0  0  0999 V2000
    3.6632   -2.2123    0.5459 O   0  0  0  0  0  0  0  0  0  0  0  0
    4.3548   -3.1371    1.3589 C   0  0  0  0  0  0  0  0  0  0  0  0
    3.5622   -4.3706    1.8793 C   0  0  1  0  0  0  0  0  0  0  0  0
    2.7884   -4.0005    2.5639 H   0  0  0  0  0  0  0  0  0  0  0  0
    2.8928   -5.2322    0.9713 O   0  0  0  0  0  0  0  0  0  0  0  0
    3.6131   -5.6498   -0.2024 C   0  0  2  0  0  0  0  0  0  0  0  0
    4.1406   -4.8119   -0.6829 H   0  0  0  0  0  0  0  0  0  0  0  0
    2.6313   -6.2035   -1.1842 O   0  0  0  0  0  0  0  0  0  0  0  0
    1.7957   -4.9319   -1.8698 P   0  0  2  0  0  0  0  0  0  0  0  0
    1.6903   -4.2663   -0.4803 O   0  0  0  0  0  0  0  0  0  0  0  0
    0.0913   -5.2282   -1.8572 O   0  0  0  0  0  0  0  0  0  0  0  0
   -0.5881   -4.6240   -0.3854 P   0  0  1  0  0  0  0  0  0  0  0  0
   -0.1007   -3.1488   -0.5460 O   0  0  0  0  0  0  0  0  0  0  0  0
   -2.0007   -4.2790   -1.2687 O   0  0  0  0  0  0  0  0  0  0  0  0
   -1.7541   -4.0098   -2.6836 C   0  0  0  0  0  0  0  0  0  0  0  0
   -2.7155   -3.1150   -3.4247 C   0  0  1  0  0  0  0  0  0  0  0  0
   -2.5787   -3.3240   -4.4994 H   0  0  0  0  0  0  0  0  0  0  0  0
   -4.0650   -3.4168   -3.0819 O   0  0  0  0  0  0  0  0  0  0  0  0
   -4.8096   -2.2457   -3.4257 C   0  0  2  0  0  0  0  0  0  0  0  0
   -5.0743   -2.3269   -4.4887 H   0  0  0  0  0  0  0  0  0  0  0  0
   -3.8688   -1.0400   -3.1913 C   0  0  1  0  0  0  0  0  0  0  0  0
   -4.0678   -0.5913   -2.2125 H   0  0  0  0  0  0  0  0  0  0  0  0
   -2.4686   -1.6344   -3.1768 C   0  0  2  0  0  0  0  0  0  0  0  0
   -1.9974   -1.4606   -2.2054 H   0  0  0  0  0  0  0  0  0  0  0  0
   -1.5971   -1.0846   -4.1704 O   0  0  0  0  0  0  0  0  0  0  0  0
   -3.9956   -0.0123   -4.1770 O   0  0  0  0  0  0  0  0  0  0  0  0
   -6.0666   -2.1699   -2.6737 N   0  0  0  0  0  0  0  0  0  0  0  0
   -6.5176   -3.2252   -1.8990 C   0  0  0  0  0  0  0  0  0  0  0  0
   -7.7553   -3.2506   -1.3983 C   0  0  0  0  0  0  0  0  0  0  0  0
   -8.6267   -2.0805   -1.5927 C   0  0  0  0  0  0  0  0  0  0  0  0
   -9.7947   -2.0880   -1.2405 O   0  0  0  0  0  0  0  0  0  0  0  0
   -8.0331   -1.0045   -2.1853 N   0  0  0  0  0  0  0  0  0  0  0  0
   -8.6085   -0.1885   -2.3181 H   0  0  0  0  0  0  0  0  0  0  0  0
   -6.8617   -1.0505   -2.8857 C   0  0  0  0  0  0  0  0  0  0  0  0
   -6.5617   -0.1322   -3.6495 O   0  0  0  0  0  0  0  0  0  0  0  0
   -1.2676   -4.0199    1.0865 O   0  0  0  0  0  0  0  0  0  0  0  0
    1.9138   -5.6774   -3.4264 O   0  0  0  0  0  0  0  0  0  0  0  0
    4.6081   -6.6740    0.3449 C   0  0  1  0  0  0  0  0  0  0  0  0
    5.2590   -7.0198   -0.4641 H   0  0  0  0  0  0  0  0  0  0  0  0
    5.4483   -6.0209    1.5355 C   0  0  2  0  0  0  0  0  0  0  0  0
    6.0115   -6.8046    2.0396 H   0  0  0  0  0  0  0  0  0  0  0  0
    4.4748   -5.3551    2.5878 C   0  0  2  0  0  0  0  0  0  0  0  0
    4.9345   -4.8016    3.3982 H   0  0  0  0  0  0  0  0  0  0  0  0
    3.6921   -6.3636    3.2591 O   0  0  0  0  0  0  0  0  0  0  0  0
    6.4601   -5.1486    0.9722 O   0  0  0  0  0  0  0  0  0  0  0  0
    7.2208   -4.3171    1.7994 C   0  0  0  0  0  0  0  0  0  0  0  0
    7.2515   -4.4416    3.1355 C   0  0  0  0  0  0  0  0  0  0  0  0
    7.8965   -3.1596    1.0875 C   0  0  0  0  0  0  0  0  0  0  0  0
    7.8062   -2.9839   -0.1056 O   0  0  0  0  0  0  0  0  0  0  0  0
    8.5634   -2.2878    1.8812 O   0  0  0  0  0  0  0  0  0  0  0  0
    3.8250   -7.8257    0.8048 N   0  0  0  0  0  0  0  0  0  0  0  0
    4.4233   -8.8757    1.4277 C   0  0  0  0  0  0  0  0  0  0  0  0
    5.6406   -8.9816    1.5342 O   0  0  0  0  0  0  0  0  0  0  0  0
    3.4914   -9.8727    2.0319 C   0  0  0  0  0  0  0  0  0  0  0  0
    4.3526   -1.6471    0.1429 H   0  0  0  0  0  0  0  0  0  0  0  0
    4.7642   -2.5834    2.2150 H   0  0  0  0  0  0  0  0  0  0  0  0
    5.1769   -3.4348    0.7280 H   0  0  0  0  0  0  0  0  0  0  0  0
   -1.8150   -5.0037   -3.1278 H   0  0  0  0  0  0  0  0  0  0  0  0
   -0.7519   -3.5871   -2.8978 H   0  0  0  0  0  0  0  0  0  0  0  0
   -1.7282   -0.1159   -4.1254 H   0  0  0  0  0  0  0  0  0  0  0  0
   -4.9486    0.2354   -4.1842 H   0  0  0  0  0  0  0  0  0  0  0  0
   -5.8388   -4.0575   -1.7283 H   0  0  0  0  0  0  0  0  0  0  0  0
   -8.1615   -4.0864   -0.8451 H   0  0  0  0  0  0  0  0  0  0  0  0
   -0.6129   -4.1888    1.7866 H   0  0  0  0  0  0  0  0  0  0  0  0
    1.2976   -5.2392   -4.0423 H   0  0  0  0  0  0  0  0  0  0  0  0
    4.3053   -7.0561    3.5613 H   0  0  0  0  0  0  0  0  0  0  0  0
    6.7969   -5.2876    3.6371 H   0  0  0  0  0  0  0  0  0  0  0  0
    7.6602   -3.7221    3.8271 H   0  0  0  0  0  0  0  0  0  0  0  0
    8.6050   -2.4787    2.8287 H   0  0  0  0  0  0  0  0  0  0  0  0
    2.8313   -7.6447    0.9403 H   0  0  0  0  0  0  0  0  0  0  0  0
    2.4422   -9.5928    1.9085 H   0  0  0  0  0  0  0  0  0  0  0  0
    3.7131   -9.9428    3.1004 H   0  0  0  0  0  0  0  0  0  0  0  0
    3.6757  -10.8296    1.5422 H   0  0  0  0  0  0  0  0  0  0  0  0
  1  2  1  0  0  0  0
  1 55  1  0  0  0  0
  2  3  1  0  0  0  0
  2 56  1  0  0  0  0
  2 57  1  0  0  0  0
  3  4  1  1  0  0  0
  3  5  1  0  0  0  0
  3 42  1  0  0  0  0
  5  6  1  0  0  0  0
  6  7  1  6  0  0  0
  6  8  1  0  0  0  0
  6 38  1  0  0  0  0
  9 11  1  1  0  0  0
  9 37  1  0  0  0  0
  9 10  2  0  0  0  0
  9  8  1  0  0  0  0
 12 11  1  6  0  0  0
 12 13  2  0  0  0  0
 12 14  1  0  0  0  0
 12 36  1  0  0  0  0
 14 15  1  0  0  0  0
 15 16  1  0  0  0  0
 15 58  1  0  0  0  0
 15 59  1  0  0  0  0
 16 17  1  6  0  0  0
 16 18  1  0  0  0  0
 16 23  1  0  0  0  0
 18 19  1  0  0  0  0
 19 21  1  0  0  0  0
 19 27  1  0  0  0  0
 19 20  1  6  0  0  0
 21 22  1  1  0  0  0
 21 23  1  0  0  0  0
 21 26  1  0  0  0  0
 23 24  1  1  0  0  0
 23 25  1  0  0  0  0
 25 60  1  0  0  0  0
 26 61  1  0  0  0  0
 27 28  1  0  0  0  0
 27 34  1  0  0  0  0
 28 29  2  0  0  0  0
 28 62  1  0  0  0  0
 29 30  1  0  0  0  0
 29 63  1  0  0  0  0
 30 31  2  0  0  0  0
 30 32  1  0  0  0  0
 32 33  1  0  0  0  0
 32 34  1  0  0  0  0
 34 35  2  0  0  0  0
 36 64  1  0  0  0  0
 37 65  1  0  0  0  0
 38 39  1  6  0  0  0
 38 40  1  0  0  0  0
 38 51  1  0  0  0  0
 40 42  1  0  0  0  0
 40 45  1  0  0  0  0
 40 41  1  1  0  0  0
 42 43  1  1  0  0  0
 42 44  1  0  0  0  0
 44 66  1  0  0  0  0
 45 46  1  0  0  0  0
 46 47  2  0  0  0  0
 46 48  1  0  0  0  0
 47 67  1  0  0  0  0
 47 68  1  0  0  0  0
 48 49  2  0  0  0  0
 48 50  1  0  0  0  0
 50 69  1  0  0  0  0
 51 52  1  0  0  0  0
 51 70  1  0  0  0  0
 52 53  2  0  0  0  0
 52 54  1  0  0  0  0
 54 71  1  0  0  0  0
 54 72  1  0  0  0  0
 54 73  1  0  0  0  0
M  END
$$$$
