EQH
 OpenBabel04121316113D

 45 48  0  0  1  0  0  0  0  0999 V2000
    3.8972   -1.3414   -1.3143 O   0  0  0  0  0  0  0  0  0  0  0  0
    4.0977   -0.0172   -1.4735 C   0  0  0  0  0  0  0  0  0  0  0  0
    4.9271    0.4246   -2.2190 O   0  0  0  0  0  0  0  0  0  0  0  0
    3.0314    0.8018   -0.7208 C   0  0  2  0  0  0  0  0  0  0  0  0
    2.3044    0.0975   -0.3103 H   0  0  0  0  0  0  0  0  0  0  0  0
    2.3063    1.6031   -1.8557 C   0  0  0  0  0  0  0  0  0  0  0  0
    1.3940    2.6789   -1.3229 C   0  0  0  0  0  0  0  0  0  0  0  0
    2.0849    3.5424   -0.2689 C   0  0  1  0  0  0  0  0  0  0  0  0
    1.2953    4.2126    0.1079 H   0  0  0  0  0  0  0  0  0  0  0  0
    2.5617    2.7309    0.9283 C   0  0  0  0  0  0  0  0  0  0  0  0
    3.5368    1.6224    0.5350 C   0  0  0  0  0  0  0  0  0  0  0  0
    3.1543    4.4328   -0.8508 C   0  0  0  0  0  0  0  0  0  0  0  0
    2.7928    5.7523   -0.7916 N   0  0  0  0  0  0  0  0  0  0  0  0
    3.6862    6.5735   -1.3233 C   0  0  0  0  0  0  0  0  0  0  0  0
    4.7743    6.0529   -1.9384 C   0  0  0  0  0  0  0  0  0  0  0  0
    5.1763    4.8215   -2.0859 N   0  0  0  0  0  0  0  0  0  0  0  0
    4.3785    4.0068   -1.4655 C   0  0  0  0  0  0  0  0  0  0  0  0
    5.0478    2.8342   -1.4126 N   0  0  0  0  0  0  0  0  0  0  0  0
    3.5966    8.0141   -1.3458 C   0  0  0  0  0  0  0  0  0  0  0  0
    2.0461    8.7263   -1.2366 S   0  0  0  0  0  0  0  0  0  0  0  0
    2.7073   10.2896   -1.3150 C   0  0  0  0  0  0  0  0  0  0  0  0
    4.0813   10.2799   -1.4270 C   0  0  0  0  0  0  0  0  0  0  0  0
    4.6136    8.9592   -1.5345 C   0  0  0  0  0  0  0  0  0  0  0  0
    6.1815    8.7469   -1.6541 C   0  0  0  0  0  0  0  0  0  0  0  0
    7.0132    7.7681   -2.5155 C   0  0  0  0  0  0  0  0  0  0  0  0
    6.8969    9.1956   -2.8995 C   0  0  0  0  0  0  0  0  0  0  0  0
    4.5408   -1.6571   -0.6564 H   0  0  0  0  0  0  0  0  0  0  0  0
    1.7753    0.9148   -2.5214 H   0  0  0  0  0  0  0  0  0  0  0  0
    2.9774    2.0945   -2.5750 H   0  0  0  0  0  0  0  0  0  0  0  0
    0.5150    2.1957   -0.8858 H   0  0  0  0  0  0  0  0  0  0  0  0
    1.0401    3.3046   -2.1540 H   0  0  0  0  0  0  0  0  0  0  0  0
    1.6944    2.2693    1.4114 H   0  0  0  0  0  0  0  0  0  0  0  0
    3.0085    3.4103    1.6694 H   0  0  0  0  0  0  0  0  0  0  0  0
    3.7303    0.9621    1.3868 H   0  0  0  0  0  0  0  0  0  0  0  0
    4.5228    2.0899    0.4643 H   0  0  0  0  0  0  0  0  0  0  0  0
    5.4194    6.7256   -2.3528 H   0  0  0  0  0  0  0  0  0  0  0  0
    5.7661    2.7530   -2.1261 H   0  0  0  0  0  0  0  0  0  0  0  0
    4.4572    2.0691   -1.5882 H   0  0  0  0  0  0  0  0  0  0  0  0
    2.0382   11.1340   -1.2597 H   0  0  0  0  0  0  0  0  0  0  0  0
    4.6739   11.1831   -1.4607 H   0  0  0  0  0  0  0  0  0  0  0  0
    6.6603    9.0422   -0.7196 H   0  0  0  0  0  0  0  0  0  0  0  0
    6.7239    7.1467   -3.3730 H   0  0  0  0  0  0  0  0  0  0  0  0
    7.7799    7.2485   -1.9481 H   0  0  0  0  0  0  0  0  0  0  0  0
    6.2877    9.3622   -3.7851 H   0  0  0  0  0  0  0  0  0  0  0  0
    7.8457    9.7052   -2.8915 H   0  0  0  0  0  0  0  0  0  0  0  0
  1  2  1  0  0  0  0
  1 27  1  0  0  0  0
  2  3  2  0  0  0  0
  4  6  1  0  0  0  0
  4 11  1  0  0  0  0
  4  5  1  1  0  0  0
  4  2  1  0  0  0  0
  6  7  1  0  0  0  0
  6 28  1  0  0  0  0
  6 29  1  0  0  0  0
  7  8  1  0  0  0  0
  7 30  1  0  0  0  0
  7 31  1  0  0  0  0
  8  9  1  1  0  0  0
  8 10  1  0  0  0  0
  8 12  1  0  0  0  0
 10 11  1  0  0  0  0
 10 32  1  0  0  0  0
 10 33  1  0  0  0  0
 11 34  1  0  0  0  0
 11 35  1  0  0  0  0
 12 13  2  0  0  0  0
 12 17  1  0  0  0  0
 13 14  1  0  0  0  0
 14 15  2  0  0  0  0
 14 19  1  0  0  0  0
 15 16  1  0  0  0  0
 15 36  1  0  0  0  0
 16 17  2  0  0  0  0
 17 18  1  0  0  0  0
 18 37  1  0  0  0  0
 18 38  1  0  0  0  0
 19 20  1  0  0  0  0
 19 23  2  0  0  0  0
 20 21  1  0  0  0  0
 21 22  2  0  0  0  0
 21 39  1  0  0  0  0
 22 23  1  0  0  0  0
 22 40  1  0  0  0  0
 23 24  1  0  0  0  0
 24 25  1  0  0  0  0
 24 26  1  0  0  0  0
 24 41  1  0  0  0  0
 25 26  1  0  0  0  0
 25 42  1  0  0  0  0
 25 43  1  0  0  0  0
 26 44  1  0  0  0  0
 26 45  1  0  0  0  0
M  END
$$$$
