ERD
 OpenBabel04121316113D

 33 35  0  0  1  0  0  0  0  0999 V2000
    0.9366   -0.0201    0.0490 O   0  0  0  0  0  0  0  0  0  0  0  0
    2.3008   -0.0671    0.0347 C   0  0  0  0  0  0  0  0  0  0  0  0
    3.0036   -1.2770    0.0783 C   0  0  0  0  0  0  0  0  0  0  0  0
    4.4026   -1.2596    0.0470 C   0  0  0  0  0  0  0  0  0  0  0  0
    5.0617   -2.4688    0.1136 O   0  0  0  0  0  0  0  0  0  0  0  0
    6.4679   -2.4180   -0.2481 C   0  0  1  0  0  0  0  0  0  0  0  0
    6.5156   -2.2503   -1.3354 H   0  0  0  0  0  0  0  0  0  0  0  0
    7.1488   -1.2858    0.5079 C   0  0  0  0  0  0  0  0  0  0  0  0
    6.5248   -0.0201    0.0371 C   0  0  0  0  0  0  0  0  0  0  0  0
    7.1614    0.9868   -0.2379 O   0  0  0  0  0  0  0  0  0  0  0  0
    5.0620   -0.0277   -0.0092 C   0  0  0  0  0  0  0  0  0  0  0  0
    4.3527    1.1741   -0.0440 C   0  0  0  0  0  0  0  0  0  0  0  0
    2.9666    1.1548   -0.0241 C   0  0  0  0  0  0  0  0  0  0  0  0
    4.9645    2.3975   -0.0698 O   0  0  0  0  0  0  0  0  0  0  0  0
    7.1651   -3.7558    0.0098 C   0  0  0  0  0  0  0  0  0  0  0  0
    8.5658   -3.8340    0.1928 C   0  0  0  0  0  0  0  0  0  0  0  0
    9.2224   -5.0559    0.3589 C   0  0  0  0  0  0  0  0  0  0  0  0
    8.5022   -6.2262    0.1994 C   0  0  0  0  0  0  0  0  0  0  0  0
    7.1255   -6.1738    0.0012 C   0  0  0  0  0  0  0  0  0  0  0  0
    6.4476   -4.9591   -0.0345 C   0  0  0  0  0  0  0  0  0  0  0  0
    6.4185   -7.3253   -0.1989 O   0  0  0  0  0  0  0  0  0  0  0  0
    9.1117   -7.4489    0.2056 O   0  0  0  0  0  0  0  0  0  0  0  0
    0.5757   -0.9208    0.0750 H   0  0  0  0  0  0  0  0  0  0  0  0
    2.4761   -2.2245    0.1349 H   0  0  0  0  0  0  0  0  0  0  0  0
    8.2167   -1.2006    0.2990 H   0  0  0  0  0  0  0  0  0  0  0  0
    7.0019   -1.3743    1.5902 H   0  0  0  0  0  0  0  0  0  0  0  0
    2.4097    2.0868   -0.0472 H   0  0  0  0  0  0  0  0  0  0  0  0
    5.9367    2.2566   -0.1313 H   0  0  0  0  0  0  0  0  0  0  0  0
    9.1923   -2.9459    0.1982 H   0  0  0  0  0  0  0  0  0  0  0  0
   10.2845   -5.0597    0.5827 H   0  0  0  0  0  0  0  0  0  0  0  0
    5.3653   -4.9648   -0.1269 H   0  0  0  0  0  0  0  0  0  0  0  0
    7.0955   -8.0295   -0.2330 H   0  0  0  0  0  0  0  0  0  0  0  0
   10.0709   -7.3080    0.2928 H   0  0  0  0  0  0  0  0  0  0  0  0
  1  2  1  0  0  0  0
  1 23  1  0  0  0  0
  2  3  2  0  0  0  0
  2 13  1  0  0  0  0
  3  4  1  0  0  0  0
  3 24  1  0  0  0  0
  4  5  1  0  0  0  0
  4 11  2  0  0  0  0
  5  6  1  0  0  0  0
  6  7  1  6  0  0  0
  6  8  1  0  0  0  0
  6 15  1  0  0  0  0
  8  9  1  0  0  0  0
  8 25  1  0  0  0  0
  8 26  1  0  0  0  0
  9 10  2  0  0  0  0
  9 11  1  0  0  0  0
 11 12  1  0  0  0  0
 12 13  2  0  0  0  0
 12 14  1  0  0  0  0
 13 27  1  0  0  0  0
 14 28  1  0  0  0  0
 15 16  2  0  0  0  0
 15 20  1  0  0  0  0
 16 17  1  0  0  0  0
 16 29  1  0  0  0  0
 17 18  2  0  0  0  0
 17 30  1  0  0  0  0
 18 19  1  0  0  0  0
 18 22  1  0  0  0  0
 19 20  2  0  0  0  0
 19 21  1  0  0  0  0
 20 31  1  0  0  0  0
 21 32  1  0  0  0  0
 22 33  1  0  0  0  0
M  END
$$$$
