ES3
 OpenBabel04121316113D

  9  9  0  0  0  0  0  0  0  0999 V2000
    1.1114    0.0235   -0.0351 Br  0  0  0  0  0  0  0  0  0  0  0  0
    2.9914    0.0355   -0.0303 C   0  0  0  0  0  0  0  0  0  0  0  0
    3.7824    1.1588   -0.0298 C   0  0  0  0  0  0  0  0  0  0  0  0
    5.0648    0.6833   -0.0209 N   0  0  0  0  0  0  0  0  0  0  0  0
    5.9127    1.2341   -0.0155 H   0  0  0  0  0  0  0  0  0  0  0  0
    4.9968   -0.6818   -0.0194 C   0  0  0  0  0  0  0  0  0  0  0  0
    3.7525   -1.1024   -0.0251 N   0  0  0  0  0  0  0  0  0  0  0  0
    3.5538    2.2144   -0.0332 H   0  0  0  0  0  0  0  0  0  0  0  0
    5.8786   -1.3089   -0.0134 H   0  0  0  0  0  0  0  0  0  0  0  0
  1  2  1  0  0  0  0
  2  3  2  0  0  0  0
  2  7  1  0  0  0  0
  3  4  1  0  0  0  0
  3  8  1  0  0  0  0
  4  5  1  0  0  0  0
  4  6  1  0  0  0  0
  6  7  2  0  0  0  0
  6  9  1  0  0  0  0
M  END
$$$$
