ES4
 OpenBabel04121316113D

 13 14  0  0  0  0  0  0  0  0999 V2000
    1.0434    0.0263   -0.0802 Cl  0  0  0  0  0  0  0  0  0  0  0  0
    2.7375    0.0666   -0.0786 C   0  0  0  0  0  0  0  0  0  0  0  0
    3.4157   -1.0972   -0.0760 N   0  0  0  0  0  0  0  0  0  0  0  0
    4.7597   -1.0088   -0.0734 C   0  0  0  0  0  0  0  0  0  0  0  0
    5.5238    0.1053   -0.0737 N   0  0  0  0  0  0  0  0  0  0  0  0
    4.7670    1.2138   -0.0759 C   0  0  0  0  0  0  0  0  0  0  0  0
    3.3833    1.2939   -0.0781 C   0  0  0  0  0  0  0  0  0  0  0  0
    2.9797    2.6140   -0.0787 N   0  0  0  0  0  0  0  0  0  0  0  0
    4.0951    3.3131   -0.0767 C   0  0  0  0  0  0  0  0  0  0  0  0
    5.2015    2.5079   -0.0757 N   0  0  0  0  0  0  0  0  0  0  0  0
    6.1668    2.8028   -0.0742 H   0  0  0  0  0  0  0  0  0  0  0  0
    5.2963   -1.9542   -0.0701 H   0  0  0  0  0  0  0  0  0  0  0  0
    4.1632    4.3935   -0.0757 H   0  0  0  0  0  0  0  0  0  0  0  0
  1  2  1  0  0  0  0
  2  3  2  0  0  0  0
  2  7  1  0  0  0  0
  3  4  1  0  0  0  0
  4  5  2  0  0  0  0
  4 12  1  0  0  0  0
  5  6  1  0  0  0  0
  6  7  2  0  0  0  0
  6 10  1  0  0  0  0
  7  8  1  0  0  0  0
  8  9  2  0  0  0  0
  9 10  1  0  0  0  0
  9 13  1  0  0  0  0
 10 11  1  0  0  0  0
M  END
$$$$
