ES9
 OpenBabel04121316113D

 15 16  0  0  0  0  0  0  0  0999 V2000
    1.1181   -0.0109   -0.0512 Cl  0  0  0  0  0  0  0  0  0  0  0  0
    2.8419   -0.0176   -0.0562 C   0  0  0  0  0  0  0  0  0  0  0  0
    3.5185   -1.2406   -0.0582 C   0  0  0  0  0  0  0  0  0  0  0  0
    4.9172   -1.2927   -0.0661 C   0  0  0  0  0  0  0  0  0  0  0  0
    5.5852   -0.0671   -0.0695 C   0  0  0  0  0  0  0  0  0  0  0  0
    4.9323    1.1621   -0.0658 C   0  0  0  0  0  0  0  0  0  0  0  0
    3.5312    1.1988   -0.0594 C   0  0  0  0  0  0  0  0  0  0  0  0
    5.8388    2.1950   -0.0696 N   0  0  0  0  0  0  0  0  0  0  0  0
    7.0196    1.6205   -0.0757 C   0  0  0  0  0  0  0  0  0  0  0  0
    6.9182    0.2580   -0.0764 N   0  0  0  0  0  0  0  0  0  0  0  0
    7.6890   -0.3937   -0.0805 H   0  0  0  0  0  0  0  0  0  0  0  0
    2.9547   -2.1712   -0.0538 H   0  0  0  0  0  0  0  0  0  0  0  0
    5.4462   -2.2392   -0.0695 H   0  0  0  0  0  0  0  0  0  0  0  0
    3.0112    2.1494   -0.0572 H   0  0  0  0  0  0  0  0  0  0  0  0
    7.9738    2.1310   -0.0798 H   0  0  0  0  0  0  0  0  0  0  0  0
  1  2  1  0  0  0  0
  2  3  2  0  0  0  0
  2  7  1  0  0  0  0
  3  4  1  0  0  0  0
  3 12  1  0  0  0  0
  4  5  2  0  0  0  0
  4 13  1  0  0  0  0
  5  6  1  0  0  0  0
  5 10  1  0  0  0  0
  6  7  2  0  0  0  0
  6  8  1  0  0  0  0
  7 14  1  0  0  0  0
  8  9  2  0  0  0  0
  9 10  1  0  0  0  0
  9 15  1  0  0  0  0
 10 11  1  0  0  0  0
M  END
$$$$
