ESH
 OpenBabel04121316113D

 63 67  0  0  1  0  0  0  0  0999 V2000
    1.3102    2.9406   -1.5866 C   0  0  0  0  0  0  0  0  0  0  0  0
    1.6303    1.4007   -1.8409 C   0  0  0  0  0  0  0  0  0  0  0  0
    3.0656    0.8441   -1.3845 C   0  0  1  0  0  0  0  0  0  0  0  0
    2.6300    0.3936   -0.5544 H   0  0  0  0  0  0  0  0  0  0  0  0
    3.8934   -0.3199   -1.6629 N   0  0  0  0  0  0  0  0  0  0  0  0
    4.2014   -1.3579   -0.5789 C   0  0  0  0  0  0  0  0  0  0  0  0
    3.5448   -1.2394    0.8361 C   0  0  0  0  0  0  0  0  0  0  0  0
    3.0968   -0.0229    1.3945 C   0  0  0  0  0  0  0  0  0  0  0  0
    2.4372    0.1368    2.5974 C   0  0  0  0  0  0  0  0  0  0  0  0
    2.3199   -0.9522    3.4106 C   0  0  0  0  0  0  0  0  0  0  0  0
    2.7730   -2.1944    2.9585 C   0  0  0  0  0  0  0  0  0  0  0  0
    3.4036   -2.3392    1.6929 C   0  0  0  0  0  0  0  0  0  0  0  0
    1.7112   -0.7003    4.9927 Cl  0  0  0  0  0  0  0  0  0  0  0  0
    4.9263    0.0482   -2.5608 C   0  0  0  0  0  0  0  0  0  0  0  0
    5.6757   -0.7641   -3.1706 O   0  0  0  0  0  0  0  0  0  0  0  0
    4.8032    1.5140   -2.8352 C   0  0  1  0  0  0  0  0  0  0  0  0
    4.1689    1.5558   -3.7411 H   0  0  0  0  0  0  0  0  0  0  0  0
    4.0361    1.9249   -1.5926 C   0  0  2  0  0  0  0  0  0  0  0  0
    3.4855    2.7209   -2.0772 H   0  0  0  0  0  0  0  0  0  0  0  0
    5.0957    2.5299   -0.4830 C   0  0  2  0  0  0  0  0  0  0  0  0
    5.6345    1.7128   -0.0039 H   0  0  0  0  0  0  0  0  0  0  0  0
    4.6789    3.6698    0.6767 C   0  0  0  0  0  0  0  0  0  0  0  0
    3.4389    3.8690   -0.0140 C   0  0  0  0  0  0  0  0  0  0  0  0
    4.5212    4.4433   -1.3146 C   0  0  0  0  0  0  0  0  0  0  0  0
    5.6654    3.4203   -1.4670 N   0  0  3  0  0  0  0  0  0  0  0  0
    5.7151    2.7304   -2.8311 C   0  0  1  0  0  0  0  0  0  0  0  0
    5.1750    3.4069   -3.5135 H   0  0  0  0  0  0  0  0  0  0  0  0
    7.0487    2.8057   -3.5121 C   0  0  0  0  0  0  0  0  0  0  0  0
    7.5334    1.8360   -4.3866 C   0  0  0  0  0  0  0  0  0  0  0  0
    8.7815    2.0066   -4.9900 C   0  0  0  0  0  0  0  0  0  0  0  0
    9.4894    3.2068   -4.8413 C   0  0  0  0  0  0  0  0  0  0  0  0
    8.8982    4.2583   -4.1413 C   0  0  0  0  0  0  0  0  0  0  0  0
    7.7289    4.0336   -3.4335 C   0  0  0  0  0  0  0  0  0  0  0  0
   10.8715    3.3713   -5.3803 C   0  0  0  0  0  0  0  0  0  0  0  0
   11.5303    2.4196   -5.9646 N   0  0  0  0  0  0  0  0  0  0  0  0
   11.5321    4.5509   -5.2552 N   0  0  0  0  0  0  0  0  0  0  0  0
    0.5517    0.7640   -0.9309 C   0  0  0  0  0  0  0  0  0  0  0  0
    0.3486    3.2362   -2.0032 H   0  0  0  0  0  0  0  0  0  0  0  0
    1.9960    3.6817   -2.0092 H   0  0  0  0  0  0  0  0  0  0  0  0
    1.2110    3.1452   -0.5101 H   0  0  0  0  0  0  0  0  0  0  0  0
    1.4838    1.1849   -2.8963 H   0  0  0  0  0  0  0  0  0  0  0  0
    3.8839   -2.2977   -1.0450 H   0  0  0  0  0  0  0  0  0  0  0  0
    5.2909   -1.4419   -0.4223 H   0  0  0  0  0  0  0  0  0  0  0  0
    3.1780    0.9288    0.9071 H   0  0  0  0  0  0  0  0  0  0  0  0
    2.0707    1.1271    2.8542 H   0  0  0  0  0  0  0  0  0  0  0  0
    2.6366   -3.0596    3.6000 H   0  0  0  0  0  0  0  0  0  0  0  0
    3.7975   -3.3177    1.4201 H   0  0  0  0  0  0  0  0  0  0  0  0
    4.7552    4.7933    0.7087 H   0  0  0  0  0  0  0  0  0  0  0  0
    4.9778    3.5554    1.7108 H   0  0  0  0  0  0  0  0  0  0  0  0
    2.7151    4.5019    0.5036 H   0  0  0  0  0  0  0  0  0  0  0  0
    3.0595    2.8367    0.1678 H   0  0  0  0  0  0  0  0  0  0  0  0
    5.1430    5.2798   -0.9557 H   0  0  0  0  0  0  0  0  0  0  0  0
    4.0766    4.8011   -2.2390 H   0  0  0  0  0  0  0  0  0  0  0  0
    6.9563    0.9473   -4.6300 H   0  0  0  0  0  0  0  0  0  0  0  0
    9.1653    1.1824   -5.5798 H   0  0  0  0  0  0  0  0  0  0  0  0
    9.3162    5.2570   -4.1104 H   0  0  0  0  0  0  0  0  0  0  0  0
    7.3163    4.8447   -2.8348 H   0  0  0  0  0  0  0  0  0  0  0  0
   10.9949    1.5538   -6.0193 H   0  0  0  0  0  0  0  0  0  0  0  0
   11.2046    5.3217   -4.6965 H   0  0  0  0  0  0  0  0  0  0  0  0
   12.5064    4.5482   -5.5247 H   0  0  0  0  0  0  0  0  0  0  0  0
    0.7402    1.0169    0.1288 H   0  0  0  0  0  0  0  0  0  0  0  0
    0.5505   -0.3206   -1.0161 H   0  0  0  0  0  0  0  0  0  0  0  0
   -0.4358    1.1692   -1.1566 H   0  0  0  0  0  0  0  0  0  0  0  0
  1  2  1  0  0  0  0
  1 38  1  0  0  0  0
  1 39  1  0  0  0  0
  1 40  1  0  0  0  0
  2 37  1  0  0  0  0
  2 41  1  0  0  0  0
  3  5  1  0  0  0  0
  3 18  1  0  0  0  0
  3  4  1  1  0  0  0
  3  2  1  0  0  0  0
  5 14  1  0  0  0  0
  5  6  1  0  0  0  0
  6  7  1  0  0  0  0
  6 42  1  0  0  0  0
  6 43  1  0  0  0  0
  7  8  2  0  0  0  0
  7 12  1  0  0  0  0
  8  9  1  0  0  0  0
  8 44  1  0  0  0  0
  9 10  2  0  0  0  0
  9 45  1  0  0  0  0
 10 11  1  0  0  0  0
 10 13  1  0  0  0  0
 11 12  2  0  0  0  0
 11 46  1  0  0  0  0
 12 47  1  0  0  0  0
 14 16  1  0  0  0  0
 14 15  2  0  0  0  0
 16 18  1  0  0  0  0
 16 26  1  0  0  0  0
 16 17  1  6  0  0  0
 18 20  1  0  0  0  0
 18 19  1  6  0  0  0
 20 22  1  0  0  0  0
 20 25  1  0  0  0  0
 20 21  1  1  0  0  0
 22 23  1  0  0  0  0
 22 48  1  0  0  0  0
 22 49  1  0  0  0  0
 23 24  1  0  0  0  0
 23 50  1  0  0  0  0
 23 51  1  0  0  0  0
 24 25  1  0  0  0  0
 24 52  1  0  0  0  0
 24 53  1  0  0  0  0
 25 26  1  0  0  0  0
 26 28  1  0  0  0  0
 26 27  1  6  0  0  0
 28 29  2  0  0  0  0
 28 33  1  0  0  0  0
 29 30  1  0  0  0  0
 29 54  1  0  0  0  0
 30 31  2  0  0  0  0
 30 55  1  0  0  0  0
 31 32  1  0  0  0  0
 31 34  1  0  0  0  0
 32 33  2  0  0  0  0
 32 56  1  0  0  0  0
 33 57  1  0  0  0  0
 34 35  2  0  0  0  0
 34 36  1  0  0  0  0
 35 58  1  0  0  0  0
 36 59  1  0  0  0  0
 36 60  1  0  0  0  0
 37 61  1  0  0  0  0
 37 62  1  0  0  0  0
 37 63  1  0  0  0  0
M  END
$$$$
