ESI
 OpenBabel04121316113D

 21 22  0  0  0  0  0  0  0  0999 V2000
    0.9281    0.0389    0.0266 I   0  0  0  0  0  0  0  0  0  0  0  0
    3.0218    0.0332    0.0233 C   0  0  0  0  0  0  0  0  0  0  0  0
    3.6810    1.2707    0.0222 C   0  0  0  0  0  0  0  0  0  0  0  0
    5.0684    1.3303    0.0152 C   0  0  0  0  0  0  0  0  0  0  0  0
    5.8239    0.1648    0.0116 C   0  0  0  0  0  0  0  0  0  0  0  0
    5.1590   -1.0692    0.0151 C   0  0  0  0  0  0  0  0  0  0  0  0
    3.7661   -1.1770    0.0206 C   0  0  0  0  0  0  0  0  0  0  0  0
    3.3733   -2.5699    0.0224 C   0  0  0  0  0  0  0  0  0  0  0  0
    4.4514   -3.4319    0.0189 C   0  0  0  0  0  0  0  0  0  0  0  0
    5.9313   -2.5909    0.0128 S   0  0  0  0  0  0  0  0  0  0  0  0
    4.4196   -4.8812    0.0200 C   0  0  0  0  0  0  0  0  0  0  0  0
    3.2764   -5.5188    0.0250 N   0  3  0  0  0  0  0  0  0  0  0  0
    3.2286   -6.5280    0.0259 H   0  0  0  0  0  0  0  0  0  0  0  0
    2.3976   -5.0148    0.0281 H   0  0  0  0  0  0  0  0  0  0  0  0
    5.5736   -5.5172    0.0160 N   0  0  0  0  0  0  0  0  0  0  0  0
    3.1199    2.2028    0.0265 H   0  0  0  0  0  0  0  0  0  0  0  0
    5.5780    2.2907    0.0121 H   0  0  0  0  0  0  0  0  0  0  0  0
    6.9100    0.2051    0.0066 H   0  0  0  0  0  0  0  0  0  0  0  0
    2.3338   -2.8754    0.0266 H   0  0  0  0  0  0  0  0  0  0  0  0
    6.4332   -4.9731    0.0123 H   0  0  0  0  0  0  0  0  0  0  0  0
    5.6568   -6.5220    0.0164 H   0  0  0  0  0  0  0  0  0  0  0  0
  1  2  1  0  0  0  0
  2  3  2  0  0  0  0
  2  7  1  0  0  0  0
  3  4  1  0  0  0  0
  3 16  1  0  0  0  0
  4  5  2  0  0  0  0
  4 17  1  0  0  0  0
  5  6  1  0  0  0  0
  5 18  1  0  0  0  0
  6  7  2  0  0  0  0
  6 10  1  0  0  0  0
  7  8  1  0  0  0  0
  8  9  2  0  0  0  0
  8 19  1  0  0  0  0
  9 10  1  0  0  0  0
  9 11  1  0  0  0  0
 11 12  2  0  0  0  0
 11 15  1  0  0  0  0
 12 13  1  0  0  0  0
 12 14  1  0  0  0  0
 15 20  1  0  0  0  0
 15 21  1  0  0  0  0
M  CHG  1  12   1
M  END
$$$$
