ESX
 OpenBabel04121316113D

 21 22  0  0  0  0  0  0  0  0999 V2000
    0.9370   -0.0711   -0.1354 N   0  0  0  0  0  0  0  0  0  0  0  0
    2.2476   -0.0886   -0.1529 C   0  0  0  0  0  0  0  0  0  0  0  0
    2.9551   -1.0000   -0.7807 N   0  3  0  0  0  0  0  0  0  0  0  0
    3.9695   -0.9620   -0.7270 H   0  0  0  0  0  0  0  0  0  0  0  0
    2.5369   -1.7557   -1.3022 H   0  0  0  0  0  0  0  0  0  0  0  0
    2.9557    0.9154    0.5969 C   0  0  0  0  0  0  0  0  0  0  0  0
    2.7277    2.2716    0.5336 C   0  0  0  0  0  0  0  0  0  0  0  0
    3.5443    3.0001    1.4675 C   0  0  0  0  0  0  0  0  0  0  0  0
    4.3788    2.1379    2.1846 C   0  0  0  0  0  0  0  0  0  0  0  0
    4.1786    0.5063    1.6996 S   0  0  0  0  0  0  0  0  0  0  0  0
    5.2598    2.6016    3.1733 C   0  0  0  0  0  0  0  0  0  0  0  0
    5.3017    3.9671    3.4421 C   0  0  0  0  0  0  0  0  0  0  0  0
    4.4899    4.8502    2.7423 C   0  0  0  0  0  0  0  0  0  0  0  0
    3.6135    4.3838    1.7557 C   0  0  0  0  0  0  0  0  0  0  0  0
    0.3817   -0.7787   -0.5949 H   0  0  0  0  0  0  0  0  0  0  0  0
    0.4496    0.6275    0.4182 H   0  0  0  0  0  0  0  0  0  0  0  0
    2.0133    2.7478   -0.1300 H   0  0  0  0  0  0  0  0  0  0  0  0
    5.8932    1.9090    3.7207 H   0  0  0  0  0  0  0  0  0  0  0  0
    5.9798    4.3375    4.2076 H   0  0  0  0  0  0  0  0  0  0  0  0
    4.5361    5.9139    2.9665 H   0  0  0  0  0  0  0  0  0  0  0  0
    2.9861    5.0957    1.2227 H   0  0  0  0  0  0  0  0  0  0  0  0
  1  2  1  0  0  0  0
  1 15  1  0  0  0  0
  1 16  1  0  0  0  0
  2  3  2  0  0  0  0
  2  6  1  0  0  0  0
  3  4  1  0  0  0  0
  3  5  1  0  0  0  0
  6  7  2  0  0  0  0
  6 10  1  0  0  0  0
  7  8  1  0  0  0  0
  7 17  1  0  0  0  0
  8  9  2  0  0  0  0
  8 14  1  0  0  0  0
  9 10  1  0  0  0  0
  9 11  1  0  0  0  0
 11 12  2  0  0  0  0
 11 18  1  0  0  0  0
 12 13  1  0  0  0  0
 12 19  1  0  0  0  0
 13 14  2  0  0  0  0
 13 20  1  0  0  0  0
 14 21  1  0  0  0  0
M  CHG  1   3   1
M  END
$$$$
