ET
 OpenBabel04121316113D

 44 47  0  0  0  0  0  0  0  0999 V2000
    1.0252   -0.2099    0.0905 C   0  0  0  0  0  0  0  0  0  0  0  0
    2.5422   -0.0125    0.2659 C   0  0  0  0  0  0  0  0  0  0  0  0
    3.0087    0.9496   -0.7789 N   0  3  0  0  0  0  0  0  0  0  0  0
    3.6147    0.5586   -1.9677 C   0  0  0  0  0  0  0  0  0  0  0  0
    3.9815   -0.9098   -2.2091 C   0  0  0  0  0  0  0  0  0  0  0  0
    4.9957   -1.2938   -3.1121 C   0  0  0  0  0  0  0  0  0  0  0  0
    5.0922   -2.5950   -3.6216 C   0  0  0  0  0  0  0  0  0  0  0  0
    4.5001   -3.6349   -2.9367 C   0  0  0  0  0  0  0  0  0  0  0  0
    3.7376   -3.3407   -1.8337 C   0  0  0  0  0  0  0  0  0  0  0  0
    3.3369   -2.0204   -1.6384 C   0  0  0  0  0  0  0  0  0  0  0  0
    3.8900    1.6050   -2.9540 C   0  0  0  0  0  0  0  0  0  0  0  0
    4.4256    1.3595   -4.2573 C   0  0  0  0  0  0  0  0  0  0  0  0
    4.8690    2.3306   -5.1536 C   0  0  0  0  0  0  0  0  0  0  0  0
    5.3542    1.9367   -6.3975 N   0  0  0  0  0  0  0  0  0  0  0  0
    4.5567    3.6317   -4.8605 C   0  0  0  0  0  0  0  0  0  0  0  0
    3.9141    3.9391   -3.6554 C   0  0  0  0  0  0  0  0  0  0  0  0
    3.5929    2.9500   -2.6749 C   0  0  0  0  0  0  0  0  0  0  0  0
    2.9574    3.2865   -1.4477 C   0  0  0  0  0  0  0  0  0  0  0  0
    2.7026    2.2631   -0.5145 C   0  0  0  0  0  0  0  0  0  0  0  0
    2.0724    2.6302    0.7100 C   0  0  0  0  0  0  0  0  0  0  0  0
    1.6440    3.8970    1.0358 C   0  0  0  0  0  0  0  0  0  0  0  0
    0.9116    4.0864    2.1867 N   0  0  0  0  0  0  0  0  0  0  0  0
    1.8707    4.8892    0.1110 C   0  0  0  0  0  0  0  0  0  0  0  0
    2.5295    4.5921   -1.0926 C   0  0  0  0  0  0  0  0  0  0  0  0
    0.6504   -0.9942    0.7503 H   0  0  0  0  0  0  0  0  0  0  0  0
    0.7544   -0.4470   -0.9449 H   0  0  0  0  0  0  0  0  0  0  0  0
    0.4513    0.6939    0.3285 H   0  0  0  0  0  0  0  0  0  0  0  0
    3.1478   -0.9065    0.3006 H   0  0  0  0  0  0  0  0  0  0  0  0
    2.8098    0.3681    1.2535 H   0  0  0  0  0  0  0  0  0  0  0  0
    5.7144   -0.5891   -3.5242 H   0  0  0  0  0  0  0  0  0  0  0  0
    5.6541   -2.7918   -4.5318 H   0  0  0  0  0  0  0  0  0  0  0  0
    4.6232   -4.6636   -3.2556 H   0  0  0  0  0  0  0  0  0  0  0  0
    3.3578   -4.1257   -1.1859 H   0  0  0  0  0  0  0  0  0  0  0  0
    2.4544   -1.9670   -1.0229 H   0  0  0  0  0  0  0  0  0  0  0  0
    4.4829    0.3578   -4.6588 H   0  0  0  0  0  0  0  0  0  0  0  0
    5.8212    1.0342   -6.4331 H   0  0  0  0  0  0  0  0  0  0  0  0
    5.8424    2.6425   -6.9406 H   0  0  0  0  0  0  0  0  0  0  0  0
    4.7756    4.4266   -5.5701 H   0  0  0  0  0  0  0  0  0  0  0  0
    3.6661    4.9854   -3.5109 H   0  0  0  0  0  0  0  0  0  0  0  0
    1.8414    1.9112    1.4886 H   0  0  0  0  0  0  0  0  0  0  0  0
    0.8006    3.3482    2.8743 H   0  0  0  0  0  0  0  0  0  0  0  0
    0.6760    5.0194    2.4992 H   0  0  0  0  0  0  0  0  0  0  0  0
    1.5415    5.9033    0.3115 H   0  0  0  0  0  0  0  0  0  0  0  0
    2.6754    5.4368   -1.7660 H   0  0  0  0  0  0  0  0  0  0  0  0
  1  2  1  0  0  0  0
  1 25  1  0  0  0  0
  1 26  1  0  0  0  0
  1 27  1  0  0  0  0
  2  3  1  0  0  0  0
  2 28  1  0  0  0  0
  2 29  1  0  0  0  0
  3  4  2  0  0  0  0
  3 19  1  0  0  0  0
  4  5  1  0  0  0  0
  4 11  1  0  0  0  0
  5  6  2  0  0  0  0
  5 10  1  0  0  0  0
  6  7  1  0  0  0  0
  6 30  1  0  0  0  0
  7  8  2  0  0  0  0
  7 31  1  0  0  0  0
  8  9  1  0  0  0  0
  8 32  1  0  0  0  0
  9 10  2  0  0  0  0
  9 33  1  0  0  0  0
 10 34  1  0  0  0  0
 11 12  2  0  0  0  0
 11 17  1  0  0  0  0
 12 13  1  0  0  0  0
 12 35  1  0  0  0  0
 13 14  1  0  0  0  0
 13 15  2  0  0  0  0
 14 36  1  0  0  0  0
 14 37  1  0  0  0  0
 15 16  1  0  0  0  0
 15 38  1  0  0  0  0
 16 17  2  0  0  0  0
 16 39  1  0  0  0  0
 17 18  1  0  0  0  0
 18 19  2  0  0  0  0
 18 24  1  0  0  0  0
 19 20  1  0  0  0  0
 20 21  2  0  0  0  0
 20 40  1  0  0  0  0
 21 22  1  0  0  0  0
 21 23  1  0  0  0  0
 22 41  1  0  0  0  0
 22 42  1  0  0  0  0
 23 24  2  0  0  0  0
 23 43  1  0  0  0  0
 24 44  1  0  0  0  0
M  CHG  1   3   1
M  END
$$$$
