ETB
 OpenBabel04121316113D

 80 82  0  0  1  0  0  0  0  0999 V2000
   11.5645    1.9728    7.7371 C   0  0  0  0  0  0  0  0  0  0  0  0
   11.6790    0.5420    7.6943 N   0  0  0  0  0  0  0  0  0  0  0  0
   11.2712   -0.0875    6.5536 C   0  0  0  0  0  0  0  0  0  0  0  0
   10.8188    0.5330    5.5956 O   0  0  0  0  0  0  0  0  0  0  0  0
   11.4471   -1.5743    6.5388 C   0  0  0  0  0  0  0  0  0  0  0  0
   11.0692   -1.9519    5.1210 C   0  0  0  0  0  0  0  0  0  0  0  0
   11.5743   -3.2324    4.7336 N   0  0  0  0  0  0  0  0  0  0  0  0
   11.2384   -3.7547    3.3514 C   0  0  0  0  0  0  0  0  0  0  0  0
   10.9959   -2.9732    2.4316 O   0  0  0  0  0  0  0  0  0  0  0  0
   10.5006   -5.5790    3.2783 C   0  0  1  0  0  0  0  0  0  0  0  0
   11.3943   -6.4083    2.8948 H   0  0  0  0  0  0  0  0  0  0  0  0
    9.6799   -6.2933    5.2222 C   0  0  0  0  0  0  0  0  0  0  0  0
    8.0288   -6.0687    5.7598 C   0  0  0  0  0  0  0  0  0  0  0  0
    7.6790   -4.5694    5.6853 O   0  0  0  0  0  0  0  0  0  0  0  0
    6.2932   -3.6661    5.1537 P   0  0  2  0  0  0  0  0  0  0  0  0
    5.7064   -3.6203    3.7861 O   0  0  0  0  0  0  0  0  0  0  0  0
    6.4968   -2.0423    5.2533 O   0  0  0  0  0  0  0  0  0  0  0  0
    7.2922   -1.0636    4.1418 P   0  0  1  0  0  0  0  0  0  0  0  0
    7.8201    0.0662    4.9618 O   0  0  0  0  0  0  0  0  0  0  0  0
    8.4118   -1.9452    3.3712 O   0  0  0  0  0  0  0  0  0  0  0  0
    8.4121   -3.1830    3.9423 C   0  0  0  0  0  0  0  0  0  0  0  0
    9.0230   -4.4086    3.5766 C   0  0  1  0  0  0  0  0  0  0  0  0
    9.2734   -4.1652    2.5250 H   0  0  0  0  0  0  0  0  0  0  0  0
   10.1896   -4.5990    4.8592 O   0  0  0  0  0  0  0  0  0  0  0  0
   11.3807   -6.0788    4.6118 C   0  0  2  0  0  0  0  0  0  0  0  0
   12.1818   -5.5010    3.8257 H   0  0  0  0  0  0  0  0  0  0  0  0
    9.8944   -7.2491    3.7049 C   0  0  1  0  0  0  0  0  0  0  0  0
    8.9829   -7.7202    4.1771 H   0  0  0  0  0  0  0  0  0  0  0  0
    8.5477   -5.8861    3.4963 C   0  0  2  0  0  0  0  0  0  0  0  0
    7.6916   -5.7058    4.0542 H   0  0  0  0  0  0  0  0  0  0  0  0
    7.8653   -6.5738    2.6681 O   0  0  0  0  0  0  0  0  0  0  0  0
    6.4352   -5.6778    2.2876 P   0  0  0  0  0  0  0  0  0  0  0  0
    5.8233   -5.8521    3.6658 O   0  0  0  0  0  0  0  0  0  0  0  0
    7.3075   -4.5448    1.5613 O   0  0  0  0  0  0  0  0  0  0  0  0
    5.0050   -4.7818    1.9071 O   0  0  0  0  0  0  0  0  0  0  0  0
   10.2000   -8.2312    2.7693 O   0  0  0  0  0  0  0  0  0  0  0  0
   12.4955   -6.1537    5.4001 N   0  0  0  0  0  0  0  0  0  0  0  0
   13.1013   -5.2162    6.1293 C   0  0  0  0  0  0  0  0  0  0  0  0
   13.8707   -5.8606    6.9468 N   0  0  0  0  0  0  0  0  0  0  0  0
   13.8309   -7.1508    6.4388 C   0  0  0  0  0  0  0  0  0  0  0  0
   13.0949   -7.3253    5.3231 C   0  0  0  0  0  0  0  0  0  0  0  0
   12.8145   -8.4066    4.5663 N   0  0  0  0  0  0  0  0  0  0  0  0
   13.3881   -9.4780    5.1419 C   0  0  0  0  0  0  0  0  0  0  0  0
   14.2001   -9.4598    6.2229 N   0  0  0  0  0  0  0  0  0  0  0  0
   14.4444   -8.2814    6.8401 C   0  0  0  0  0  0  0  0  0  0  0  0
   15.3068   -8.0833    7.8652 N   0  0  0  0  0  0  0  0  0  0  0  0
    6.6163   -0.3252    2.8650 O   0  0  0  0  0  0  0  0  0  0  0  0
    5.5495   -4.3225    6.3531 O   0  0  0  0  0  0  0  0  0  0  0  0
   10.0039   -8.1532    5.6826 C   0  0  0  0  0  0  0  0  0  0  0  0
   10.2516   -5.8456    6.8011 C   0  0  0  0  0  0  0  0  0  0  0  0
   10.0883   -5.8499    1.8417 O   0  0  0  0  0  0  0  0  0  0  0  0
   11.9348    2.3323    8.6948 H   0  0  0  0  0  0  0  0  0  0  0  0
   10.5133    2.2471    7.6038 H   0  0  0  0  0  0  0  0  0  0  0  0
   12.1496    2.4009    6.9161 H   0  0  0  0  0  0  0  0  0  0  0  0
   12.0580    0.0273    8.4768 H   0  0  0  0  0  0  0  0  0  0  0  0
   10.8221   -2.0541    7.3144 H   0  0  0  0  0  0  0  0  0  0  0  0
   12.4834   -1.8611    6.7176 H   0  0  0  0  0  0  0  0  0  0  0  0
   11.4943   -1.3587    4.3394 H   0  0  0  0  0  0  0  0  0  0  0  0
    9.9826   -1.8678    5.0850 H   0  0  0  0  0  0  0  0  0  0  0  0
   11.1225   -3.8154    5.4629 H   0  0  0  0  0  0  0  0  0  0  0  0
    7.7176   -6.5461    6.6759 H   0  0  0  0  0  0  0  0  0  0  0  0
    7.5055   -6.8467    5.1457 H   0  0  0  0  0  0  0  0  0  0  0  0
    7.5776   -3.6731    3.5412 H   0  0  0  0  0  0  0  0  0  0  0  0
    8.5441   -2.9992    4.9983 H   0  0  0  0  0  0  0  0  0  0  0  0
    8.1219   -4.9151    1.1470 H   0  0  0  0  0  0  0  0  0  0  0  0
    4.2735   -5.1967    2.3921 H   0  0  0  0  0  0  0  0  0  0  0  0
   10.9772   -8.6043    3.2106 H   0  0  0  0  0  0  0  0  0  0  0  0
   12.8605   -4.1655    6.1673 H   0  0  0  0  0  0  0  0  0  0  0  0
   13.1546  -10.4554    4.7215 H   0  0  0  0  0  0  0  0  0  0  0  0
   15.9051   -8.8359    8.1060 H   0  0  0  0  0  0  0  0  0  0  0  0
   15.4002   -7.1148    8.1775 H   0  0  0  0  0  0  0  0  0  0  0  0
    6.8743    0.6356    2.8492 H   0  0  0  0  0  0  0  0  0  0  0  0
    4.6466   -4.1061    6.4938 H   0  0  0  0  0  0  0  0  0  0  0  0
    9.7321   -8.9529    4.9332 H   0  0  0  0  0  0  0  0  0  0  0  0
    9.4007   -8.4883    6.5092 H   0  0  0  0  0  0  0  0  0  0  0  0
   11.0543   -8.3643    5.7478 H   0  0  0  0  0  0  0  0  0  0  0  0
   10.2094   -4.7704    6.9591 H   0  0  0  0  0  0  0  0  0  0  0  0
   11.2168   -6.2457    7.0994 H   0  0  0  0  0  0  0  0  0  0  0  0
    9.6376   -6.3320    7.5543 H   0  0  0  0  0  0  0  0  0  0  0  0
   10.9471   -5.8340    1.3746 H   0  0  0  0  0  0  0  0  0  0  0  0
  1  2  1  0  0  0  0
  1 52  1  0  0  0  0
  1 53  1  0  0  0  0
  1 54  1  0  0  0  0
  2  3  1  0  0  0  0
  2 55  1  0  0  0  0
  3  4  2  0  0  0  0
  3  5  1  0  0  0  0
  5  6  1  0  0  0  0
  5 56  1  0  0  0  0
  5 57  1  0  0  0  0
  6  7  1  0  0  0  0
  6 58  1  0  0  0  0
  6 59  1  0  0  0  0
  7  8  1  0  0  0  0
  7 60  1  0  0  0  0
  8  9  2  0  0  0  0
  8 10  1  0  0  0  0
 10 11  1  1  0  0  0
 10 12  1  0  0  0  0
 10 51  1  0  0  0  0
 12 13  1  0  0  0  0
 12 49  1  0  0  0  0
 12 50  1  0  0  0  0
 13 14  1  0  0  0  0
 13 61  1  0  0  0  0
 13 62  1  0  0  0  0
 15 17  1  1  0  0  0
 15 48  1  0  0  0  0
 15 16  2  0  0  0  0
 15 14  1  0  0  0  0
 18 17  1  1  0  0  0
 18 19  2  0  0  0  0
 18 20  1  0  0  0  0
 18 47  1  0  0  0  0
 20 21  1  0  0  0  0
 21 22  1  0  0  0  0
 21 63  1  0  0  0  0
 21 64  1  0  0  0  0
 22 23  1  6  0  0  0
 22 24  1  0  0  0  0
 22 29  1  0  0  0  0
 24 25  1  0  0  0  0
 25 27  1  0  0  0  0
 25 37  1  0  0  0  0
 25 26  1  6  0  0  0
 27 28  1  1  0  0  0
 27 29  1  0  0  0  0
 27 36  1  0  0  0  0
 29 30  1  1  0  0  0
 29 31  1  0  0  0  0
 31 32  1  0  0  0  0
 32 33  2  0  0  0  0
 32 34  1  0  0  0  0
 32 35  1  0  0  0  0
 34 65  1  0  0  0  0
 35 66  1  0  0  0  0
 36 67  1  0  0  0  0
 37 38  1  0  0  0  0
 37 41  1  0  0  0  0
 38 39  2  0  0  0  0
 38 68  1  0  0  0  0
 39 40  1  0  0  0  0
 40 41  2  0  0  0  0
 40 45  1  0  0  0  0
 41 42  1  0  0  0  0
 42 43  2  0  0  0  0
 43 44  1  0  0  0  0
 43 69  1  0  0  0  0
 44 45  2  0  0  0  0
 45 46  1  0  0  0  0
 46 70  1  0  0  0  0
 46 71  1  0  0  0  0
 47 72  1  0  0  0  0
 48 73  1  0  0  0  0
 49 74  1  0  0  0  0
 49 75  1  0  0  0  0
 49 76  1  0  0  0  0
 50 77  1  0  0  0  0
 50 78  1  0  0  0  0
 50 79  1  0  0  0  0
 51 80  1  0  0  0  0
M  END
$$$$
