ETP
 OpenBabel04121316113D

 41 43  0  0  0  0  0  0  0  0999 V2000
    1.0512   -0.0745   -0.0427 O   0  0  0  0  0  0  0  0  0  0  0  0
    2.5092   -0.0745   -0.0427 B   0  0  0  0  0  0  0  0  0  0  0  0
    3.2692    0.6280    1.0705 C   0  0  0  0  0  0  0  0  0  0  0  0
    3.0837    1.9402    1.2241 C   0  0  0  0  0  0  0  0  0  0  0  0
    3.6913    2.5943    2.3318 C   0  0  0  0  0  0  0  0  0  0  0  0
    4.6963    1.9326    3.0562 C   0  0  0  0  0  0  0  0  0  0  0  0
    4.8778    0.6545    2.8985 C   0  0  0  0  0  0  0  0  0  0  0  0
    4.0647   -0.0666    2.0140 C   0  0  0  0  0  0  0  0  0  0  0  0
    5.8844   -0.0002    3.6115 N   0  0  0  0  0  0  0  0  0  0  0  0
    6.1261   -1.6949    3.4032 S   0  0  0  0  0  0  0  0  0  0  0  0
    4.8534   -2.4418    3.7921 O   0  0  0  0  0  0  0  0  0  0  0  0
    6.4602   -1.9853    1.9428 O   0  0  0  0  0  0  0  0  0  0  0  0
    7.4642   -2.2317    4.4333 C   0  0  0  0  0  0  0  0  0  0  0  0
    8.3326   -1.4577    5.0249 S   0  0  0  0  0  0  0  0  0  0  0  0
    9.1660   -2.2549    5.7368 C   0  0  0  0  0  0  0  0  0  0  0  0
    8.7304   -3.5224    5.5365 C   0  0  0  0  0  0  0  0  0  0  0  0
    7.6981   -3.4584    4.7406 C   0  0  0  0  0  0  0  0  0  0  0  0
    9.4330   -4.9951    6.2276 S   0  0  0  0  0  0  0  0  0  0  0  0
    8.3840   -5.7103    7.0743 O   0  0  0  0  0  0  0  0  0  0  0  0
    9.8922   -5.9167    5.1012 O   0  0  0  0  0  0  0  0  0  0  0  0
   10.8204   -4.5672    7.2434 C   0  0  0  0  0  0  0  0  0  0  0  0
   11.0216   -3.2170    7.6443 C   0  0  0  0  0  0  0  0  0  0  0  0
   12.2522   -2.8414    8.2073 C   0  0  0  0  0  0  0  0  0  0  0  0
   13.0888   -3.7524    8.6094 C   0  0  0  0  0  0  0  0  0  0  0  0
   12.7598   -5.1094    8.4917 C   0  0  0  0  0  0  0  0  0  0  0  0
   11.6789   -5.4980    7.6634 C   0  0  0  0  0  0  0  0  0  0  0  0
    3.2382   -0.7484   -1.1105 O   0  0  0  0  0  0  0  0  0  0  0  0
    0.7279    0.4135    0.7307 H   0  0  0  0  0  0  0  0  0  0  0  0
    2.5094    2.4715    0.5511 H   0  0  0  0  0  0  0  0  0  0  0  0
    3.3964    3.5461    2.6005 H   0  0  0  0  0  0  0  0  0  0  0  0
    5.2909    2.4608    3.7139 H   0  0  0  0  0  0  0  0  0  0  0  0
    4.0456   -1.0978    2.0500 H   0  0  0  0  0  0  0  0  0  0  0  0
    6.4561    0.5059    4.2331 H   0  0  0  0  0  0  0  0  0  0  0  0
    9.9683   -1.9574    6.3137 H   0  0  0  0  0  0  0  0  0  0  0  0
    7.1524   -4.2689    4.4084 H   0  0  0  0  0  0  0  0  0  0  0  0
   10.2702   -2.5201    7.5225 H   0  0  0  0  0  0  0  0  0  0  0  0
   12.4928   -1.8423    8.3019 H   0  0  0  0  0  0  0  0  0  0  0  0
   13.9962   -3.4755    9.0158 H   0  0  0  0  0  0  0  0  0  0  0  0
   13.3020   -5.8214    9.0056 H   0  0  0  0  0  0  0  0  0  0  0  0
   11.5572   -6.4854    7.3891 H   0  0  0  0  0  0  0  0  0  0  0  0
    2.6078   -1.1419   -1.7340 H   0  0  0  0  0  0  0  0  0  0  0  0
  1  2  1  0  0  0  0
  1 28  1  0  0  0  0
  2  3  1  0  0  0  0
  2 27  1  0  0  0  0
  3  4  2  0  0  0  0
  3  8  1  0  0  0  0
  4  5  1  0  0  0  0
  4 29  1  0  0  0  0
  5  6  2  0  0  0  0
  5 30  1  0  0  0  0
  6  7  1  0  0  0  0
  6 31  1  0  0  0  0
  7  8  2  0  0  0  0
  7  9  1  0  0  0  0
  8 32  1  0  0  0  0
  9 10  1  0  0  0  0
  9 33  1  0  0  0  0
 10 11  2  0  0  0  0
 10 12  2  0  0  0  0
 10 13  1  0  0  0  0
 13 14  1  0  0  0  0
 13 17  2  0  0  0  0
 14 15  1  0  0  0  0
 15 16  2  0  0  0  0
 15 34  1  0  0  0  0
 16 17  1  0  0  0  0
 16 18  1  0  0  0  0
 17 35  1  0  0  0  0
 18 19  2  0  0  0  0
 18 20  2  0  0  0  0
 18 21  1  0  0  0  0
 21 22  2  0  0  0  0
 21 26  1  0  0  0  0
 22 23  1  0  0  0  0
 22 36  1  0  0  0  0
 23 24  2  0  0  0  0
 23 37  1  0  0  0  0
 24 25  1  0  0  0  0
 24 38  1  0  0  0  0
 25 26  2  0  0  0  0
 25 39  1  0  0  0  0
 26 40  1  0  0  0  0
 27 41  1  0  0  0  0
M  END
$$$$
