EV0
 OpenBabel04121316113D

 22 22  0  0  0  0  0  0  0  0999 V2000
    0.8679   -0.0132   -0.0407 C   0  0  0  0  0  0  0  0  0  0  0  0
    2.3799   -0.0098   -0.0390 C   0  0  0  0  0  0  0  0  0  0  0  0
    2.9821   -1.1705   -0.8506 C   0  0  0  0  0  0  0  0  0  0  0  0
    4.5006   -1.1304   -0.8849 C   0  0  0  0  0  0  0  0  0  0  0  0
    5.1343    0.0509   -0.8988 C   0  0  0  0  0  0  0  0  0  0  0  0
    6.5876    0.0730   -0.8772 C   0  0  0  0  0  0  0  0  0  0  0  0
    7.2055    1.1333   -0.8683 O   0  0  0  0  0  0  0  0  0  0  0  0
    7.1786   -1.1465   -0.8634 N   0  0  0  0  0  0  0  0  0  0  0  0
    8.1825   -1.1469   -0.8510 H   0  0  0  0  0  0  0  0  0  0  0  0
    6.4671   -2.3089   -0.8630 C   0  0  0  0  0  0  0  0  0  0  0  0
    5.1686   -2.3396   -0.8728 N   0  0  0  0  0  0  0  0  0  0  0  0
    7.2044   -3.4406   -0.8512 N   0  0  0  0  0  0  0  0  0  0  0  0
    0.5007    0.8399    0.5394 H   0  0  0  0  0  0  0  0  0  0  0  0
    0.4771   -0.9317    0.4016 H   0  0  0  0  0  0  0  0  0  0  0  0
    0.4880    0.0843   -1.0621 H   0  0  0  0  0  0  0  0  0  0  0  0
    2.7522   -0.0500    0.9924 H   0  0  0  0  0  0  0  0  0  0  0  0
    2.6820    0.9576   -0.4535 H   0  0  0  0  0  0  0  0  0  0  0  0
    2.6071   -1.1376   -1.8819 H   0  0  0  0  0  0  0  0  0  0  0  0
    2.6352   -2.1189   -0.4194 H   0  0  0  0  0  0  0  0  0  0  0  0
    4.6502    1.0133   -0.9144 H   0  0  0  0  0  0  0  0  0  0  0  0
    8.2126   -3.4432   -0.8525 H   0  0  0  0  0  0  0  0  0  0  0  0
    6.7218   -4.3293   -0.8583 H   0  0  0  0  0  0  0  0  0  0  0  0
  1  2  1  0  0  0  0
  1 13  1  0  0  0  0
  1 14  1  0  0  0  0
  1 15  1  0  0  0  0
  2  3  1  0  0  0  0
  2 16  1  0  0  0  0
  2 17  1  0  0  0  0
  3  4  1  0  0  0  0
  3 18  1  0  0  0  0
  3 19  1  0  0  0  0
  4  5  2  0  0  0  0
  4 11  1  0  0  0  0
  5  6  1  0  0  0  0
  5 20  1  0  0  0  0
  6  7  2  0  0  0  0
  6  8  1  0  0  0  0
  8  9  1  0  0  0  0
  8 10  1  0  0  0  0
 10 11  2  0  0  0  0
 10 12  1  0  0  0  0
 12 21  1  0  0  0  0
 12 22  1  0  0  0  0
M  END
$$$$
