EV5
 OpenBabel04121316113D

 52 54  0  0  1  0  0  0  0  0999 V2000
    1.6527    1.7946    2.9865 C   0  0  0  0  0  0  0  0  0  0  0  0
    2.5709    0.6964    2.5109 C   0  0  0  0  0  0  0  0  0  0  0  0
    2.8732   -0.3797    1.4045 C   0  0  2  0  0  0  0  0  0  0  0  0
    2.5568   -0.0952    0.3911 H   0  0  0  0  0  0  0  0  0  0  0  0
    2.3737   -1.7643    1.6206 N   0  0  0  0  0  0  0  0  0  0  0  0
    3.0062   -2.9659    1.2701 C   0  0  0  0  0  0  0  0  0  0  0  0
    4.1256   -3.0735    0.5322 N   0  0  0  0  0  0  0  0  0  0  0  0
    2.4121   -4.0031    1.8060 N   0  0  0  0  0  0  0  0  0  0  0  0
    1.3592   -3.5067    2.5214 C   0  0  0  0  0  0  0  0  0  0  0  0
    1.2914   -2.1191    2.4139 C   0  0  0  0  0  0  0  0  0  0  0  0
    0.3034   -1.3885    3.0834 C   0  0  0  0  0  0  0  0  0  0  0  0
   -0.6171   -2.0738    3.8723 C   0  0  0  0  0  0  0  0  0  0  0  0
   -0.5761   -3.4587    3.9580 C   0  0  0  0  0  0  0  0  0  0  0  0
    0.4052   -4.1960    3.2904 C   0  0  0  0  0  0  0  0  0  0  0  0
   -1.7782   -4.2680    4.8879 Cl  0  0  0  0  0  0  0  0  0  0  0  0
    4.4325   -0.3971    1.5382 C   0  0  0  0  0  0  0  0  0  0  0  0
    4.8158   -0.8734    2.9643 C   0  0  0  0  0  0  0  0  0  0  0  0
    4.0472   -1.1926    3.8824 O   0  0  0  0  0  0  0  0  0  0  0  0
    6.1286   -0.8622    3.1863 N   0  0  0  0  0  0  0  0  0  0  0  0
    6.7868   -1.2332    4.4051 C   0  0  0  0  0  0  0  0  0  0  0  0
    8.3193   -1.2227    4.2502 C   0  0  0  0  0  0  0  0  0  0  0  0
    8.8440   -2.6178    3.8928 C   0  0  0  0  0  0  0  0  0  0  0  0
    8.4465   -2.9975    2.4740 C   0  0  0  0  0  0  0  0  0  0  0  0
    9.0252   -2.0131    1.4550 C   0  0  0  0  0  0  0  0  0  0  0  0
    8.7123   -0.5449    1.7264 C   0  0  0  0  0  0  0  0  0  0  0  0
    8.8602   -0.1864    3.2256 C   0  0  0  0  0  0  0  0  0  0  0  0
    1.7708    1.7716    4.0904 H   0  0  0  0  0  0  0  0  0  0  0  0
    0.5905    1.7382    2.7841 H   0  0  0  0  0  0  0  0  0  0  0  0
    2.0557    2.7817    2.7313 H   0  0  0  0  0  0  0  0  0  0  0  0
    2.5272    0.0839    3.3994 H   0  0  0  0  0  0  0  0  0  0  0  0
    3.4603    1.3268    2.4691 H   0  0  0  0  0  0  0  0  0  0  0  0
    4.4151   -2.4080   -0.1680 H   0  0  0  0  0  0  0  0  0  0  0  0
    4.4839   -4.0108    0.3686 H   0  0  0  0  0  0  0  0  0  0  0  0
    0.2405   -0.3158    3.0318 H   0  0  0  0  0  0  0  0  0  0  0  0
   -1.3677   -1.5032    4.4134 H   0  0  0  0  0  0  0  0  0  0  0  0
    0.4407   -5.2766    3.3571 H   0  0  0  0  0  0  0  0  0  0  0  0
    4.8402    0.6128    1.3585 H   0  0  0  0  0  0  0  0  0  0  0  0
    4.9784   -0.9607    0.7849 H   0  0  0  0  0  0  0  0  0  0  0  0
    6.6617   -0.7000    2.3728 H   0  0  0  0  0  0  0  0  0  0  0  0
    6.4111   -2.2165    4.7186 H   0  0  0  0  0  0  0  0  0  0  0  0
    6.4654   -0.5121    5.1646 H   0  0  0  0  0  0  0  0  0  0  0  0
    8.7241   -0.9766    5.2419 H   0  0  0  0  0  0  0  0  0  0  0  0
    8.4716   -3.3649    4.6052 H   0  0  0  0  0  0  0  0  0  0  0  0
    9.9383   -2.6299    3.9804 H   0  0  0  0  0  0  0  0  0  0  0  0
    7.3544   -3.0460    2.3917 H   0  0  0  0  0  0  0  0  0  0  0  0
    8.8098   -4.0065    2.2535 H   0  0  0  0  0  0  0  0  0  0  0  0
    8.6603   -2.2860    0.4591 H   0  0  0  0  0  0  0  0  0  0  0  0
   10.1142   -2.1150    1.4485 H   0  0  0  0  0  0  0  0  0  0  0  0
    7.7464   -0.3114    1.2664 H   0  0  0  0  0  0  0  0  0  0  0  0
    9.3525    0.1176    1.1360 H   0  0  0  0  0  0  0  0  0  0  0  0
    8.4341    0.8022    3.4353 H   0  0  0  0  0  0  0  0  0  0  0  0
    9.9389   -0.0979    3.4043 H   0  0  0  0  0  0  0  0  0  0  0  0
  1  2  1  0  0  0  0
  1 27  1  0  0  0  0
  1 28  1  0  0  0  0
  1 29  1  0  0  0  0
  2 30  1  0  0  0  0
  2 31  1  0  0  0  0
  3  5  1  0  0  0  0
  3 16  1  0  0  0  0
  3  4  1  6  0  0  0
  3  2  1  0  0  0  0
  5  6  1  0  0  0  0
  5 10  1  0  0  0  0
  6  7  1  0  0  0  0
  6  8  2  0  0  0  0
  7 32  1  0  0  0  0
  7 33  1  0  0  0  0
  8  9  1  0  0  0  0
  9 10  2  0  0  0  0
  9 14  1  0  0  0  0
 10 11  1  0  0  0  0
 11 12  2  0  0  0  0
 11 34  1  0  0  0  0
 12 13  1  0  0  0  0
 12 35  1  0  0  0  0
 13 14  2  0  0  0  0
 13 15  1  0  0  0  0
 14 36  1  0  0  0  0
 16 17  1  0  0  0  0
 16 37  1  0  0  0  0
 16 38  1  0  0  0  0
 17 18  2  0  0  0  0
 17 19  1  0  0  0  0
 19 20  1  0  0  0  0
 19 39  1  0  0  0  0
 20 21  1  0  0  0  0
 20 40  1  0  0  0  0
 20 41  1  0  0  0  0
 21 22  1  0  0  0  0
 21 26  1  0  0  0  0
 21 42  1  0  0  0  0
 22 23  1  0  0  0  0
 22 43  1  0  0  0  0
 22 44  1  0  0  0  0
 23 24  1  0  0  0  0
 23 45  1  0  0  0  0
 23 46  1  0  0  0  0
 24 25  1  0  0  0  0
 24 47  1  0  0  0  0
 24 48  1  0  0  0  0
 25 26  1  0  0  0  0
 25 49  1  0  0  0  0
 25 50  1  0  0  0  0
 26 51  1  0  0  0  0
 26 52  1  0  0  0  0
M  END
$$$$
