EZL
 OpenBabel04121316113D

 26 27  0  0  0  0  0  0  0  0999 V2000
    0.9134    0.0306   -0.0984 C   0  0  0  0  0  0  0  0  0  0  0  0
    2.4246    0.0518   -0.0871 C   0  0  0  0  0  0  0  0  0  0  0  0
    2.8259    1.0426    0.8664 O   0  0  0  0  0  0  0  0  0  0  0  0
    4.1797    1.1277    1.0258 C   0  0  0  0  0  0  0  0  0  0  0  0
    4.7366    2.3994    1.1290 C   0  0  0  0  0  0  0  0  0  0  0  0
    6.1208    2.5660    1.3215 C   0  0  0  0  0  0  0  0  0  0  0  0
    6.9493    1.4236    1.4273 C   0  0  0  0  0  0  0  0  0  0  0  0
    6.3404    0.1708    1.3386 C   0  0  0  0  0  0  0  0  0  0  0  0
    4.9723   -0.0040    1.1514 C   0  0  0  0  0  0  0  0  0  0  0  0
    7.4917   -1.0773    1.4982 S   0  0  0  0  0  0  0  0  0  0  0  0
    8.6933    0.1021    1.6697 C   0  0  0  0  0  0  0  0  0  0  0  0
    8.3304    1.3754    1.6209 N   0  0  0  0  0  0  0  0  0  0  0  0
   10.3258   -0.5474    1.8986 S   0  0  0  0  0  0  0  0  0  0  0  0
   10.3010   -1.2246    3.1727 O   0  0  0  0  0  0  0  0  0  0  0  0
   10.6551   -1.2127    0.6553 O   0  0  0  0  0  0  0  0  0  0  0  0
   11.3652    0.7676    2.0494 N   0  0  0  0  0  0  0  0  0  0  0  0
    0.5402   -0.6833   -0.8365 H   0  0  0  0  0  0  0  0  0  0  0  0
    0.5223    1.0267   -0.3225 H   0  0  0  0  0  0  0  0  0  0  0  0
    0.5363   -0.2507    0.8909 H   0  0  0  0  0  0  0  0  0  0  0  0
    2.8117    0.3204   -1.0771 H   0  0  0  0  0  0  0  0  0  0  0  0
    2.7699   -0.9542    0.1749 H   0  0  0  0  0  0  0  0  0  0  0  0
    4.0887    3.2705    1.0496 H   0  0  0  0  0  0  0  0  0  0  0  0
    6.5384    3.5673    1.3901 H   0  0  0  0  0  0  0  0  0  0  0  0
    4.5708   -1.0084    1.1311 H   0  0  0  0  0  0  0  0  0  0  0  0
   11.1175    1.3104    2.8761 H   0  0  0  0  0  0  0  0  0  0  0  0
   11.3547    1.3187    1.1921 H   0  0  0  0  0  0  0  0  0  0  0  0
  1  2  1  0  0  0  0
  1 17  1  0  0  0  0
  1 18  1  0  0  0  0
  1 19  1  0  0  0  0
  2  3  1  0  0  0  0
  2 20  1  0  0  0  0
  2 21  1  0  0  0  0
  3  4  1  0  0  0  0
  4  5  2  0  0  0  0
  4  9  1  0  0  0  0
  5  6  1  0  0  0  0
  5 22  1  0  0  0  0
  6  7  2  0  0  0  0
  6 23  1  0  0  0  0
  7  8  1  0  0  0  0
  7 12  1  0  0  0  0
  8  9  2  0  0  0  0
  8 10  1  0  0  0  0
  9 24  1  0  0  0  0
 10 11  1  0  0  0  0
 11 12  2  0  0  0  0
 11 13  1  0  0  0  0
 13 14  2  0  0  0  0
 13 15  2  0  0  0  0
 13 16  1  0  0  0  0
 16 25  1  0  0  0  0
 16 26  1  0  0  0  0
M  END
$$$$
