EZR
 OpenBabel04121316113D

 61 66  0  0  0  0  0  0  0  0999 V2000
    0.9190    0.1642    0.0685 C   0  0  0  0  0  0  0  0  0  0  0  0
    2.3273    0.3430   -0.0315 O   0  0  0  0  0  0  0  0  0  0  0  0
    2.9527    0.4080    1.1899 C   0  0  0  0  0  0  0  0  0  0  0  0
    3.1141    1.6969    1.7103 C   0  0  0  0  0  0  0  0  0  0  0  0
    3.9892    1.9358    2.7661 C   0  0  0  0  0  0  0  0  0  0  0  0
    4.1327    3.2200    3.2968 N   0  0  0  0  0  0  0  0  0  0  0  0
    4.5535    0.8479    3.4174 C   0  0  0  0  0  0  0  0  0  0  0  0
    4.3233   -0.4486    2.9575 C   0  0  0  0  0  0  0  0  0  0  0  0
    3.5792   -0.7073    1.7847 C   0  0  0  0  0  0  0  0  0  0  0  0
    3.5410   -2.0848    1.2264 C   0  0  0  0  0  0  0  0  0  0  0  0
    3.8119   -3.1963    2.0449 C   0  0  0  0  0  0  0  0  0  0  0  0
    3.8292   -4.5021    1.5593 C   0  0  0  0  0  0  0  0  0  0  0  0
    3.5351   -4.7266    0.2092 C   0  0  0  0  0  0  0  0  0  0  0  0
    3.2468   -3.6428   -0.5988 C   0  0  0  0  0  0  0  0  0  0  0  0
    3.2769   -2.3292   -0.1366 C   0  0  0  0  0  0  0  0  0  0  0  0
    2.9551   -4.1607   -1.8294 N   0  0  0  0  0  0  0  0  0  0  0  0
    2.6833   -3.6527   -2.6649 H   0  0  0  0  0  0  0  0  0  0  0  0
    3.0170   -5.4990   -1.8799 N   0  0  0  0  0  0  0  0  0  0  0  0
    3.3996   -5.8473   -0.6406 C   0  0  0  0  0  0  0  0  0  0  0  0
    3.6020   -7.2621   -0.2156 C   0  0  0  0  0  0  0  0  0  0  0  0
    3.1772   -8.3028   -0.8751 N   0  0  0  0  0  0  0  0  0  0  0  0
    3.4983   -9.4192   -0.1285 C   0  0  0  0  0  0  0  0  0  0  0  0
    4.1654   -9.0263    1.0237 C   0  0  0  0  0  0  0  0  0  0  0  0
    4.2331   -7.6610    0.9344 N   0  0  0  0  0  0  0  0  0  0  0  0
    4.6940   -7.0651    1.5924 H   0  0  0  0  0  0  0  0  0  0  0  0
    4.6252   -9.9037    1.9980 C   0  0  0  0  0  0  0  0  0  0  0  0
    4.3805  -11.2492    1.7587 C   0  0  0  0  0  0  0  0  0  0  0  0
    3.7092  -11.6709    0.6042 C   0  0  0  0  0  0  0  0  0  0  0  0
    3.2271  -10.7911   -0.3942 C   0  0  0  0  0  0  0  0  0  0  0  0
    2.5504  -11.2423   -1.5160 N   0  0  0  0  0  0  0  0  0  0  0  0
    2.3058  -10.3493   -2.6686 C   0  0  0  0  0  0  0  0  0  0  0  0
    2.9305  -10.9574   -3.9405 C   0  0  0  0  0  0  0  0  0  0  0  0
    2.4544  -12.3280   -4.2436 N   0  0  0  0  0  0  0  0  0  0  0  0
    2.7354  -13.1696   -3.0533 C   0  0  0  0  0  0  0  0  0  0  0  0
    2.1315  -12.6334   -1.7330 C   0  0  0  0  0  0  0  0  0  0  0  0
    1.0171  -12.2976   -4.5313 C   0  0  0  0  0  0  0  0  0  0  0  0
    0.5527   -0.0525   -0.9417 H   0  0  0  0  0  0  0  0  0  0  0  0
    0.4429    1.0865    0.4098 H   0  0  0  0  0  0  0  0  0  0  0  0
    0.6501   -0.6813    0.7094 H   0  0  0  0  0  0  0  0  0  0  0  0
    2.5930    2.5202    1.2332 H   0  0  0  0  0  0  0  0  0  0  0  0
    3.9590    3.9596    2.6234 H   0  0  0  0  0  0  0  0  0  0  0  0
    5.0046    3.3548    3.8003 H   0  0  0  0  0  0  0  0  0  0  0  0
    5.2039    0.9899    4.2761 H   0  0  0  0  0  0  0  0  0  0  0  0
    4.7913   -1.2457    3.5289 H   0  0  0  0  0  0  0  0  0  0  0  0
    4.0197   -3.0869    3.1058 H   0  0  0  0  0  0  0  0  0  0  0  0
    4.0343   -5.3017    2.2578 H   0  0  0  0  0  0  0  0  0  0  0  0
    3.1013   -1.5321   -0.8462 H   0  0  0  0  0  0  0  0  0  0  0  0
    5.1401   -9.5695    2.8895 H   0  0  0  0  0  0  0  0  0  0  0  0
    4.7141  -11.9946    2.4764 H   0  0  0  0  0  0  0  0  0  0  0  0
    3.5855  -12.7427    0.5004 H   0  0  0  0  0  0  0  0  0  0  0  0
    2.7277   -9.3532   -2.6073 H   0  0  0  0  0  0  0  0  0  0  0  0
    1.2256  -10.2012   -2.7816 H   0  0  0  0  0  0  0  0  0  0  0  0
    4.0232  -10.9816   -3.8152 H   0  0  0  0  0  0  0  0  0  0  0  0
    2.7457  -10.2957   -4.7950 H   0  0  0  0  0  0  0  0  0  0  0  0
    3.8262  -13.2441   -2.9327 H   0  0  0  0  0  0  0  0  0  0  0  0
    2.3859  -14.1921   -3.2345 H   0  0  0  0  0  0  0  0  0  0  0  0
    2.3945  -13.3207   -0.9276 H   0  0  0  0  0  0  0  0  0  0  0  0
    1.0367  -12.6658   -1.7770 H   0  0  0  0  0  0  0  0  0  0  0  0
    0.8126  -11.6333   -5.3769 H   0  0  0  0  0  0  0  0  0  0  0  0
    0.4019  -11.9481   -3.6955 H   0  0  0  0  0  0  0  0  0  0  0  0
    0.6621  -13.2963   -4.7972 H   0  0  0  0  0  0  0  0  0  0  0  0
  1  2  1  0  0  0  0
  1 37  1  0  0  0  0
  1 38  1  0  0  0  0
  1 39  1  0  0  0  0
  2  3  1  0  0  0  0
  3  4  2  0  0  0  0
  3  9  1  0  0  0  0
  4  5  1  0  0  0  0
  4 40  1  0  0  0  0
  5  6  1  0  0  0  0
  5  7  2  0  0  0  0
  6 41  1  0  0  0  0
  6 42  1  0  0  0  0
  7  8  1  0  0  0  0
  7 43  1  0  0  0  0
  8  9  2  0  0  0  0
  8 44  1  0  0  0  0
  9 10  1  0  0  0  0
 10 11  2  0  0  0  0
 10 15  1  0  0  0  0
 11 12  1  0  0  0  0
 11 45  1  0  0  0  0
 12 13  2  0  0  0  0
 12 46  1  0  0  0  0
 13 14  1  0  0  0  0
 13 19  1  0  0  0  0
 14 15  2  0  0  0  0
 14 16  1  0  0  0  0
 15 47  1  0  0  0  0
 16 17  1  0  0  0  0
 16 18  1  0  0  0  0
 18 19  2  0  0  0  0
 19 20  1  0  0  0  0
 20 21  2  0  0  0  0
 20 24  1  0  0  0  0
 21 22  1  0  0  0  0
 22 23  2  0  0  0  0
 22 29  1  0  0  0  0
 23 24  1  0  0  0  0
 23 26  1  0  0  0  0
 24 25  1  0  0  0  0
 26 27  2  0  0  0  0
 26 48  1  0  0  0  0
 27 28  1  0  0  0  0
 27 49  1  0  0  0  0
 28 29  2  0  0  0  0
 28 50  1  0  0  0  0
 29 30  1  0  0  0  0
 30 31  1  0  0  0  0
 30 35  1  0  0  0  0
 31 32  1  0  0  0  0
 31 51  1  0  0  0  0
 31 52  1  0  0  0  0
 32 33  1  0  0  0  0
 32 53  1  0  0  0  0
 32 54  1  0  0  0  0
 33 34  1  0  0  0  0
 33 36  1  0  0  0  0
 34 35  1  0  0  0  0
 34 55  1  0  0  0  0
 34 56  1  0  0  0  0
 35 57  1  0  0  0  0
 35 58  1  0  0  0  0
 36 59  1  0  0  0  0
 36 60  1  0  0  0  0
 36 61  1  0  0  0  0
M  END
$$$$
