EZV
 OpenBabel04121316113D

 57 62  0  0  0  0  0  0  0  0999 V2000
    0.9655    0.1512    0.0502 C   0  0  0  0  0  0  0  0  0  0  0  0
    2.4297    0.1623    0.0030 N   0  0  0  0  0  0  0  0  0  0  0  0
    2.9296   -1.1772   -0.3475 C   0  0  0  0  0  0  0  0  0  0  0  0
    2.5343   -1.6301   -1.7586 C   0  0  0  0  0  0  0  0  0  0  0  0
    2.9779   -0.6649   -2.7699 N   0  0  0  0  0  0  0  0  0  0  0  0
    2.5529    0.7236   -2.4873 C   0  0  0  0  0  0  0  0  0  0  0  0
    2.9218    1.1098   -1.0304 C   0  0  0  0  0  0  0  0  0  0  0  0
    3.7639   -1.0253   -3.8470 C   0  0  0  0  0  0  0  0  0  0  0  0
    4.4927   -0.0814   -4.6062 C   0  0  0  0  0  0  0  0  0  0  0  0
    5.2837   -0.4146   -5.7115 C   0  0  0  0  0  0  0  0  0  0  0  0
    5.4230   -1.7405   -6.1117 C   0  0  0  0  0  0  0  0  0  0  0  0
    4.7567   -2.7257   -5.3801 C   0  0  0  0  0  0  0  0  0  0  0  0
    3.9464   -2.3483   -4.3141 C   0  0  0  0  0  0  0  0  0  0  0  0
    3.4124   -3.5496   -3.9271 N   0  0  0  0  0  0  0  0  0  0  0  0
    2.7754   -3.6994   -3.1808 H   0  0  0  0  0  0  0  0  0  0  0  0
    3.9453   -4.5719   -4.6551 C   0  0  0  0  0  0  0  0  0  0  0  0
    4.7755   -4.0965   -5.5530 N   0  0  0  0  0  0  0  0  0  0  0  0
    3.5818   -6.0007   -4.3904 C   0  0  0  0  0  0  0  0  0  0  0  0
    4.3079   -7.0228   -4.8640 N   0  0  0  0  0  0  0  0  0  0  0  0
    3.6823   -8.1074   -4.3935 N   0  0  0  0  0  0  0  0  0  0  0  0
    4.0665   -9.0194   -4.6134 H   0  0  0  0  0  0  0  0  0  0  0  0
    2.5619   -7.8341   -3.6610 C   0  0  0  0  0  0  0  0  0  0  0  0
    2.4622   -6.4540   -3.6229 C   0  0  0  0  0  0  0  0  0  0  0  0
    1.3624   -5.8959   -2.9416 C   0  0  0  0  0  0  0  0  0  0  0  0
    0.4399   -6.7405   -2.3040 C   0  0  0  0  0  0  0  0  0  0  0  0
    0.5531   -8.1397   -2.3331 C   0  0  0  0  0  0  0  0  0  0  0  0
    1.6374   -8.6857   -3.0538 C   0  0  0  0  0  0  0  0  0  0  0  0
   -0.4408   -9.0287   -1.6745 C   0  0  0  0  0  0  0  0  0  0  0  0
   -0.2159  -10.4123   -1.5712 C   0  0  0  0  0  0  0  0  0  0  0  0
   -1.1962  -11.2886   -1.1083 C   0  0  0  0  0  0  0  0  0  0  0  0
   -2.4071  -10.8057   -0.6318 C   0  0  0  0  0  0  0  0  0  0  0  0
   -2.5818   -9.4276   -0.5559 C   0  0  0  0  0  0  0  0  0  0  0  0
   -1.6488   -8.5570   -1.1331 C   0  0  0  0  0  0  0  0  0  0  0  0
   -3.3116  -11.6791   -0.0251 N   0  0  0  0  0  0  0  0  0  0  0  0
    0.6137   -0.5896    0.7761 H   0  0  0  0  0  0  0  0  0  0  0  0
    0.4928   -0.0921   -0.9072 H   0  0  0  0  0  0  0  0  0  0  0  0
    0.5905    1.1287    0.3610 H   0  0  0  0  0  0  0  0  0  0  0  0
    2.5820   -1.9252    0.3756 H   0  0  0  0  0  0  0  0  0  0  0  0
    4.0272   -1.1878   -0.2797 H   0  0  0  0  0  0  0  0  0  0  0  0
    1.4529   -1.7826   -1.8601 H   0  0  0  0  0  0  0  0  0  0  0  0
    3.0075   -2.5998   -1.8301 H   0  0  0  0  0  0  0  0  0  0  0  0
    1.4666    0.7878   -2.6245 H   0  0  0  0  0  0  0  0  0  0  0  0
    2.9623    1.4758   -3.1655 H   0  0  0  0  0  0  0  0  0  0  0  0
    2.5558    2.1171   -0.8032 H   0  0  0  0  0  0  0  0  0  0  0  0
    4.0175    1.1642   -0.9533 H   0  0  0  0  0  0  0  0  0  0  0  0
    4.4801    0.9706   -4.3360 H   0  0  0  0  0  0  0  0  0  0  0  0
    5.8020    0.3712   -6.2543 H   0  0  0  0  0  0  0  0  0  0  0  0
    6.0320   -2.0144   -6.9635 H   0  0  0  0  0  0  0  0  0  0  0  0
    1.1703   -4.8302   -2.9072 H   0  0  0  0  0  0  0  0  0  0  0  0
   -0.3872   -6.2530   -1.7938 H   0  0  0  0  0  0  0  0  0  0  0  0
    1.7697   -9.7541   -3.1728 H   0  0  0  0  0  0  0  0  0  0  0  0
    0.7348  -10.8572   -1.8462 H   0  0  0  0  0  0  0  0  0  0  0  0
   -0.9893  -12.3543   -1.1242 H   0  0  0  0  0  0  0  0  0  0  0  0
   -3.4574   -9.0089   -0.0681 H   0  0  0  0  0  0  0  0  0  0  0  0
   -1.9052   -7.5019   -1.1397 H   0  0  0  0  0  0  0  0  0  0  0  0
   -3.2804  -12.6191   -0.4089 H   0  0  0  0  0  0  0  0  0  0  0  0
   -4.2570  -11.3169    0.0354 H   0  0  0  0  0  0  0  0  0  0  0  0
  1  2  1  0  0  0  0
  1 35  1  0  0  0  0
  1 36  1  0  0  0  0
  1 37  1  0  0  0  0
  2  3  1  0  0  0  0
  2  7  1  0  0  0  0
  3  4  1  0  0  0  0
  3 38  1  0  0  0  0
  3 39  1  0  0  0  0
  4  5  1  0  0  0  0
  4 40  1  0  0  0  0
  4 41  1  0  0  0  0
  5  6  1  0  0  0  0
  5  8  1  0  0  0  0
  6  7  1  0  0  0  0
  6 42  1  0  0  0  0
  6 43  1  0  0  0  0
  7 44  1  0  0  0  0
  7 45  1  0  0  0  0
  8  9  2  0  0  0  0
  8 13  1  0  0  0  0
  9 10  1  0  0  0  0
  9 46  1  0  0  0  0
 10 11  2  0  0  0  0
 10 47  1  0  0  0  0
 11 12  1  0  0  0  0
 11 48  1  0  0  0  0
 12 13  2  0  0  0  0
 12 17  1  0  0  0  0
 13 14  1  0  0  0  0
 14 15  1  0  0  0  0
 14 16  1  0  0  0  0
 16 17  2  0  0  0  0
 16 18  1  0  0  0  0
 18 19  2  0  0  0  0
 18 23  1  0  0  0  0
 19 20  1  0  0  0  0
 20 21  1  0  0  0  0
 20 22  1  0  0  0  0
 22 23  2  0  0  0  0
 22 27  1  0  0  0  0
 23 24  1  0  0  0  0
 24 25  2  0  0  0  0
 24 49  1  0  0  0  0
 25 26  1  0  0  0  0
 25 50  1  0  0  0  0
 26 27  2  0  0  0  0
 26 28  1  0  0  0  0
 27 51  1  0  0  0  0
 28 29  2  0  0  0  0
 28 33  1  0  0  0  0
 29 30  1  0  0  0  0
 29 52  1  0  0  0  0
 30 31  2  0  0  0  0
 30 53  1  0  0  0  0
 31 32  1  0  0  0  0
 31 34  1  0  0  0  0
 32 33  2  0  0  0  0
 32 54  1  0  0  0  0
 33 55  1  0  0  0  0
 34 56  1  0  0  0  0
 34 57  1  0  0  0  0
M  END
$$$$
