F10
 OpenBabel04121316113D

 37 40  0  0  0  0  0  0  0  0999 V2000
    0.9884    0.2773    0.1283 F   0  0  0  0  0  0  0  0  0  0  0  0
    2.3227    0.1728    0.0287 C   0  0  0  0  0  0  0  0  0  0  0  0
    3.0190    1.3750   -0.0160 C   0  0  0  0  0  0  0  0  0  0  0  0
    4.3855    1.3673   -0.2454 C   0  0  0  0  0  0  0  0  0  0  0  0
    5.0622    0.1524   -0.3119 C   0  0  0  0  0  0  0  0  0  0  0  0
    4.3680   -1.0543   -0.1539 C   0  0  0  0  0  0  0  0  0  0  0  0
    2.9648   -1.0790   -0.0479 C   0  0  0  0  0  0  0  0  0  0  0  0
    2.2192   -2.3548   -0.1146 C   0  0  0  0  0  0  0  0  0  0  0  0
    2.9053   -3.5017    0.1260 N   0  0  0  0  0  0  0  0  0  0  0  0
    2.2613   -4.6754   -0.0738 C   0  0  0  0  0  0  0  0  0  0  0  0
    0.9930   -4.7752   -0.6007 C   0  0  0  0  0  0  0  0  0  0  0  0
    0.2931   -3.6043   -0.8416 C   0  0  0  0  0  0  0  0  0  0  0  0
    0.8935   -2.3944   -0.5248 C   0  0  0  0  0  0  0  0  0  0  0  0
   -1.0258   -3.6451   -1.4498 C   0  0  0  0  0  0  0  0  0  0  0  0
   -1.7812   -4.7419   -1.8255 C   0  0  0  0  0  0  0  0  0  0  0  0
   -2.9786   -4.2766   -2.3938 C   0  0  0  0  0  0  0  0  0  0  0  0
   -2.9219   -2.9041   -2.3629 C   0  0  0  0  0  0  0  0  0  0  0  0
   -1.7395   -2.5218   -1.8120 N   0  0  0  0  0  0  0  0  0  0  0  0
   -1.4437   -1.5616   -1.6893 H   0  0  0  0  0  0  0  0  0  0  0  0
   -3.9652   -1.9812   -2.8296 C   0  0  0  0  0  0  0  0  0  0  0  0
   -5.1725   -2.7551   -3.3859 C   0  0  0  0  0  0  0  0  0  0  0  0
   -5.1113   -4.2144   -3.4143 N   0  0  0  0  0  0  0  0  0  0  0  0
   -4.1028   -5.0010   -2.9246 C   0  0  0  0  0  0  0  0  0  0  0  0
   -4.1695   -6.2306   -2.9452 O   0  0  0  0  0  0  0  0  0  0  0  0
    2.4702    2.3021    0.1104 H   0  0  0  0  0  0  0  0  0  0  0  0
    4.9187    2.3053   -0.3647 H   0  0  0  0  0  0  0  0  0  0  0  0
    6.1344    0.1406   -0.4908 H   0  0  0  0  0  0  0  0  0  0  0  0
    4.9319   -1.9871   -0.1507 H   0  0  0  0  0  0  0  0  0  0  0  0
    2.8005   -5.5744    0.2063 H   0  0  0  0  0  0  0  0  0  0  0  0
    0.5617   -5.7467   -0.8087 H   0  0  0  0  0  0  0  0  0  0  0  0
    0.3308   -1.4836   -0.6483 H   0  0  0  0  0  0  0  0  0  0  0  0
   -1.5052   -5.7803   -1.7045 H   0  0  0  0  0  0  0  0  0  0  0  0
   -3.5613   -1.3115   -3.5976 H   0  0  0  0  0  0  0  0  0  0  0  0
   -4.2916   -1.3540   -1.9917 H   0  0  0  0  0  0  0  0  0  0  0  0
   -5.3631   -2.4330   -4.4142 H   0  0  0  0  0  0  0  0  0  0  0  0
   -6.0559   -2.4996   -2.7932 H   0  0  0  0  0  0  0  0  0  0  0  0
   -5.9041   -4.7346   -3.7618 H   0  0  0  0  0  0  0  0  0  0  0  0
  1  2  1  0  0  0  0
  2  3  2  0  0  0  0
  2  7  1  0  0  0  0
  3  4  1  0  0  0  0
  3 25  1  0  0  0  0
  4  5  2  0  0  0  0
  4 26  1  0  0  0  0
  5  6  1  0  0  0  0
  5 27  1  0  0  0  0
  6  7  2  0  0  0  0
  6 28  1  0  0  0  0
  7  8  1  0  0  0  0
  8  9  2  0  0  0  0
  8 13  1  0  0  0  0
  9 10  1  0  0  0  0
 10 11  2  0  0  0  0
 10 29  1  0  0  0  0
 11 12  1  0  0  0  0
 11 30  1  0  0  0  0
 12 13  2  0  0  0  0
 12 14  1  0  0  0  0
 13 31  1  0  0  0  0
 14 15  2  0  0  0  0
 14 18  1  0  0  0  0
 15 16  1  0  0  0  0
 15 32  1  0  0  0  0
 16 17  2  0  0  0  0
 16 23  1  0  0  0  0
 17 18  1  0  0  0  0
 17 20  1  0  0  0  0
 18 19  1  0  0  0  0
 20 21  1  0  0  0  0
 20 33  1  0  0  0  0
 20 34  1  0  0  0  0
 21 22  1  0  0  0  0
 21 35  1  0  0  0  0
 21 36  1  0  0  0  0
 22 23  1  0  0  0  0
 22 37  1  0  0  0  0
 23 24  2  0  0  0  0
M  END
$$$$
