F11
 OpenBabel04121316113D

 71 76  0  0  0  0  0  0  0  0999 V2000
    1.0990    0.0195    0.0380 C   0  0  0  0  0  0  0  0  0  0  0  0
    0.6007    0.3376   -1.3526 C   0  0  0  0  0  0  0  0  0  0  0  0
   -0.9095    0.3821   -1.3459 C   0  0  0  0  0  0  0  0  0  0  0  0
   -1.3403    0.4954   -2.7217 N   0  0  0  0  0  0  0  0  0  0  0  0
   -2.7156    0.6295   -2.9217 C   0  0  0  0  0  0  0  0  0  0  0  0
   -3.4497   -0.5480   -3.0334 C   0  0  0  0  0  0  0  0  0  0  0  0
   -2.7230   -1.8677   -2.9672 C   0  0  0  0  0  0  0  0  0  0  0  0
   -3.6541   -3.0237   -2.6917 C   0  0  0  0  0  0  0  0  0  0  0  0
   -4.7805   -2.9651   -3.7064 C   0  0  0  0  0  0  0  0  0  0  0  0
   -5.6345   -1.7148   -3.4553 C   0  0  0  0  0  0  0  0  0  0  0  0
   -4.8110   -0.4526   -3.3107 C   0  0  0  0  0  0  0  0  0  0  0  0
   -5.4555    0.7417   -3.4220 N   0  0  0  0  0  0  0  0  0  0  0  0
   -4.7424    1.8851   -3.2936 C   0  0  0  0  0  0  0  0  0  0  0  0
   -3.3517    1.8729   -3.0429 C   0  0  0  0  0  0  0  0  0  0  0  0
   -2.6391    3.0819   -2.9190 C   0  0  0  0  0  0  0  0  0  0  0  0
   -3.2736    4.3081   -3.0427 C   0  0  0  0  0  0  0  0  0  0  0  0
   -4.6391    4.3361   -3.2893 C   0  0  0  0  0  0  0  0  0  0  0  0
   -5.3543    3.1342   -3.4098 C   0  0  0  0  0  0  0  0  0  0  0  0
    2.6096    0.0154    0.0336 C   0  0  0  0  0  0  0  0  0  0  0  0
    3.1153   -0.2826    1.4252 C   0  0  0  0  0  0  0  0  0  0  0  0
    4.5533   -0.3772    1.3518 N   0  0  0  0  0  0  0  0  0  0  0  0
    5.2159   -0.5820    2.5615 C   0  0  0  0  0  0  0  0  0  0  0  0
    5.7582    0.4878    3.2691 C   0  0  0  0  0  0  0  0  0  0  0  0
    5.6334    1.8846    2.7218 C   0  0  0  0  0  0  0  0  0  0  0  0
    5.8976    2.9512    3.7696 C   0  0  0  0  0  0  0  0  0  0  0  0
    7.2055    2.6274    4.4762 C   0  0  0  0  0  0  0  0  0  0  0  0
    7.0482    1.3275    5.2729 C   0  0  0  0  0  0  0  0  0  0  0  0
    6.4442    0.2045    4.4551 C   0  0  0  0  0  0  0  0  0  0  0  0
    6.5586   -1.0583    4.9524 N   0  0  0  0  0  0  0  0  0  0  0  0
    6.0212   -2.0893    4.2601 C   0  0  0  0  0  0  0  0  0  0  0  0
    5.3419   -1.8862    3.0421 C   0  0  0  0  0  0  0  0  0  0  0  0
    4.8149   -2.9726    2.3174 C   0  0  0  0  0  0  0  0  0  0  0  0
    4.9110   -4.2662    2.7807 C   0  0  0  0  0  0  0  0  0  0  0  0
    5.5666   -4.4875    3.9822 C   0  0  0  0  0  0  0  0  0  0  0  0
    6.1122   -3.4080    4.6990 C   0  0  0  0  0  0  0  0  0  0  0  0
    0.7222   -0.9606    0.3583 H   0  0  0  0  0  0  0  0  0  0  0  0
    0.7233    0.7613    0.7524 H   0  0  0  0  0  0  0  0  0  0  0  0
    0.9560   -0.4243   -2.0599 H   0  0  0  0  0  0  0  0  0  0  0  0
    0.9962    1.3012   -1.6958 H   0  0  0  0  0  0  0  0  0  0  0  0
   -1.2742    1.1995   -0.7129 H   0  0  0  0  0  0  0  0  0  0  0  0
   -1.2837   -0.5440   -0.8953 H   0  0  0  0  0  0  0  0  0  0  0  0
   -0.7398    0.9441   -3.4026 H   0  0  0  0  0  0  0  0  0  0  0  0
   -1.9759   -1.8863   -2.1738 H   0  0  0  0  0  0  0  0  0  0  0  0
   -2.1854   -2.0116   -3.9133 H   0  0  0  0  0  0  0  0  0  0  0  0
   -4.0486   -2.9462   -1.6698 H   0  0  0  0  0  0  0  0  0  0  0  0
   -3.0923   -3.9605   -2.7566 H   0  0  0  0  0  0  0  0  0  0  0  0
   -5.3878   -3.8713   -3.6399 H   0  0  0  0  0  0  0  0  0  0  0  0
   -4.3527   -2.9283   -4.7177 H   0  0  0  0  0  0  0  0  0  0  0  0
   -6.2017   -1.8538   -2.5269 H   0  0  0  0  0  0  0  0  0  0  0  0
   -6.3523   -1.6011   -4.2740 H   0  0  0  0  0  0  0  0  0  0  0  0
   -1.5711    3.0636   -2.7146 H   0  0  0  0  0  0  0  0  0  0  0  0
   -2.7011    5.2257   -2.9441 H   0  0  0  0  0  0  0  0  0  0  0  0
   -5.1472    5.2915   -3.3869 H   0  0  0  0  0  0  0  0  0  0  0  0
   -6.4253    3.1801   -3.6028 H   0  0  0  0  0  0  0  0  0  0  0  0
    2.9934    0.9864   -0.3028 H   0  0  0  0  0  0  0  0  0  0  0  0
    2.9837   -0.7382   -0.6721 H   0  0  0  0  0  0  0  0  0  0  0  0
    2.6879   -1.2324    1.7700 H   0  0  0  0  0  0  0  0  0  0  0  0
    2.7815    0.4915    2.1276 H   0  0  0  0  0  0  0  0  0  0  0  0
    5.0719    0.0291    0.5845 H   0  0  0  0  0  0  0  0  0  0  0  0
    4.6287    2.0523    2.3187 H   0  0  0  0  0  0  0  0  0  0  0  0
    6.3454    1.9902    1.8932 H   0  0  0  0  0  0  0  0  0  0  0  0
    5.0725    2.9735    4.4937 H   0  0  0  0  0  0  0  0  0  0  0  0
    5.9365    3.9345    3.2898 H   0  0  0  0  0  0  0  0  0  0  0  0
    7.4915    3.4521    5.1363 H   0  0  0  0  0  0  0  0  0  0  0  0
    8.0044    2.5142    3.7312 H   0  0  0  0  0  0  0  0  0  0  0  0
    6.3928    1.5145    6.1331 H   0  0  0  0  0  0  0  0  0  0  0  0
    8.0261    1.0237    5.6635 H   0  0  0  0  0  0  0  0  0  0  0  0
    4.3157   -2.8003    1.3634 H   0  0  0  0  0  0  0  0  0  0  0  0
    4.4810   -5.0766    2.2019 H   0  0  0  0  0  0  0  0  0  0  0  0
    5.6579   -5.5016    4.3554 H   0  0  0  0  0  0  0  0  0  0  0  0
    6.6303   -3.6110    5.6350 H   0  0  0  0  0  0  0  0  0  0  0  0
  1  2  1  0  0  0  0
  1 19  1  0  0  0  0
  1 36  1  0  0  0  0
  1 37  1  0  0  0  0
  2  3  1  0  0  0  0
  2 38  1  0  0  0  0
  2 39  1  0  0  0  0
  3  4  1  0  0  0  0
  3 40  1  0  0  0  0
  3 41  1  0  0  0  0
  4  5  1  0  0  0  0
  4 42  1  0  0  0  0
  5  6  2  0  0  0  0
  5 14  1  0  0  0  0
  6  7  1  0  0  0  0
  6 11  1  0  0  0  0
  7  8  1  0  0  0  0
  7 43  1  0  0  0  0
  7 44  1  0  0  0  0
  8  9  1  0  0  0  0
  8 45  1  0  0  0  0
  8 46  1  0  0  0  0
  9 10  1  0  0  0  0
  9 47  1  0  0  0  0
  9 48  1  0  0  0  0
 10 11  1  0  0  0  0
 10 49  1  0  0  0  0
 10 50  1  0  0  0  0
 11 12  2  0  0  0  0
 12 13  1  0  0  0  0
 13 14  2  0  0  0  0
 13 18  1  0  0  0  0
 14 15  1  0  0  0  0
 15 16  2  0  0  0  0
 15 51  1  0  0  0  0
 16 17  1  0  0  0  0
 16 52  1  0  0  0  0
 17 18  2  0  0  0  0
 17 53  1  0  0  0  0
 18 54  1  0  0  0  0
 19 20  1  0  0  0  0
 19 55  1  0  0  0  0
 19 56  1  0  0  0  0
 20 21  1  0  0  0  0
 20 57  1  0  0  0  0
 20 58  1  0  0  0  0
 21 22  1  0  0  0  0
 21 59  1  0  0  0  0
 22 23  2  0  0  0  0
 22 31  1  0  0  0  0
 23 24  1  0  0  0  0
 23 28  1  0  0  0  0
 24 25  1  0  0  0  0
 24 60  1  0  0  0  0
 24 61  1  0  0  0  0
 25 26  1  0  0  0  0
 25 62  1  0  0  0  0
 25 63  1  0  0  0  0
 26 27  1  0  0  0  0
 26 64  1  0  0  0  0
 26 65  1  0  0  0  0
 27 28  1  0  0  0  0
 27 66  1  0  0  0  0
 27 67  1  0  0  0  0
 28 29  2  0  0  0  0
 29 30  1  0  0  0  0
 30 31  2  0  0  0  0
 30 35  1  0  0  0  0
 31 32  1  0  0  0  0
 32 33  2  0  0  0  0
 32 68  1  0  0  0  0
 33 34  1  0  0  0  0
 33 69  1  0  0  0  0
 34 35  2  0  0  0  0
 34 70  1  0  0  0  0
 35 71  1  0  0  0  0
M  END
$$$$
