F1P
 OpenBabel04121316113D

 29 29  0  0  1  0  0  0  0  0999 V2000
    2.9333    0.3540    1.4380 O   0  0  0  0  0  0  0  0  0  0  0  0
    2.4196    0.0658    0.1385 C   0  0  2  0  0  0  0  0  0  0  0  0
    1.3270    0.0752    0.2010 H   0  0  0  0  0  0  0  0  0  0  0  0
    2.8629   -1.3337   -0.2983 C   0  0  0  0  0  0  0  0  0  0  0  0
    2.4424   -1.6313   -1.6345 O   0  0  0  0  0  0  0  0  0  0  0  0
    2.9492   -0.7195   -2.6181 C   0  0  2  0  0  0  0  0  0  0  0  0
    2.4623    0.7167   -2.3045 C   0  0  2  0  0  0  0  0  0  0  0  0
    2.8598    1.4213   -3.0430 H   0  0  0  0  0  0  0  0  0  0  0  0
    2.8585    1.1411   -0.8743 C   0  0  2  0  0  0  0  0  0  0  0  0
    2.3808    2.0920   -0.6163 H   0  0  0  0  0  0  0  0  0  0  0  0
    4.2668    1.3538   -0.7129 O   0  0  0  0  0  0  0  0  0  0  0  0
    1.0250    0.7619   -2.4392 O   0  0  0  0  0  0  0  0  0  0  0  0
    2.4402   -1.1501   -3.8852 O   0  0  0  0  0  0  0  0  0  0  0  0
    4.4663   -0.7961   -2.7184 C   0  0  0  0  0  0  0  0  0  0  0  0
    5.0129    0.2027   -3.6101 O   0  0  0  0  0  0  0  0  0  0  0  0
    6.7428    0.1987   -3.5944 P   0  0  0  0  0  0  0  0  0  0  0  0
    6.8204    0.1496   -2.0747 O   0  0  0  0  0  0  0  0  0  0  0  0
    6.7112   -1.3039   -4.2204 O   0  0  0  0  0  0  0  0  0  0  0  0
    8.4727    0.1947   -3.5788 O   0  0  0  0  0  0  0  0  0  0  0  0
    3.8883    0.5289    1.3151 H   0  0  0  0  0  0  0  0  0  0  0  0
    2.4193   -2.0834    0.3651 H   0  0  0  0  0  0  0  0  0  0  0  0
    3.9433   -1.4759   -0.1784 H   0  0  0  0  0  0  0  0  0  0  0  0
    4.6036    1.8774   -1.4582 H   0  0  0  0  0  0  0  0  0  0  0  0
    0.6564    0.0369   -1.9018 H   0  0  0  0  0  0  0  0  0  0  0  0
    1.5014   -0.9027   -3.8870 H   0  0  0  0  0  0  0  0  0  0  0  0
    4.7655   -1.7972   -3.0454 H   0  0  0  0  0  0  0  0  0  0  0  0
    4.8931   -0.6683   -1.7289 H   0  0  0  0  0  0  0  0  0  0  0  0
    6.0573   -1.3602   -4.9249 H   0  0  0  0  0  0  0  0  0  0  0  0
    8.7559    0.8864   -2.9539 H   0  0  0  0  0  0  0  0  0  0  0  0
  1 20  1  0  0  0  0
  2  4  1  0  0  0  0
  2  9  1  0  0  0  0
  2  3  1  1  0  0  0
  2  1  1  0  0  0  0
  4  5  1  0  0  0  0
  4 21  1  0  0  0  0
  4 22  1  0  0  0  0
  5  6  1  0  0  0  0
  6  7  1  0  0  0  0
  6 13  1  6  0  0  0
  6 14  1  0  0  0  0
  7  9  1  0  0  0  0
  7 12  1  0  0  0  0
  7  8  1  6  0  0  0
  9 10  1  1  0  0  0
  9 11  1  0  0  0  0
 11 23  1  0  0  0  0
 12 24  1  0  0  0  0
 13 25  1  0  0  0  0
 14 15  1  0  0  0  0
 14 26  1  0  0  0  0
 14 27  1  0  0  0  0
 15 16  1  0  0  0  0
 16 17  2  0  0  0  0
 16 18  1  0  0  0  0
 16 19  1  0  0  0  0
 18 28  1  0  0  0  0
 19 29  1  0  0  0  0
M  END
$$$$
