F2N
 OpenBabel04121316113D

106112  0  0  1  0  0  0  0  0999 V2000
    5.9398    2.8844   10.5191 O   0  0  0  0  0  0  0  0  0  0  0  0
    5.9424    2.5180    9.3532 C   0  0  0  0  0  0  0  0  0  0  0  0
    5.9527    3.3894    8.3531 N   0  0  0  0  0  0  0  0  0  0  0  0
    5.9575    4.3866    8.5015 H   0  0  0  0  0  0  0  0  0  0  0  0
    5.9536    3.0267    7.0776 C   0  0  0  0  0  0  0  0  0  0  0  0
    5.9869    4.0570    6.4131 O   0  0  0  0  0  0  0  0  0  0  0  0
    5.9001    1.6076    6.6079 C   0  0  0  0  0  0  0  0  0  0  0  0
    5.8584    0.7349    7.6565 C   0  0  0  0  0  0  0  0  0  0  0  0
    5.9217    1.2197    8.9661 N   0  0  0  0  0  0  0  0  0  0  0  0
    5.9062    0.6026    9.7621 H   0  0  0  0  0  0  0  0  0  0  0  0
    5.7359   -0.6608    7.4451 N   0  0  0  0  0  0  0  0  0  0  0  0
    5.9079   -1.5287    8.6506 C   0  0  0  0  0  0  0  0  0  0  0  0
    6.0890   -3.0007    8.4246 C   0  0  1  0  0  0  0  0  0  0  0  0
    5.1436   -3.3193    8.0014 H   0  0  0  0  0  0  0  0  0  0  0  0
    7.4310   -3.3105    7.6608 C   0  0  1  0  0  0  0  0  0  0  0  0
    8.2214   -3.2838    8.4079 H   0  0  0  0  0  0  0  0  0  0  0  0
    7.3529   -4.7384    7.0885 C   0  0  1  0  0  0  0  0  0  0  0  0
    6.4216   -4.8842    6.5532 H   0  0  0  0  0  0  0  0  0  0  0  0
    8.5237   -5.0704    6.1754 C   0  0  0  0  0  0  0  0  0  0  0  0
    8.5603   -4.3272    4.9735 O   0  0  0  0  0  0  0  0  0  0  0  0
    9.8131   -4.3637    3.9239 P   0  0  2  0  0  0  0  0  0  0  0  0
    8.9221   -4.4610    2.6664 O   0  0  0  0  0  0  0  0  0  0  0  0
   10.1042   -5.9198    3.7171 O   0  0  0  0  0  0  0  0  0  0  0  0
    9.9713   -6.8204    2.3682 P   0  0  1  0  0  0  0  0  0  0  0  0
   11.2227   -6.8580    1.5492 O   0  0  0  0  0  0  0  0  0  0  0  0
    9.5786   -8.2463    3.0137 O   0  0  0  0  0  0  0  0  0  0  0  0
    9.8139   -8.2208    4.4030 C   0  0  0  0  0  0  0  0  0  0  0  0
    9.4364   -9.4470    5.1601 C   0  0  1  0  0  0  0  0  0  0  0  0
    8.5620   -9.2275    5.7904 H   0  0  0  0  0  0  0  0  0  0  0  0
    9.1366  -10.5457    4.2956 O   0  0  0  0  0  0  0  0  0  0  0  0
    9.4253  -11.7072    5.0756 C   0  0  2  0  0  0  0  0  0  0  0  0
    8.5370  -11.9332    5.6801 H   0  0  0  0  0  0  0  0  0  0  0  0
   10.6165  -11.3285    5.9640 C   0  0  1  0  0  0  0  0  0  0  0  0
   11.5735  -11.5539    5.5005 H   0  0  0  0  0  0  0  0  0  0  0  0
   10.6287   -9.8253    6.0151 C   0  0  2  0  0  0  0  0  0  0  0  0
   11.5676   -9.4852    5.5556 H   0  0  0  0  0  0  0  0  0  0  0  0
   10.6014   -9.2658    7.3141 O   0  0  0  0  0  0  0  0  0  0  0  0
   10.5718  -11.9280    7.2491 O   0  0  0  0  0  0  0  0  0  0  0  0
    9.6337  -12.8424    4.1976 N   0  0  0  0  0  0  0  0  0  0  0  0
    8.6801  -13.3937    3.3771 C   0  0  0  0  0  0  0  0  0  0  0  0
    9.1207  -14.4740    2.7639 N   0  0  0  0  0  0  0  0  0  0  0  0
   10.4176  -14.6302    3.2071 C   0  0  0  0  0  0  0  0  0  0  0  0
   10.7423  -13.6479    4.1218 C   0  0  0  0  0  0  0  0  0  0  0  0
   11.9028  -13.5370    4.7885 N   0  0  0  0  0  0  0  0  0  0  0  0
   12.7932  -14.4692    4.4215 C   0  0  0  0  0  0  0  0  0  0  0  0
   12.6175  -15.4685    3.5416 N   0  0  0  0  0  0  0  0  0  0  0  0
   11.4170  -15.5771    2.9265 C   0  0  0  0  0  0  0  0  0  0  0  0
   11.2264  -16.6203    2.0539 N   0  0  0  0  0  0  0  0  0  0  0  0
    8.6823   -6.6051    1.4270 O   0  0  0  0  0  0  0  0  0  0  0  0
   10.8112   -4.2548    5.3327 O   0  0  0  0  0  0  0  0  0  0  0  0
    7.2774   -5.7084    8.1330 O   0  0  0  0  0  0  0  0  0  0  0  0
    7.9230   -2.4081    6.6621 O   0  0  0  0  0  0  0  0  0  0  0  0
    6.0316   -3.7753    9.6328 O   0  0  0  0  0  0  0  0  0  0  0  0
    5.5525   -1.1490    6.1063 C   0  0  0  0  0  0  0  0  0  0  0  0
    5.7602   -0.2886    5.0245 C   0  0  0  0  0  0  0  0  0  0  0  0
    5.8838    1.1439    5.2413 N   0  0  0  0  0  0  0  0  0  0  0  0
    5.9314    1.9300    4.0557 C   0  0  0  0  0  0  0  0  0  0  0  0
    5.9234    1.5550    2.8815 O   0  0  0  0  0  0  0  0  0  0  0  0
    5.9499    3.3794    4.1823 C   0  0  0  0  0  0  0  0  0  0  0  0
    5.9538    4.1526    2.8984 C   0  0  0  0  0  0  0  0  0  0  0  0
    5.9352    5.6309    3.1816 C   0  0  0  0  0  0  0  0  0  0  0  0
    5.7198    6.1926    4.4497 C   0  0  0  0  0  0  0  0  0  0  0  0
    5.5050    7.5394    4.6558 C   0  0  0  0  0  0  0  0  0  0  0  0
    5.6502    8.3850    3.5815 C   0  0  0  0  0  0  0  0  0  0  0  0
    6.0169    7.8697    2.3351 C   0  0  0  0  0  0  0  0  0  0  0  0
    6.0954    6.4969    2.1178 C   0  0  0  0  0  0  0  0  0  0  0  0
    5.8746   -0.8668    3.7379 C   0  0  0  0  0  0  0  0  0  0  0  0
    5.8201   -2.2210    3.4578 C   0  0  0  0  0  0  0  0  0  0  0  0
    5.5865   -3.0819    4.4768 C   0  0  0  0  0  0  0  0  0  0  0  0
    5.3501   -2.5072    5.7293 C   0  0  0  0  0  0  0  0  0  0  0  0
    5.6479   -4.5730    4.2738 C   0  0  0  0  0  0  0  0  0  0  0  0
    5.9363   -2.7166    2.0637 C   0  0  0  0  0  0  0  0  0  0  0  0
    5.0424   -1.3716    9.3089 H   0  0  0  0  0  0  0  0  0  0  0  0
    6.7853   -1.2125    9.2377 H   0  0  0  0  0  0  0  0  0  0  0  0
    8.4181   -6.1070    5.8930 H   0  0  0  0  0  0  0  0  0  0  0  0
    9.4244   -4.9453    6.7718 H   0  0  0  0  0  0  0  0  0  0  0  0
    9.2284   -7.4352    4.8687 H   0  0  0  0  0  0  0  0  0  0  0  0
   10.8677   -7.9446    4.5303 H   0  0  0  0  0  0  0  0  0  0  0  0
   11.2537   -9.7799    7.8296 H   0  0  0  0  0  0  0  0  0  0  0  0
   10.5830  -12.8915    7.0940 H   0  0  0  0  0  0  0  0  0  0  0  0
    7.6856  -12.9758    3.2709 H   0  0  0  0  0  0  0  0  0  0  0  0
   13.7695  -14.4047    4.8941 H   0  0  0  0  0  0  0  0  0  0  0  0
   11.9963  -17.2429    1.8738 H   0  0  0  0  0  0  0  0  0  0  0  0
   10.3412  -16.6898    1.5736 H   0  0  0  0  0  0  0  0  0  0  0  0
    8.9265   -6.6235    0.4777 H   0  0  0  0  0  0  0  0  0  0  0  0
   11.7503   -4.2467    5.0744 H   0  0  0  0  0  0  0  0  0  0  0  0
    6.5165   -5.4407    8.6839 H   0  0  0  0  0  0  0  0  0  0  0  0
    7.6254   -1.4937    6.7864 H   0  0  0  0  0  0  0  0  0  0  0  0
    5.1164   -3.7105    9.9691 H   0  0  0  0  0  0  0  0  0  0  0  0
    6.9024    3.6075    4.6695 H   0  0  0  0  0  0  0  0  0  0  0  0
    4.9940    3.6041    4.6693 H   0  0  0  0  0  0  0  0  0  0  0  0
    5.0639    3.8789    2.3169 H   0  0  0  0  0  0  0  0  0  0  0  0
    6.8415    3.8763    2.3168 H   0  0  0  0  0  0  0  0  0  0  0  0
    5.6940    5.6164    5.3475 H   0  0  0  0  0  0  0  0  0  0  0  0
    5.2420    7.8892    5.6502 H   0  0  0  0  0  0  0  0  0  0  0  0
    5.4910    9.4453    3.7239 H   0  0  0  0  0  0  0  0  0  0  0  0
    6.2323    8.5432    1.5168 H   0  0  0  0  0  0  0  0  0  0  0  0
    6.2812    6.0940    1.1268 H   0  0  0  0  0  0  0  0  0  0  0  0
    6.0515   -0.3120    2.8366 H   0  0  0  0  0  0  0  0  0  0  0  0
    5.1077   -3.3013    6.3858 H   0  0  0  0  0  0  0  0  0  0  0  0
    5.6474   -4.8759    3.2295 H   0  0  0  0  0  0  0  0  0  0  0  0
    4.8361   -5.0683    4.8032 H   0  0  0  0  0  0  0  0  0  0  0  0
    6.5736   -5.0105    4.6238 H   0  0  0  0  0  0  0  0  0  0  0  0
    5.9582   -1.8978    1.3466 H   0  0  0  0  0  0  0  0  0  0  0  0
    5.0460   -3.3192    1.8622 H   0  0  0  0  0  0  0  0  0  0  0  0
    6.8388   -3.3178    1.9575 H   0  0  0  0  0  0  0  0  0  0  0  0
  1  2  2  0  0  0  0
  2  3  1  0  0  0  0
  2  9  1  0  0  0  0
  3  4  1  0  0  0  0
  3  5  1  0  0  0  0
  5  6  2  0  0  0  0
  5  7  1  0  0  0  0
  7  8  2  0  0  0  0
  7 56  1  0  0  0  0
  8  9  1  0  0  0  0
  8 11  1  0  0  0  0
  9 10  1  0  0  0  0
 11 12  1  0  0  0  0
 11 54  1  0  0  0  0
 12 13  1  0  0  0  0
 12 73  1  0  0  0  0
 12 74  1  0  0  0  0
 13 14  1  6  0  0  0
 13 15  1  0  0  0  0
 13 53  1  0  0  0  0
 15 16  1  1  0  0  0
 15 17  1  0  0  0  0
 15 52  1  0  0  0  0
 17 18  1  6  0  0  0
 17 19  1  0  0  0  0
 17 51  1  0  0  0  0
 19 20  1  0  0  0  0
 19 75  1  0  0  0  0
 19 76  1  0  0  0  0
 21 23  1  1  0  0  0
 21 50  1  0  0  0  0
 21 22  2  0  0  0  0
 21 20  1  0  0  0  0
 24 23  1  1  0  0  0
 24 25  2  0  0  0  0
 24 26  1  0  0  0  0
 24 49  1  0  0  0  0
 26 27  1  0  0  0  0
 27 28  1  0  0  0  0
 27 77  1  0  0  0  0
 27 78  1  0  0  0  0
 28 29  1  1  0  0  0
 28 30  1  0  0  0  0
 28 35  1  0  0  0  0
 30 31  1  0  0  0  0
 31 33  1  0  0  0  0
 31 39  1  0  0  0  0
 31 32  1  1  0  0  0
 33 34  1  6  0  0  0
 33 35  1  0  0  0  0
 33 38  1  0  0  0  0
 35 36  1  6  0  0  0
 35 37  1  0  0  0  0
 37 79  1  0  0  0  0
 38 80  1  0  0  0  0
 39 40  1  0  0  0  0
 39 43  1  0  0  0  0
 40 41  2  0  0  0  0
 40 81  1  0  0  0  0
 41 42  1  0  0  0  0
 42 43  2  0  0  0  0
 42 47  1  0  0  0  0
 43 44  1  0  0  0  0
 44 45  2  0  0  0  0
 45 46  1  0  0  0  0
 45 82  1  0  0  0  0
 46 47  2  0  0  0  0
 47 48  1  0  0  0  0
 48 83  1  0  0  0  0
 48 84  1  0  0  0  0
 49 85  1  0  0  0  0
 50 86  1  0  0  0  0
 51 87  1  0  0  0  0
 52 88  1  0  0  0  0
 53 89  1  0  0  0  0
 54 55  2  0  0  0  0
 54 70  1  0  0  0  0
 55 56  1  0  0  0  0
 55 67  1  0  0  0  0
 56 57  1  0  0  0  0
 57 58  2  0  0  0  0
 57 59  1  0  0  0  0
 59 60  1  0  0  0  0
 59 90  1  0  0  0  0
 59 91  1  0  0  0  0
 60 61  1  0  0  0  0
 60 92  1  0  0  0  0
 60 93  1  0  0  0  0
 61 62  2  0  0  0  0
 61 66  1  0  0  0  0
 62 63  1  0  0  0  0
 62 94  1  0  0  0  0
 63 64  2  0  0  0  0
 63 95  1  0  0  0  0
 64 65  1  0  0  0  0
 64 96  1  0  0  0  0
 65 66  2  0  0  0  0
 65 97  1  0  0  0  0
 66 98  1  0  0  0  0
 67 68  2  0  0  0  0
 67 99  1  0  0  0  0
 68 69  1  0  0  0  0
 68 72  1  0  0  0  0
 69 70  2  0  0  0  0
 69 71  1  0  0  0  0
 70100  1  0  0  0  0
 71101  1  0  0  0  0
 71102  1  0  0  0  0
 71103  1  0  0  0  0
 72104  1  0  0  0  0
 72105  1  0  0  0  0
 72106  1  0  0  0  0
M  END
$$$$
