F3S
 OpenBabel04121316113D

  7  9  0  0  0  0  0  0  0  0999 V2000
    0.8630   -1.2470    0.2700 S   0  0  0  0  0  0  0  0  0  0  0  0
    1.6210   -0.0000   -0.2080 Fe  0  0  0  0  0  0  0  0  0  0  0  0
    0.8640    1.2470    0.2700 S   0  0  0  0  0  0  0  0  0  0  0  0
   -0.6310    1.0480   -0.0390 Fe  0  0  0  0  0  0  0  0  0  0  0  0
   -1.2590   -0.0000    0.8990 S   0  0  0  0  0  0  0  0  0  0  0  0
   -0.6310   -1.0480   -0.0390 Fe  0  0  0  0  0  0  0  0  0  0  0  0
   -0.8260   -0.0000   -1.1540 S   0  0  0  0  0  0  0  0  0  0  0  0
  1  2  1  0  0  0  0
  1  6  1  0  0  0  0
  2  3  1  0  0  0  0
  2  5  1  0  0  0  0
  3  4  1  0  0  0  0
  4  5  1  0  0  0  0
  4  7  1  0  0  0  0
  5  6  1  0  0  0  0
  6  7  1  0  0  0  0
M  END
$$$$
