F42
 OpenBabel04121316113D

 89 91  0  0  1  0  0  0  0  0999 V2000
   14.5474    9.3794   13.3754 O   0  0  0  0  0  0  0  0  0  0  0  0
   13.8842    8.7769   14.2133 C   0  0  0  0  0  0  0  0  0  0  0  0
   12.7658    9.2584   14.8425 N   0  0  0  0  0  0  0  0  0  0  0  0
   12.2161   10.3415   14.0959 C   0  0  2  0  0  0  0  0  0  0  0  0
   13.0645   11.0158   13.9345 H   0  0  0  0  0  0  0  0  0  0  0  0
   11.2200   11.1663   14.8818 C   0  0  0  0  0  0  0  0  0  0  0  0
   10.2011   11.6362   14.4015 O   0  0  0  0  0  0  0  0  0  0  0  0
   11.6099   11.4282   16.1537 O   0  0  0  0  0  0  0  0  0  0  0  0
   11.7141    9.8311   12.7429 C   0  0  0  0  0  0  0  0  0  0  0  0
   10.4421    8.9886   12.8269 C   0  0  0  0  0  0  0  0  0  0  0  0
    9.9899    8.6382   11.4322 C   0  0  0  0  0  0  0  0  0  0  0  0
   10.6104    8.9068   10.4148 O   0  0  0  0  0  0  0  0  0  0  0  0
    8.8038    7.9968   11.4043 O   0  0  0  0  0  0  0  0  0  0  0  0
   14.3133    7.4564   14.5911 C   0  0  0  0  0  0  0  0  0  0  0  0
   13.5426    6.8636   15.7599 C   0  0  0  0  0  0  0  0  0  0  0  0
   14.3744    5.6918   16.1646 C   0  0  1  0  0  0  0  0  0  0  0  0
   14.5788    5.2836   15.1773 H   0  0  0  0  0  0  0  0  0  0  0  0
   15.7666    6.3071   16.4983 C   0  0  0  0  0  0  0  0  0  0  0  0
   15.9580    6.8805   17.5617 O   0  0  0  0  0  0  0  0  0  0  0  0
   16.7235    6.1888   15.5240 O   0  0  0  0  0  0  0  0  0  0  0  0
   13.4818    4.5458   17.2062 N   0  0  0  0  0  0  0  0  0  0  0  0
   13.5797    2.9865   17.5156 C   0  0  0  0  0  0  0  0  0  0  0  0
   14.1777    2.0968   16.8894 O   0  0  0  0  0  0  0  0  0  0  0  0
   12.7298    2.3262   18.5444 C   0  0  1  0  0  0  0  0  0  0  0  0
   12.6186    2.9071   19.4577 H   0  0  0  0  0  0  0  0  0  0  0  0
   11.6085    2.2137   17.6655 O   0  0  0  0  0  0  0  0  0  0  0  0
   10.8823    3.7491   17.3368 P   0  0  1  0  0  0  0  0  0  0  0  0
   11.6180    4.6036   18.3309 O   0  0  0  0  0  0  0  0  0  0  0  0
   10.6217    3.2805   15.8317 O   0  0  0  0  0  0  0  0  0  0  0  0
   11.0197    1.9472   15.4156 C   0  0  0  0  0  0  0  0  0  0  0  0
   11.2638    1.9373   13.9306 C   0  0  2  0  0  0  0  0  0  0  0  0
   12.1526    1.2971   13.9559 H   0  0  0  0  0  0  0  0  0  0  0  0
   11.4500    3.3380   13.1286 C   0  0  2  0  0  0  0  0  0  0  0  0
   12.1518    3.3296   12.2981 H   0  0  0  0  0  0  0  0  0  0  0  0
   12.0571    4.5092   13.8515 C   0  0  2  0  0  0  0  0  0  0  0  0
   12.6958    5.1734   13.2665 H   0  0  0  0  0  0  0  0  0  0  0  0
   12.9727    3.9629   14.9299 C   0  0  0  0  0  0  0  0  0  0  0  0
   14.4567    3.3907   14.8022 N   0  0  0  0  0  0  0  0  0  0  0  0
   15.6229    3.4176   15.8793 C   0  0  0  0  0  0  0  0  0  0  0  0
   15.7554    3.9986   17.3300 C   0  0  0  0  0  0  0  0  0  0  0  0
   16.7544    4.1187   18.2443 C   0  0  0  0  0  0  0  0  0  0  0  0
   16.5897    4.8648   19.3790 O   0  0  0  0  0  0  0  0  0  0  0  0
   17.8679    3.5958   17.7431 C   0  0  0  0  0  0  0  0  0  0  0  0
   17.8179    2.8269   16.5164 C   0  0  0  0  0  0  0  0  0  0  0  0
   16.7124    2.6569   15.6256 C   0  0  0  0  0  0  0  0  0  0  0  0
   16.6569    1.6200   14.5996 C   0  0  0  0  0  0  0  0  0  0  0  0
   15.5864    1.3544   13.8461 C   0  0  0  0  0  0  0  0  0  0  0  0
   14.5264    2.3446   13.8500 C   0  0  0  0  0  0  0  0  0  0  0  0
   13.6889    2.2565   12.8743 N   0  0  0  0  0  0  0  0  0  0  0  0
   13.4442    1.1388   12.1000 C   0  0  0  0  0  0  0  0  0  0  0  0
   12.4114    0.9666   11.5031 O   0  0  0  0  0  0  0  0  0  0  0  0
   14.3715    0.1497   12.1614 N   0  0  0  0  0  0  0  0  0  0  0  0
   14.2581   -0.5341   11.4293 H   0  0  0  0  0  0  0  0  0  0  0  0
   15.5431    0.3243   12.7961 C   0  0  0  0  0  0  0  0  0  0  0  0
   16.5670   -0.2843   12.4412 O   0  0  0  0  0  0  0  0  0  0  0  0
   10.9838    5.4387   14.2400 O   0  0  0  0  0  0  0  0  0  0  0  0
   10.2835    3.6261   12.3798 O   0  0  0  0  0  0  0  0  0  0  0  0
   10.3122    1.1010   13.2960 O   0  0  0  0  0  0  0  0  0  0  0  0
   10.1562    5.2845   17.0080 O   0  0  0  0  0  0  0  0  0  0  0  0
   13.3267    0.9118   18.8034 C   0  0  0  0  0  0  0  0  0  0  0  0
   12.1343    8.6543   15.3676 H   0  0  0  0  0  0  0  0  0  0  0  0
   12.5137   11.1110   16.3581 H   0  0  0  0  0  0  0  0  0  0  0  0
   12.4690    9.2085   12.2349 H   0  0  0  0  0  0  0  0  0  0  0  0
   11.5826   10.6986   12.0933 H   0  0  0  0  0  0  0  0  0  0  0  0
    9.6456    9.5541   13.3122 H   0  0  0  0  0  0  0  0  0  0  0  0
   10.6186    8.0679   13.3950 H   0  0  0  0  0  0  0  0  0  0  0  0
    8.4263    7.8027   12.2828 H   0  0  0  0  0  0  0  0  0  0  0  0
   15.3393    7.6974   14.8547 H   0  0  0  0  0  0  0  0  0  0  0  0
   14.3493    6.8010   13.7041 H   0  0  0  0  0  0  0  0  0  0  0  0
   12.5476    6.6418   15.3887 H   0  0  0  0  0  0  0  0  0  0  0  0
   13.4119    7.4860   16.6378 H   0  0  0  0  0  0  0  0  0  0  0  0
   16.4568    5.9570   14.6039 H   0  0  0  0  0  0  0  0  0  0  0  0
   12.8583    5.0570   17.8270 H   0  0  0  0  0  0  0  0  0  0  0  0
   10.4405    1.1176   15.8377 H   0  0  0  0  0  0  0  0  0  0  0  0
   12.0272    1.6635   15.8016 H   0  0  0  0  0  0  0  0  0  0  0  0
   12.5689    3.2673   15.5841 H   0  0  0  0  0  0  0  0  0  0  0  0
   12.6944    4.7895   15.5388 H   0  0  0  0  0  0  0  0  0  0  0  0
   15.0457    4.5221   17.9602 H   0  0  0  0  0  0  0  0  0  0  0  0
   15.8981    5.5644   19.2566 H   0  0  0  0  0  0  0  0  0  0  0  0
   18.7754    3.8137   18.2756 H   0  0  0  0  0  0  0  0  0  0  0  0
   18.7331    2.3332   16.2467 H   0  0  0  0  0  0  0  0  0  0  0  0
   17.5334    1.0130   14.4823 H   0  0  0  0  0  0  0  0  0  0  0  0
   10.8689    5.5710   15.2020 H   0  0  0  0  0  0  0  0  0  0  0  0
   10.2824    2.8857   11.7447 H   0  0  0  0  0  0  0  0  0  0  0  0
   10.7285    0.9051   12.4339 H   0  0  0  0  0  0  0  0  0  0  0  0
    9.7311    5.5727   17.8396 H   0  0  0  0  0  0  0  0  0  0  0  0
   14.3649    1.0023   19.1548 H   0  0  0  0  0  0  0  0  0  0  0  0
   13.3682    0.3000   17.8834 H   0  0  0  0  0  0  0  0  0  0  0  0
   12.7511    0.3143   19.5080 H   0  0  0  0  0  0  0  0  0  0  0  0
  1  2  2  0  0  0  0
  2  3  1  0  0  0  0
  2 14  1  0  0  0  0
  3 61  1  0  0  0  0
  4  6  1  0  0  0  0
  4  9  1  0  0  0  0
  4  5  1  6  0  0  0
  4  3  1  0  0  0  0
  6  7  2  0  0  0  0
  6  8  1  0  0  0  0
  8 62  1  0  0  0  0
  9 10  1  0  0  0  0
  9 63  1  0  0  0  0
  9 64  1  0  0  0  0
 10 11  1  0  0  0  0
 10 65  1  0  0  0  0
 10 66  1  0  0  0  0
 11 12  2  0  0  0  0
 11 13  1  0  0  0  0
 13 67  1  0  0  0  0
 14 15  1  0  0  0  0
 14 68  1  0  0  0  0
 14 69  1  0  0  0  0
 15 16  1  0  0  0  0
 15 70  1  0  0  0  0
 15 71  1  0  0  0  0
 16 17  1  6  0  0  0
 16 18  1  0  0  0  0
 16 21  1  0  0  0  0
 18 19  2  0  0  0  0
 18 20  1  0  0  0  0
 20 72  1  0  0  0  0
 21 22  1  0  0  0  0
 21 73  1  0  0  0  0
 22 23  2  0  0  0  0
 22 24  1  0  0  0  0
 24 25  1  1  0  0  0
 24 26  1  0  0  0  0
 24 60  1  0  0  0  0
 27 26  1  1  0  0  0
 27 28  2  0  0  0  0
 27 29  1  0  0  0  0
 27 59  1  0  0  0  0
 29 30  1  0  0  0  0
 30 74  1  0  0  0  0
 30 75  1  0  0  0  0
 31 58  1  0  0  0  0
 31 32  1  6  0  0  0
 31 30  1  0  0  0  0
 33 57  1  0  0  0  0
 33 34  1  6  0  0  0
 33 31  1  0  0  0  0
 35 37  1  0  0  0  0
 35 56  1  0  0  0  0
 35 36  1  6  0  0  0
 35 33  1  0  0  0  0
 37 38  1  0  0  0  0
 37 76  1  0  0  0  0
 37 77  1  0  0  0  0
 38 39  1  0  0  0  0
 38 48  1  0  0  0  0
 39 40  2  0  0  0  0
 39 45  1  0  0  0  0
 40 41  1  0  0  0  0
 40 78  1  0  0  0  0
 41 42  1  0  0  0  0
 41 43  2  0  0  0  0
 42 79  1  0  0  0  0
 43 44  1  0  0  0  0
 43 80  1  0  0  0  0
 44 45  2  0  0  0  0
 44 81  1  0  0  0  0
 45 46  1  0  0  0  0
 46 47  2  0  0  0  0
 46 82  1  0  0  0  0
 47 48  1  0  0  0  0
 47 54  1  0  0  0  0
 48 49  2  0  0  0  0
 49 50  1  0  0  0  0
 50 51  2  0  0  0  0
 50 52  1  0  0  0  0
 52 53  1  0  0  0  0
 52 54  1  0  0  0  0
 54 55  2  0  0  0  0
 56 83  1  0  0  0  0
 57 84  1  0  0  0  0
 58 85  1  0  0  0  0
 59 86  1  0  0  0  0
 60 87  1  0  0  0  0
 60 88  1  0  0  0  0
 60 89  1  0  0  0  0
M  END
$$$$
