F83
 OpenBabel04121316113D

 40 42  0  0  1  0  0  0  0  0999 V2000
    1.0773    0.0416    0.0497 O   0  0  0  0  0  0  0  0  0  0  0  0
    2.5071    0.0670   -0.0053 C   0  0  0  0  0  0  0  0  0  0  0  0
    2.9677   -0.9896   -1.0204 C   0  0  2  0  0  0  0  0  0  0  0  0
    2.2562   -0.9718   -1.8588 H   0  0  0  0  0  0  0  0  0  0  0  0
    2.9344   -2.3303   -0.3967 N   0  0  0  0  0  0  0  0  0  0  0  0
    3.0516   -3.3487   -1.4385 C   0  0  0  0  0  0  0  0  0  0  0  0
    4.2235   -3.1173   -2.3681 C   0  0  0  0  0  0  0  0  0  0  0  0
    4.8452   -1.8558   -2.4546 C   0  0  0  0  0  0  0  0  0  0  0  0
    4.3836   -0.7250   -1.5578 C   0  0  0  0  0  0  0  0  0  0  0  0
    5.9117   -1.6682   -3.3408 C   0  0  0  0  0  0  0  0  0  0  0  0
    6.3433   -2.7197   -4.1535 C   0  0  0  0  0  0  0  0  0  0  0  0
    5.7163   -3.9714   -4.0788 C   0  0  0  0  0  0  0  0  0  0  0  0
    4.6526   -4.1651   -3.1975 C   0  0  0  0  0  0  0  0  0  0  0  0
    6.3248   -5.2556   -5.1563 S   0  0  0  0  0  0  0  0  0  0  0  0
    6.0303   -4.8112   -6.4990 O   0  0  0  0  0  0  0  0  0  0  0  0
    7.6822   -5.5396   -4.7311 O   0  0  0  0  0  0  0  0  0  0  0  0
    5.4130   -6.6260   -4.8320 N   0  0  0  0  0  0  0  0  0  0  0  0
    5.5960   -7.8182   -5.5825 C   0  0  0  0  0  0  0  0  0  0  0  0
    5.4766   -7.8253   -6.9716 C   0  0  0  0  0  0  0  0  0  0  0  0
    5.3817   -9.0358   -7.6599 C   0  0  0  0  0  0  0  0  0  0  0  0
    5.5114  -10.2367   -6.9688 C   0  0  0  0  0  0  0  0  0  0  0  0
    5.7479  -10.2350   -5.5957 C   0  0  0  0  0  0  0  0  0  0  0  0
    5.7234   -9.0266   -4.8923 C   0  0  0  0  0  0  0  0  0  0  0  0
    5.3322  -11.7263   -7.8086 Cl  0  0  0  0  0  0  0  0  0  0  0  0
    0.7998    0.7413    0.6648 H   0  0  0  0  0  0  0  0  0  0  0  0
    2.8891   -0.1393    1.0007 H   0  0  0  0  0  0  0  0  0  0  0  0
    2.8228    1.0716   -0.3028 H   0  0  0  0  0  0  0  0  0  0  0  0
    2.0438   -2.4426    0.0883 H   0  0  0  0  0  0  0  0  0  0  0  0
    2.1300   -3.3819   -2.0330 H   0  0  0  0  0  0  0  0  0  0  0  0
    3.1693   -4.3234   -0.9518 H   0  0  0  0  0  0  0  0  0  0  0  0
    4.3791    0.2112   -2.1299 H   0  0  0  0  0  0  0  0  0  0  0  0
    5.1007   -0.6147   -0.7344 H   0  0  0  0  0  0  0  0  0  0  0  0
    6.4086   -0.7022   -3.4015 H   0  0  0  0  0  0  0  0  0  0  0  0
    7.1685   -2.5564   -4.8450 H   0  0  0  0  0  0  0  0  0  0  0  0
    4.1295   -5.1075   -3.1201 H   0  0  0  0  0  0  0  0  0  0  0  0
    4.6585   -6.6201   -4.1591 H   0  0  0  0  0  0  0  0  0  0  0  0
    5.4145   -6.9008   -7.5372 H   0  0  0  0  0  0  0  0  0  0  0  0
    5.1918   -9.0273   -8.7296 H   0  0  0  0  0  0  0  0  0  0  0  0
    5.9279  -11.1680   -5.0685 H   0  0  0  0  0  0  0  0  0  0  0  0
    5.8119   -9.0407   -3.8089 H   0  0  0  0  0  0  0  0  0  0  0  0
  1  2  1  0  0  0  0
  1 25  1  0  0  0  0
  2  3  1  0  0  0  0
  2 26  1  0  0  0  0
  2 27  1  0  0  0  0
  3  4  1  6  0  0  0
  3  5  1  0  0  0  0
  3  9  1  0  0  0  0
  5  6  1  0  0  0  0
  5 28  1  0  0  0  0
  6  7  1  0  0  0  0
  6 29  1  0  0  0  0
  6 30  1  0  0  0  0
  7  8  2  0  0  0  0
  7 13  1  0  0  0  0
  8  9  1  0  0  0  0
  8 10  1  0  0  0  0
  9 31  1  0  0  0  0
  9 32  1  0  0  0  0
 10 11  2  0  0  0  0
 10 33  1  0  0  0  0
 11 12  1  0  0  0  0
 11 34  1  0  0  0  0
 12 13  2  0  0  0  0
 12 14  1  0  0  0  0
 13 35  1  0  0  0  0
 14 15  2  0  0  0  0
 14 16  2  0  0  0  0
 14 17  1  0  0  0  0
 17 18  1  0  0  0  0
 17 36  1  0  0  0  0
 18 19  2  0  0  0  0
 18 23  1  0  0  0  0
 19 20  1  0  0  0  0
 19 37  1  0  0  0  0
 20 21  2  0  0  0  0
 20 38  1  0  0  0  0
 21 22  1  0  0  0  0
 21 24  1  0  0  0  0
 22 23  2  0  0  0  0
 22 39  1  0  0  0  0
 23 40  1  0  0  0  0
M  END
$$$$
