F9F
 OpenBabel04121316113D

 33 33  0  0  0  0  0  0  0  0999 V2000
    0.9269    0.0046   -0.0878 F   0  0  0  0  0  0  0  0  0  0  0  0
    2.2743    0.0572   -0.0291 C   0  0  0  0  0  0  0  0  0  0  0  0
    2.6869    1.1668    0.7554 O   0  0  0  0  0  0  0  0  0  0  0  0
    2.3958    2.4104    0.2694 C   0  0  0  0  0  0  0  0  0  0  0  0
    1.8815    2.6874   -0.9972 C   0  0  0  0  0  0  0  0  0  0  0  0
    1.8313    4.0007   -1.4575 C   0  0  0  0  0  0  0  0  0  0  0  0
    2.1566    5.0526   -0.5998 C   0  0  0  0  0  0  0  0  0  0  0  0
    2.5015    4.7993    0.7261 C   0  0  0  0  0  0  0  0  0  0  0  0
    2.6840    3.4734    1.1350 C   0  0  0  0  0  0  0  0  0  0  0  0
    2.1944    6.6685   -1.3120 S   0  0  0  0  0  0  0  0  0  0  0  0
    3.2920    6.6912   -2.2439 O   0  0  0  0  0  0  0  0  0  0  0  0
    0.8381    7.0096   -1.6991 O   0  0  0  0  0  0  0  0  0  0  0  0
    2.6515    7.7196   -0.0584 N   0  0  0  0  0  0  0  0  0  0  0  0
    2.7029    9.1294   -0.5442 C   0  0  0  0  0  0  0  0  0  0  0  0
    3.0982   10.0475    0.5910 C   0  0  0  0  0  0  0  0  0  0  0  0
    3.0731   11.4183    0.1712 O   0  0  0  0  0  0  0  0  0  0  0  0
    3.4808   12.5018    1.4568 P   0  0  0  0  0  0  0  0  0  0  0  0
    2.8919   13.6750    0.6901 O   0  0  0  0  0  0  0  0  0  0  0  0
    2.3539   11.8116    2.4043 O   0  0  0  0  0  0  0  0  0  0  0  0
    3.8885   13.5853    2.7423 O   0  0  0  0  0  0  0  0  0  0  0  0
    2.7201   -1.0799    0.5472 F   0  0  0  0  0  0  0  0  0  0  0  0
    2.7798    0.1083   -1.2814 F   0  0  0  0  0  0  0  0  0  0  0  0
    1.5412    1.9113   -1.6757 H   0  0  0  0  0  0  0  0  0  0  0  0
    1.5500    4.1957   -2.4912 H   0  0  0  0  0  0  0  0  0  0  0  0
    2.6496    5.6013    1.4416 H   0  0  0  0  0  0  0  0  0  0  0  0
    3.0571    3.2676    2.1371 H   0  0  0  0  0  0  0  0  0  0  0  0
    3.5564    7.4230    0.3106 H   0  0  0  0  0  0  0  0  0  0  0  0
    1.7190    9.4306   -0.9207 H   0  0  0  0  0  0  0  0  0  0  0  0
    3.4332    9.2286   -1.3515 H   0  0  0  0  0  0  0  0  0  0  0  0
    4.0893    9.8067    0.9899 H   0  0  0  0  0  0  0  0  0  0  0  0
    2.3718    9.8743    1.3927 H   0  0  0  0  0  0  0  0  0  0  0  0
    1.4802   11.8087    1.9735 H   0  0  0  0  0  0  0  0  0  0  0  0
    4.5946   14.1771    2.4286 H   0  0  0  0  0  0  0  0  0  0  0  0
  1  2  1  0  0  0  0
  2  3  1  0  0  0  0
  2 21  1  0  0  0  0
  2 22  1  0  0  0  0
  3  4  1  0  0  0  0
  4  5  2  0  0  0  0
  4  9  1  0  0  0  0
  5  6  1  0  0  0  0
  5 23  1  0  0  0  0
  6  7  2  0  0  0  0
  6 24  1  0  0  0  0
  7  8  1  0  0  0  0
  7 10  1  0  0  0  0
  8  9  2  0  0  0  0
  8 25  1  0  0  0  0
  9 26  1  0  0  0  0
 10 11  2  0  0  0  0
 10 12  2  0  0  0  0
 10 13  1  0  0  0  0
 13 14  1  0  0  0  0
 13 27  1  0  0  0  0
 14 15  1  0  0  0  0
 14 28  1  0  0  0  0
 14 29  1  0  0  0  0
 15 16  1  0  0  0  0
 15 30  1  0  0  0  0
 15 31  1  0  0  0  0
 16 17  1  0  0  0  0
 17 18  2  0  0  0  0
 17 19  1  0  0  0  0
 17 20  1  0  0  0  0
 19 32  1  0  0  0  0
 20 33  1  0  0  0  0
M  END
$$$$
