FA1
 OpenBabel04121316113D

 22 22  0  0  1  0  0  0  0  0999 V2000
    2.8978    0.2329   -1.4434 O   0  0  0  0  0  0  0  0  0  0  0  0
    2.2968    0.1359   -0.1504 C   0  0  2  0  0  0  0  0  0  0  0  0
    1.2110    0.2036   -0.2798 H   0  0  0  0  0  0  0  0  0  0  0  0
    2.7567    1.3558    0.5628 C   0  0  0  0  0  0  0  0  0  0  0  0
    3.5095    1.3315    1.6617 C   0  0  0  0  0  0  0  0  0  0  0  0
    3.9280    0.0771    2.3667 C   0  0  1  0  0  0  0  0  0  0  0  0
    3.6325   -1.2578    1.6493 C   0  0  0  0  0  0  0  0  0  0  0  0
    2.6657   -1.2334    0.4645 C   0  0  1  0  0  0  0  0  0  0  0  0
    3.1304   -1.8441   -0.3205 H   0  0  0  0  0  0  0  0  0  0  0  0
    1.4640   -1.9266    0.8195 O   0  0  0  0  0  0  0  0  0  0  0  0
    5.3484    0.2041    2.4424 O   0  0  0  0  0  0  0  0  0  0  0  0
    3.1920    0.0474    3.7626 C   0  0  0  0  0  0  0  0  0  0  0  0
    2.5079   -0.8761    4.1700 O   0  0  0  0  0  0  0  0  0  0  0  0
    3.3424    1.1710    4.5115 O   0  0  0  0  0  0  0  0  0  0  0  0
    3.8550    0.1198   -1.3204 H   0  0  0  0  0  0  0  0  0  0  0  0
    2.4702    2.3136    0.1321 H   0  0  0  0  0  0  0  0  0  0  0  0
    3.8456    2.2846    2.0674 H   0  0  0  0  0  0  0  0  0  0  0  0
    3.2695   -1.9995    2.3710 H   0  0  0  0  0  0  0  0  0  0  0  0
    4.5725   -1.7075    1.3025 H   0  0  0  0  0  0  0  0  0  0  0  0
    1.7044   -2.7524    1.2757 H   0  0  0  0  0  0  0  0  0  0  0  0
    5.6881    0.0988    1.5307 H   0  0  0  0  0  0  0  0  0  0  0  0
    3.9230    1.8363    4.1036 H   0  0  0  0  0  0  0  0  0  0  0  0
  1 15  1  0  0  0  0
  2  4  1  0  0  0  0
  2  8  1  0  0  0  0
  2  3  1  6  0  0  0
  2  1  1  0  0  0  0
  4  5  2  0  0  0  0
  4 16  1  0  0  0  0
  5  6  1  0  0  0  0
  5 17  1  0  0  0  0
  6  7  1  0  0  0  0
  6 12  1  1  0  0  0
  6 11  1  0  0  0  0
  7  8  1  0  0  0  0
  7 18  1  0  0  0  0
  7 19  1  0  0  0  0
  8  9  1  6  0  0  0
  8 10  1  0  0  0  0
 10 20  1  0  0  0  0
 11 21  1  0  0  0  0
 12 13  2  0  0  0  0
 12 14  1  0  0  0  0
 14 22  1  0  0  0  0
M  END
$$$$
