FA4
 OpenBabel04121316113D

 75 75  0  0  1  0  0  0  0  0999 V2000
    5.3438   -4.4596   -1.6203 N   0  0  0  0  0  0  0  0  0  0  0  0
    5.0436   -3.3139   -0.7841 C   0  0  0  0  0  0  0  0  0  0  0  0
    6.2228   -3.0312    0.1366 C   0  0  0  0  0  0  0  0  0  0  0  0
    5.8807   -1.8360    1.0040 C   0  0  0  0  0  0  0  0  0  0  0  0
    7.0329   -1.4485    1.9136 C   0  0  0  0  0  0  0  0  0  0  0  0
    6.6267   -0.2542    2.7924 C   0  0  2  0  0  0  0  0  0  0  0  0
    5.5362   -0.2060    2.8960 H   0  0  0  0  0  0  0  0  0  0  0  0
    7.0887    1.1116    2.2122 C   0  0  0  0  0  0  0  0  0  0  0  0
    7.6854    1.9743    2.8621 O   0  0  0  0  0  0  0  0  0  0  0  0
    6.7293    1.3629    0.9109 N   0  0  0  0  0  0  0  0  0  0  0  0
    7.1830    2.5789    0.3578 O   0  0  0  0  0  0  0  0  0  0  0  0
    7.1312   -0.4202    4.1461 N   0  0  0  0  0  0  0  0  0  0  0  0
    8.4893   -0.4969    4.3316 C   0  0  0  0  0  0  0  0  0  0  0  0
    9.2834   -0.4907    3.3939 O   0  0  0  0  0  0  0  0  0  0  0  0
    8.9157   -0.6048    5.7663 C   0  0  0  0  0  0  0  0  0  0  0  0
   10.4350   -0.6032    5.8011 C   0  0  0  0  0  0  0  0  0  0  0  0
   10.9470   -0.7396    7.2153 C   0  0  0  0  0  0  0  0  0  0  0  0
   12.4654   -0.7338    7.2102 C   0  0  0  0  0  0  0  0  0  0  0  0
   12.9744   -0.8423    8.6349 C   0  0  0  0  0  0  0  0  0  0  0  0
   14.4877   -0.7555    8.6555 C   0  0  0  0  0  0  0  0  0  0  0  0
   14.9885   -0.6808   10.0916 C   0  0  0  0  0  0  0  0  0  0  0  0
   16.5009   -0.6064   10.1147 C   0  0  0  0  0  0  0  0  0  0  0  0
   17.0158   -0.8914   11.5340 C   0  0  0  0  0  0  0  0  0  0  0  0
   18.5022   -1.0956   11.5219 C   0  0  0  0  0  0  0  0  0  0  0  0
   19.2476   -0.1534   12.2603 C   0  0  0  0  0  0  0  0  0  0  0  0
   20.6210   -0.0475   12.1064 C   0  0  0  0  0  0  0  0  0  0  0  0
   21.2832   -0.9661   11.3077 C   0  0  0  0  0  0  0  0  0  0  0  0
   20.5700   -2.0122   10.7030 C   0  0  0  0  0  0  0  0  0  0  0  0
   19.1558   -2.1007   10.7738 C   0  0  0  0  0  0  0  0  0  0  0  0
   18.4972   -3.2031    9.9207 C   0  0  0  0  0  0  0  0  0  0  0  0
   17.0873   -3.5416   10.1496 N   0  0  0  0  0  0  0  0  0  0  0  0
   16.2480   -4.0708    9.2347 C   0  0  0  0  0  0  0  0  0  0  0  0
   16.6136   -4.7388    8.1945 N   0  0  0  0  0  0  0  0  0  0  0  0
   14.9362   -3.9326    9.4790 N   0  0  0  0  0  0  0  0  0  0  0  0
    4.5367   -4.6750   -2.2019 H   0  0  0  0  0  0  0  0  0  0  0  0
    5.5071   -5.2756   -1.0322 H   0  0  0  0  0  0  0  0  0  0  0  0
    4.1418   -3.5066   -0.1914 H   0  0  0  0  0  0  0  0  0  0  0  0
    4.8419   -2.4403   -1.4151 H   0  0  0  0  0  0  0  0  0  0  0  0
    7.1245   -2.8188   -0.4519 H   0  0  0  0  0  0  0  0  0  0  0  0
    6.4392   -3.8983    0.7721 H   0  0  0  0  0  0  0  0  0  0  0  0
    4.9951   -2.0558    1.6112 H   0  0  0  0  0  0  0  0  0  0  0  0
    5.6128   -1.0063    0.3499 H   0  0  0  0  0  0  0  0  0  0  0  0
    7.9245   -1.2141    1.3169 H   0  0  0  0  0  0  0  0  0  0  0  0
    7.2940   -2.3206    2.5306 H   0  0  0  0  0  0  0  0  0  0  0  0
    6.1899    0.7686    0.3001 H   0  0  0  0  0  0  0  0  0  0  0  0
    7.7531    2.9266    1.0795 H   0  0  0  0  0  0  0  0  0  0  0  0
    6.4945   -0.4574    4.9317 H   0  0  0  0  0  0  0  0  0  0  0  0
    8.5188   -1.5349    6.1877 H   0  0  0  0  0  0  0  0  0  0  0  0
    8.5142    0.2415    6.3352 H   0  0  0  0  0  0  0  0  0  0  0  0
   10.8152    0.3257    5.3542 H   0  0  0  0  0  0  0  0  0  0  0  0
   10.8230   -1.4273    5.1874 H   0  0  0  0  0  0  0  0  0  0  0  0
   10.5768   -1.6717    7.6573 H   0  0  0  0  0  0  0  0  0  0  0  0
   10.5716    0.0895    7.8264 H   0  0  0  0  0  0  0  0  0  0  0  0
   12.8341    0.1928    6.7520 H   0  0  0  0  0  0  0  0  0  0  0  0
   12.8470   -1.5657    6.6042 H   0  0  0  0  0  0  0  0  0  0  0  0
   12.6374   -1.7877    9.0789 H   0  0  0  0  0  0  0  0  0  0  0  0
   12.5551   -0.0304    9.2396 H   0  0  0  0  0  0  0  0  0  0  0  0
   14.8244    0.1362    8.1162 H   0  0  0  0  0  0  0  0  0  0  0  0
   14.9064   -1.6153    8.1156 H   0  0  0  0  0  0  0  0  0  0  0  0
   14.6399   -1.5356   10.6753 H   0  0  0  0  0  0  0  0  0  0  0  0
   14.5755    0.1934   10.6002 H   0  0  0  0  0  0  0  0  0  0  0  0
   16.8466    0.3742    9.7712 H   0  0  0  0  0  0  0  0  0  0  0  0
   16.9001   -1.2866    9.3553 H   0  0  0  0  0  0  0  0  0  0  0  0
   16.5626   -1.7488   12.0453 H   0  0  0  0  0  0  0  0  0  0  0  0
   16.7248   -0.0482   12.1690 H   0  0  0  0  0  0  0  0  0  0  0  0
   18.7396    0.5393   12.9296 H   0  0  0  0  0  0  0  0  0  0  0  0
   21.1594    0.7600   12.5951 H   0  0  0  0  0  0  0  0  0  0  0  0
   22.3567   -0.8705   11.1621 H   0  0  0  0  0  0  0  0  0  0  0  0
   21.1409   -2.7505   10.1405 H   0  0  0  0  0  0  0  0  0  0  0  0
   19.0610   -4.1262   10.0904 H   0  0  0  0  0  0  0  0  0  0  0  0
   18.6419   -2.9060    8.8726 H   0  0  0  0  0  0  0  0  0  0  0  0
   16.5978   -2.9126   10.7463 H   0  0  0  0  0  0  0  0  0  0  0  0
   17.6262   -4.8126    8.2379 H   0  0  0  0  0  0  0  0  0  0  0  0
   14.5311   -3.2769   10.1249 H   0  0  0  0  0  0  0  0  0  0  0  0
   14.3182   -4.2196    8.7286 H   0  0  0  0  0  0  0  0  0  0  0  0
  1  2  1  0  0  0  0
  1 35  1  0  0  0  0
  1 36  1  0  0  0  0
  2  3  1  0  0  0  0
  2 37  1  0  0  0  0
  2 38  1  0  0  0  0
  3  4  1  0  0  0  0
  3 39  1  0  0  0  0
  3 40  1  0  0  0  0
  4  5  1  0  0  0  0
  4 41  1  0  0  0  0
  4 42  1  0  0  0  0
  5 43  1  0  0  0  0
  5 44  1  0  0  0  0
  6  8  1  0  0  0  0
  6 12  1  0  0  0  0
  6  7  1  1  0  0  0
  6  5  1  0  0  0  0
  8  9  2  0  0  0  0
  8 10  1  0  0  0  0
 10 11  1  0  0  0  0
 10 45  1  0  0  0  0
 11 46  1  0  0  0  0
 12 13  1  0  0  0  0
 12 47  1  0  0  0  0
 13 14  2  0  0  0  0
 13 15  1  0  0  0  0
 15 16  1  0  0  0  0
 15 48  1  0  0  0  0
 15 49  1  0  0  0  0
 16 17  1  0  0  0  0
 16 50  1  0  0  0  0
 16 51  1  0  0  0  0
 17 18  1  0  0  0  0
 17 52  1  0  0  0  0
 17 53  1  0  0  0  0
 18 19  1  0  0  0  0
 18 54  1  0  0  0  0
 18 55  1  0  0  0  0
 19 20  1  0  0  0  0
 19 56  1  0  0  0  0
 19 57  1  0  0  0  0
 20 21  1  0  0  0  0
 20 58  1  0  0  0  0
 20 59  1  0  0  0  0
 21 22  1  0  0  0  0
 21 60  1  0  0  0  0
 21 61  1  0  0  0  0
 22 23  1  0  0  0  0
 22 62  1  0  0  0  0
 22 63  1  0  0  0  0
 23 24  1  0  0  0  0
 23 64  1  0  0  0  0
 23 65  1  0  0  0  0
 24 25  2  0  0  0  0
 24 29  1  0  0  0  0
 25 26  1  0  0  0  0
 25 66  1  0  0  0  0
 26 27  2  0  0  0  0
 26 67  1  0  0  0  0
 27 28  1  0  0  0  0
 27 68  1  0  0  0  0
 28 29  2  0  0  0  0
 28 69  1  0  0  0  0
 29 30  1  0  0  0  0
 30 31  1  0  0  0  0
 30 70  1  0  0  0  0
 30 71  1  0  0  0  0
 31 32  1  0  0  0  0
 31 72  1  0  0  0  0
 32 33  2  0  0  0  0
 32 34  1  0  0  0  0
 33 73  1  0  0  0  0
 34 74  1  0  0  0  0
 34 75  1  0  0  0  0
M  END
$$$$
