FA6
 OpenBabel04121316113D

 25 25  0  0  1  0  0  0  0  0999 V2000
    0.9180   -0.0226    0.1775 O   0  0  0  0  0  0  0  0  0  0  0  0
    2.3105   -0.0565    0.0413 N   0  0  0  0  0  0  0  0  0  0  0  0
    2.9216    0.2790    1.1386 C   0  0  0  0  0  0  0  0  0  0  0  0
    2.2331    0.6430    2.4351 C   0  0  0  0  0  0  0  0  0  0  0  0
    2.6064   -0.4146    3.4765 C   0  0  2  0  0  0  0  0  0  0  0  0
    2.0049   -0.0343    4.7191 O   0  0  0  0  0  0  0  0  0  0  0  0
    4.1470   -0.4488    3.6287 C   0  0  0  0  0  0  0  0  0  0  0  0
    4.8772   -0.7304    2.2957 C   0  0  2  0  0  0  0  0  0  0  0  0
    5.9472   -0.5921    2.4887 H   0  0  0  0  0  0  0  0  0  0  0  0
    4.4462    0.2526    1.1956 C   0  0  2  0  0  0  0  0  0  0  0  0
    4.8549   -0.0313    0.2205 H   0  0  0  0  0  0  0  0  0  0  0  0
    4.8685    1.5719    1.5322 O   0  0  0  0  0  0  0  0  0  0  0  0
    4.7730   -2.0694    1.8326 O   0  0  0  0  0  0  0  0  0  0  0  0
    2.0775   -1.8295    3.1169 C   0  0  0  0  0  0  0  0  0  0  0  0
    2.7015   -2.8587    3.3184 O   0  0  0  0  0  0  0  0  0  0  0  0
    0.8856   -1.8761    2.4883 O   0  0  0  0  0  0  0  0  0  0  0  0
    0.6144   -0.2564   -0.7235 H   0  0  0  0  0  0  0  0  0  0  0  0
    1.1527    0.7636    2.3387 H   0  0  0  0  0  0  0  0  0  0  0  0
    2.5858    1.6321    2.7515 H   0  0  0  0  0  0  0  0  0  0  0  0
    2.3776    0.8183    5.0043 H   0  0  0  0  0  0  0  0  0  0  0  0
    4.4462   -1.1681    4.4008 H   0  0  0  0  0  0  0  0  0  0  0  0
    4.4801    0.5317    4.0055 H   0  0  0  0  0  0  0  0  0  0  0  0
    5.8397    1.5544    1.6011 H   0  0  0  0  0  0  0  0  0  0  0  0
    3.8465   -2.3717    1.7717 H   0  0  0  0  0  0  0  0  0  0  0  0
    0.4659   -1.0158    2.3105 H   0  0  0  0  0  0  0  0  0  0  0  0
  1  2  1  0  0  0  0
  1 17  1  0  0  0  0
  2  3  2  0  0  0  0
  3  4  1  0  0  0  0
  3 10  1  0  0  0  0
  4  5  1  0  0  0  0
  4 18  1  0  0  0  0
  4 19  1  0  0  0  0
  5  7  1  0  0  0  0
  5 14  1  6  0  0  0
  5  6  1  0  0  0  0
  6 20  1  0  0  0  0
  7  8  1  0  0  0  0
  7 21  1  0  0  0  0
  7 22  1  0  0  0  0
  8 10  1  0  0  0  0
  8 13  1  0  0  0  0
  8  9  1  1  0  0  0
 10 11  1  6  0  0  0
 10 12  1  0  0  0  0
 12 23  1  0  0  0  0
 13 24  1  0  0  0  0
 14 15  2  0  0  0  0
 14 16  1  0  0  0  0
 16 25  1  0  0  0  0
M  END
$$$$
