FA8
 OpenBabel04121316113D

 88 93  0  0  1  0  0  0  0  0999 V2000
   -0.5953    3.9145   -0.5020 O   0  0  0  0  0  0  0  0  0  0  0  0
   -1.8242    4.0308   -0.7112 C   0  0  0  0  0  0  0  0  0  0  0  0
   -2.3876    5.2426   -0.5060 N   0  0  0  0  0  0  0  0  0  0  0  0
   -3.4689    5.4361   -1.3168 C   0  0  0  0  0  0  0  0  0  0  0  0
   -3.5145    6.2216   -2.2388 O   0  0  0  0  0  0  0  0  0  0  0  0
   -4.5256    4.4349   -0.9174 C   0  0  2  0  0  0  0  0  0  0  0  0
   -4.7508    4.6207    0.1436 H   0  0  0  0  0  0  0  0  0  0  0  0
   -3.9092    3.0506   -1.0662 C   0  0  0  0  0  0  0  0  0  0  0  0
   -2.5989    2.9628   -1.1186 N   0  0  0  0  0  0  0  0  0  0  0  0
   -4.8097    1.9472   -0.9520 N   0  0  0  0  0  0  0  0  0  0  0  0
   -4.4412    0.5782   -0.5418 C   0  0  0  0  0  0  0  0  0  0  0  0
   -3.0103    0.4508   -0.1226 C   0  0  1  0  0  0  0  0  0  0  0  0
   -2.3448    0.7892   -0.9227 H   0  0  0  0  0  0  0  0  0  0  0  0
   -2.8664    1.2198    1.1840 C   0  0  1  0  0  0  0  0  0  0  0  0
   -3.2540    0.6468    2.0290 H   0  0  0  0  0  0  0  0  0  0  0  0
   -1.4025    1.3689    1.3277 C   0  0  1  0  0  0  0  0  0  0  0  0
   -0.8627    1.7546    0.4555 H   0  0  0  0  0  0  0  0  0  0  0  0
   -1.3205    2.3050    2.4889 C   0  0  0  0  0  0  0  0  0  0  0  0
   -1.3165    3.7307    2.3171 O   0  0  0  0  0  0  0  0  0  0  0  0
   -1.0169    4.7459    3.6855 P   0  0  1  0  0  0  0  0  0  0  0  0
   -2.3837    4.4466    4.2828 O   0  0  0  0  0  0  0  0  0  0  0  0
    0.3233    4.0265    4.3019 O   0  0  0  0  0  0  0  0  0  0  0  0
    1.0029    2.7015    3.8637 P   0  0  2  0  0  0  0  0  0  0  0  0
    0.1437    1.5637    4.3482 O   0  0  0  0  0  0  0  0  0  0  0  0
    2.3616    2.0986    3.3277 O   0  0  0  0  0  0  0  0  0  0  0  0
    2.4666    0.7147    3.6224 C   0  0  0  0  0  0  0  0  0  0  0  0
    3.6762    0.1999    2.9232 C   0  0  1  0  0  0  0  0  0  0  0  0
    3.6255    0.3843    1.8413 H   0  0  0  0  0  0  0  0  0  0  0  0
    4.8025    0.9120    3.4807 O   0  0  0  0  0  0  0  0  0  0  0  0
    5.9071    0.0282    3.3272 C   0  0  2  0  0  0  0  0  0  0  0  0
    6.3094    0.1823    2.3190 H   0  0  0  0  0  0  0  0  0  0  0  0
    5.3315   -1.3821    3.5078 C   0  0  1  0  0  0  0  0  0  0  0  0
    5.3876   -1.7189    4.5439 H   0  0  0  0  0  0  0  0  0  0  0  0
    3.8472   -1.2655    3.2505 C   0  0  2  0  0  0  0  0  0  0  0  0
    3.3046   -1.5241    4.1708 H   0  0  0  0  0  0  0  0  0  0  0  0
    3.3591   -2.1193    2.2299 O   0  0  0  0  0  0  0  0  0  0  0  0
    5.9639   -2.3383    2.6671 O   0  0  0  0  0  0  0  0  0  0  0  0
    6.9639    0.3916    4.2545 N   0  0  0  0  0  0  0  0  0  0  0  0
    7.5601    1.6255    4.3457 C   0  0  0  0  0  0  0  0  0  0  0  0
    8.5668    1.6269    5.1970 N   0  0  0  0  0  0  0  0  0  0  0  0
    8.6309    0.3345    5.6747 C   0  0  0  0  0  0  0  0  0  0  0  0
    7.6646   -0.4537    5.0797 C   0  0  0  0  0  0  0  0  0  0  0  0
    7.4766   -1.7698    5.2765 N   0  0  0  0  0  0  0  0  0  0  0  0
    8.3101   -2.2636    6.2068 C   0  0  0  0  0  0  0  0  0  0  0  0
    9.2850   -1.6144    6.8668 N   0  0  0  0  0  0  0  0  0  0  0  0
    9.4759   -0.3015    6.6004 C   0  0  0  0  0  0  0  0  0  0  0  0
   10.4940    0.3538    7.2495 N   0  0  0  0  0  0  0  0  0  0  0  0
    1.0585    3.4290    2.3911 O   0  0  0  0  0  0  0  0  0  0  0  0
   -0.7173    5.7612    5.0538 O   0  0  0  0  0  0  0  0  0  0  0  0
   -0.7476    0.1186    1.6488 O   0  0  0  0  0  0  0  0  0  0  0  0
   -3.4439    2.5292    1.3144 O   0  0  0  0  0  0  0  0  0  0  0  0
   -2.6189   -0.9116    0.1143 O   0  0  0  0  0  0  0  0  0  0  0  0
   -6.2098    2.1910   -1.0611 C   0  0  0  0  0  0  0  0  0  0  0  0
   -6.6294    3.4653   -1.5121 C   0  0  0  0  0  0  0  0  0  0  0  0
   -5.7614    4.5506   -1.6529 N   0  0  0  0  0  0  0  0  0  0  0  0
   -7.9743    3.7053   -1.7545 C   0  0  0  0  0  0  0  0  0  0  0  0
   -8.9440    2.7290   -1.5240 C   0  0  0  0  0  0  0  0  0  0  0  0
   -8.5624    1.4692   -1.0437 C   0  0  0  0  0  0  0  0  0  0  0  0
   -7.1995    1.2131   -0.8095 C   0  0  0  0  0  0  0  0  0  0  0  0
   -9.5732    0.3797   -0.8022 C   0  0  0  0  0  0  0  0  0  0  0  0
  -10.3764    3.0728   -1.7940 C   0  0  0  0  0  0  0  0  0  0  0  0
   -1.7025    5.9744   -0.4278 H   0  0  0  0  0  0  0  0  0  0  0  0
   -4.6388   -0.1321   -1.3455 H   0  0  0  0  0  0  0  0  0  0  0  0
   -5.0138    0.2385    0.3390 H   0  0  0  0  0  0  0  0  0  0  0  0
   -0.3217    1.9793    2.5186 H   0  0  0  0  0  0  0  0  0  0  0  0
   -1.8427    1.9844    3.3910 H   0  0  0  0  0  0  0  0  0  0  0  0
    1.5966    0.0648    3.3944 H   0  0  0  0  0  0  0  0  0  0  0  0
    2.6068    0.7387    4.7017 H   0  0  0  0  0  0  0  0  0  0  0  0
    3.7463   -2.9966    2.4143 H   0  0  0  0  0  0  0  0  0  0  0  0
    6.9062   -2.3348    2.9248 H   0  0  0  0  0  0  0  0  0  0  0  0
    7.2306    2.4801    3.7658 H   0  0  0  0  0  0  0  0  0  0  0  0
    8.1784   -3.3137    6.4537 H   0  0  0  0  0  0  0  0  0  0  0  0
   11.0518   -0.1578    7.9129 H   0  0  0  0  0  0  0  0  0  0  0  0
   10.6343    1.3354    7.0593 H   0  0  0  0  0  0  0  0  0  0  0  0
    0.4851    3.2546    1.6218 H   0  0  0  0  0  0  0  0  0  0  0  0
   -1.1954    6.5974    4.9248 H   0  0  0  0  0  0  0  0  0  0  0  0
   -0.9277   -0.5057    0.9195 H   0  0  0  0  0  0  0  0  0  0  0  0
   -4.3994    2.4982    1.1797 H   0  0  0  0  0  0  0  0  0  0  0  0
   -2.6074   -1.3705   -0.7419 H   0  0  0  0  0  0  0  0  0  0  0  0
   -5.7450    5.0454   -2.5385 H   0  0  0  0  0  0  0  0  0  0  0  0
   -8.2637    4.6956   -2.0940 H   0  0  0  0  0  0  0  0  0  0  0  0
   -6.9474    0.2209   -0.4391 H   0  0  0  0  0  0  0  0  0  0  0  0
  -10.5930    0.6966   -1.0370 H   0  0  0  0  0  0  0  0  0  0  0  0
   -9.5677    0.0776    0.2488 H   0  0  0  0  0  0  0  0  0  0  0  0
   -9.3569   -0.4818   -1.4412 H   0  0  0  0  0  0  0  0  0  0  0  0
  -10.4823    4.1027   -2.1463 H   0  0  0  0  0  0  0  0  0  0  0  0
  -10.9619    2.9726   -0.8753 H   0  0  0  0  0  0  0  0  0  0  0  0
  -10.7710    2.4107   -2.5699 H   0  0  0  0  0  0  0  0  0  0  0  0
  1  2  2  0  0  0  0
  2  3  1  0  0  0  0
  2  9  1  0  0  0  0
  3  4  1  0  0  0  0
  3 62  1  0  0  0  0
  4  5  2  0  0  0  0
  4  6  1  0  0  0  0
  6  7  1  1  0  0  0
  6  8  1  0  0  0  0
  6 55  1  0  0  0  0
  8  9  2  0  0  0  0
  8 10  1  0  0  0  0
 10 11  1  0  0  0  0
 10 53  1  0  0  0  0
 11 12  1  0  0  0  0
 11 63  1  0  0  0  0
 11 64  1  0  0  0  0
 12 13  1  6  0  0  0
 12 14  1  0  0  0  0
 12 52  1  0  0  0  0
 14 15  1  1  0  0  0
 14 16  1  0  0  0  0
 14 51  1  0  0  0  0
 16 17  1  6  0  0  0
 16 18  1  0  0  0  0
 16 50  1  0  0  0  0
 18 19  1  0  0  0  0
 18 65  1  0  0  0  0
 18 66  1  0  0  0  0
 20 19  1  6  0  0  0
 20 21  2  0  0  0  0
 20 22  1  0  0  0  0
 20 49  1  0  0  0  0
 23 25  1  1  0  0  0
 23 48  1  0  0  0  0
 23 24  2  0  0  0  0
 23 22  1  0  0  0  0
 25 26  1  0  0  0  0
 26 27  1  0  0  0  0
 26 67  1  0  0  0  0
 26 68  1  0  0  0  0
 27 28  1  6  0  0  0
 27 29  1  0  0  0  0
 27 34  1  0  0  0  0
 29 30  1  0  0  0  0
 30 32  1  0  0  0  0
 30 38  1  0  0  0  0
 30 31  1  6  0  0  0
 32 33  1  1  0  0  0
 32 34  1  0  0  0  0
 32 37  1  0  0  0  0
 34 35  1  1  0  0  0
 34 36  1  0  0  0  0
 36 69  1  0  0  0  0
 37 70  1  0  0  0  0
 38 39  1  0  0  0  0
 38 42  1  0  0  0  0
 39 40  2  0  0  0  0
 39 71  1  0  0  0  0
 40 41  1  0  0  0  0
 41 42  2  0  0  0  0
 41 46  1  0  0  0  0
 42 43  1  0  0  0  0
 43 44  2  0  0  0  0
 44 45  1  0  0  0  0
 44 72  1  0  0  0  0
 45 46  2  0  0  0  0
 46 47  1  0  0  0  0
 47 73  1  0  0  0  0
 47 74  1  0  0  0  0
 48 75  1  0  0  0  0
 49 76  1  0  0  0  0
 50 77  1  0  0  0  0
 51 78  1  0  0  0  0
 52 79  1  0  0  0  0
 53 54  2  0  0  0  0
 53 59  1  0  0  0  0
 54 55  1  0  0  0  0
 54 56  1  0  0  0  0
 55 80  1  0  0  0  0
 56 57  2  0  0  0  0
 56 81  1  0  0  0  0
 57 58  1  0  0  0  0
 57 61  1  0  0  0  0
 58 59  2  0  0  0  0
 58 60  1  0  0  0  0
 59 82  1  0  0  0  0
 60 83  1  0  0  0  0
 60 84  1  0  0  0  0
 60 85  1  0  0  0  0
 61 86  1  0  0  0  0
 61 87  1  0  0  0  0
 61 88  1  0  0  0  0
M  END
$$$$
