FAB
 OpenBabel04121316113D

 97102  0  0  1  0  0  0  0  0999 V2000
    3.5219   -0.9648   -7.0601 O   0  0  0  0  0  0  0  0  0  0  0  0
    2.5550   -1.2504   -7.7643 C   0  0  0  0  0  0  0  0  0  0  0  0
    1.7746   -0.2625   -8.2116 N   0  0  0  0  0  0  0  0  0  0  0  0
    2.0940    0.6830   -8.0273 H   0  0  0  0  0  0  0  0  0  0  0  0
    0.8290   -0.4012   -9.1632 C   0  0  0  0  0  0  0  0  0  0  0  0
    0.5788    0.5759   -9.8089 O   0  0  0  0  0  0  0  0  0  0  0  0
    0.3220   -1.8620   -9.3662 C   0  0  0  0  0  0  0  0  0  0  0  0
    1.1343   -2.9129   -8.6343 C   0  0  0  0  0  0  0  0  0  0  0  0
    2.2622   -2.5466   -8.1086 N   0  0  0  0  0  0  0  0  0  0  0  0
    0.5975   -4.2164   -8.4969 N   0  0  0  0  0  0  0  0  0  0  0  0
    1.0547   -5.2178   -7.5086 C   0  0  0  0  0  0  0  0  0  0  0  0
    2.0609   -4.6887   -6.5067 C   0  0  1  0  0  0  0  0  0  0  0  0
    2.9315   -4.3094   -7.0477 H   0  0  0  0  0  0  0  0  0  0  0  0
    1.3837   -3.6358   -5.5749 C   0  0  1  0  0  0  0  0  0  0  0  0
    0.7734   -4.1751   -4.8484 H   0  0  0  0  0  0  0  0  0  0  0  0
    2.4728   -2.8747   -4.8093 C   0  0  1  0  0  0  0  0  0  0  0  0
    3.2478   -2.5082   -5.4845 H   0  0  0  0  0  0  0  0  0  0  0  0
    1.8670   -1.7190   -3.9857 C   0  0  0  0  0  0  0  0  0  0  0  0
    0.9741   -0.8426   -4.6824 O   0  0  0  0  0  0  0  0  0  0  0  0
    0.7599    0.6922   -4.1664 P   0  0  2  0  0  0  0  0  0  0  0  0
    1.9062    1.0336   -3.2568 O   0  0  0  0  0  0  0  0  0  0  0  0
   -0.7473    0.6567   -3.4228 O   0  0  0  0  0  0  0  0  0  0  0  0
   -0.8896   -0.1560   -1.9022 P   0  0  1  0  0  0  0  0  0  0  0  0
    0.5426    0.0113   -1.4390 O   0  0  0  0  0  0  0  0  0  0  0  0
   -1.8018    1.1139   -1.3080 O   0  0  0  0  0  0  0  0  0  0  0  0
   -1.8761    2.2777   -2.1419 C   0  0  0  0  0  0  0  0  0  0  0  0
   -2.6218    3.4665   -1.5806 C   0  0  1  0  0  0  0  0  0  0  0  0
   -3.6934    3.2299   -1.5893 H   0  0  0  0  0  0  0  0  0  0  0  0
   -2.2413    3.8019   -0.2428 O   0  0  0  0  0  0  0  0  0  0  0  0
   -2.6448    5.1620   -0.0719 C   0  0  2  0  0  0  0  0  0  0  0  0
   -3.7197    5.1742    0.1523 H   0  0  0  0  0  0  0  0  0  0  0  0
   -2.3622    5.8597   -1.4154 C   0  0  1  0  0  0  0  0  0  0  0  0
   -1.3854    6.3592   -1.4008 H   0  0  0  0  0  0  0  0  0  0  0  0
   -2.3280    4.7127   -2.4266 C   0  0  2  0  0  0  0  0  0  0  0  0
   -1.3289    4.6736   -2.8796 H   0  0  0  0  0  0  0  0  0  0  0  0
   -3.2655    4.8591   -3.4917 O   0  0  0  0  0  0  0  0  0  0  0  0
   -3.3478    6.8290   -1.7886 O   0  0  0  0  0  0  0  0  0  0  0  0
   -1.9977    5.8032    1.0659 N   0  0  0  0  0  0  0  0  0  0  0  0
   -2.2769    7.1003    1.4378 C   0  0  0  0  0  0  0  0  0  0  0  0
   -1.6354    7.4707    2.5199 N   0  0  0  0  0  0  0  0  0  0  0  0
   -0.9180    6.3542    2.8876 C   0  0  0  0  0  0  0  0  0  0  0  0
   -1.1220    5.3072    1.9975 C   0  0  0  0  0  0  0  0  0  0  0  0
   -0.5686    4.0886    2.0801 N   0  0  0  0  0  0  0  0  0  0  0  0
    0.2398    3.9786    3.1525 C   0  0  0  0  0  0  0  0  0  0  0  0
    0.5168    4.9079    4.0970 N   0  0  0  0  0  0  0  0  0  0  0  0
   -0.0629    6.1209    3.9784 C   0  0  0  0  0  0  0  0  0  0  0  0
    0.1953    7.0808    4.9330 N   0  0  0  0  0  0  0  0  0  0  0  0
   -1.0319   -0.9686   -0.3816 O   0  0  0  0  0  0  0  0  0  0  0  0
    0.5904    1.5209   -5.4229 O   0  5  0  0  0  0  0  0  0  0  0  0
    3.1612   -3.7992   -3.9426 O   0  0  0  0  0  0  0  0  0  0  0  0
    0.4716   -2.7363   -6.2232 O   0  0  0  0  0  0  0  0  0  0  0  0
    2.5843   -5.7708   -5.7237 O   0  0  0  0  0  0  0  0  0  0  0  0
   -0.5143   -4.6015   -9.2657 C   0  0  0  0  0  0  0  0  0  0  0  0
   -1.0343   -3.6791  -10.1621 C   0  0  0  0  0  0  0  0  0  0  0  0
   -0.6586   -2.2703  -10.1311 N   0  3  0  0  0  0  0  0  0  0  0  0
   -1.4487   -1.1881  -11.0105 C   0  0  0  0  0  0  0  0  0  0  0  0
   -1.0074   -0.0796  -11.0878 O   0  0  0  0  0  0  0  0  0  0  0  0
   -2.6090   -1.5358  -11.8715 C   0  0  0  0  0  0  0  0  0  0  0  0
   -3.7955   -1.9814  -11.0145 C   0  0  0  0  0  0  0  0  0  0  0  0
   -2.9767   -0.3378  -12.7113 C   0  0  0  0  0  0  0  0  0  0  0  0
   -1.9592   -4.1969  -11.0740 C   0  0  0  0  0  0  0  0  0  0  0  0
   -2.6154   -5.4134  -11.0036 C   0  0  0  0  0  0  0  0  0  0  0  0
   -2.1342   -6.3183  -10.0967 C   0  0  0  0  0  0  0  0  0  0  0  0
   -1.0796   -5.9186   -9.2472 C   0  0  0  0  0  0  0  0  0  0  0  0
   -2.6516   -7.7217  -10.1195 C   0  0  0  0  0  0  0  0  0  0  0  0
   -3.7712   -5.6531  -11.9440 C   0  0  0  0  0  0  0  0  0  0  0  0
    1.4783   -6.0809   -8.0357 H   0  0  0  0  0  0  0  0  0  0  0  0
    0.2102   -5.6080   -6.9139 H   0  0  0  0  0  0  0  0  0  0  0  0
    2.7068   -1.1934   -3.5269 H   0  0  0  0  0  0  0  0  0  0  0  0
    1.2683   -2.1814   -3.2021 H   0  0  0  0  0  0  0  0  0  0  0  0
   -2.4219    1.9952   -3.0544 H   0  0  0  0  0  0  0  0  0  0  0  0
   -0.8572    2.5946   -2.3976 H   0  0  0  0  0  0  0  0  0  0  0  0
   -3.1305    5.7602   -3.8418 H   0  0  0  0  0  0  0  0  0  0  0  0
   -3.3414    7.5505   -1.1405 H   0  0  0  0  0  0  0  0  0  0  0  0
   -2.9602    7.7332    0.8919 H   0  0  0  0  0  0  0  0  0  0  0  0
    0.7316    3.0175    3.2779 H   0  0  0  0  0  0  0  0  0  0  0  0
    0.8348    6.8584    5.6773 H   0  0  0  0  0  0  0  0  0  0  0  0
   -0.2257    7.9926    4.8281 H   0  0  0  0  0  0  0  0  0  0  0  0
   -0.1941   -1.4626   -0.2989 H   0  0  0  0  0  0  0  0  0  0  0  0
    3.4684   -4.5412   -4.5021 H   0  0  0  0  0  0  0  0  0  0  0  0
   -0.2341   -3.2261   -6.6576 H   0  0  0  0  0  0  0  0  0  0  0  0
    3.0970   -6.3500   -6.3168 H   0  0  0  0  0  0  0  0  0  0  0  0
   -2.2088   -2.2020  -12.6412 H   0  0  0  0  0  0  0  0  0  0  0  0
   -4.1477   -1.1565  -10.3931 H   0  0  0  0  0  0  0  0  0  0  0  0
   -3.5941   -2.7627  -10.2740 H   0  0  0  0  0  0  0  0  0  0  0  0
   -4.5966   -2.3552  -11.6545 H   0  0  0  0  0  0  0  0  0  0  0  0
   -3.3041    0.4771  -12.0652 H   0  0  0  0  0  0  0  0  0  0  0  0
   -3.7574   -0.6212  -13.4158 H   0  0  0  0  0  0  0  0  0  0  0  0
   -2.0981   -0.0052  -13.2802 H   0  0  0  0  0  0  0  0  0  0  0  0
   -2.3160   -3.6974  -11.9359 H   0  0  0  0  0  0  0  0  0  0  0  0
   -0.6945   -6.6945   -8.5862 H   0  0  0  0  0  0  0  0  0  0  0  0
   -3.4548   -7.8497  -10.8537 H   0  0  0  0  0  0  0  0  0  0  0  0
   -3.0576   -7.9901   -9.1451 H   0  0  0  0  0  0  0  0  0  0  0  0
   -1.8442   -8.3911  -10.4247 H   0  0  0  0  0  0  0  0  0  0  0  0
   -4.0689   -4.7411  -12.4794 H   0  0  0  0  0  0  0  0  0  0  0  0
   -4.6583   -5.9699  -11.3860 H   0  0  0  0  0  0  0  0  0  0  0  0
   -3.4938   -6.3942  -12.6953 H   0  0  0  0  0  0  0  0  0  0  0  0
  1  2  2  0  0  0  0
  2  3  1  0  0  0  0
  2  9  1  0  0  0  0
  3  4  1  0  0  0  0
  3  5  1  0  0  0  0
  5  6  2  0  0  0  0
  5  7  1  0  0  0  0
  7  8  1  0  0  0  0
  7 55  2  0  0  0  0
  8  9  2  0  0  0  0
  8 10  1  0  0  0  0
 10 11  1  0  0  0  0
 10 53  1  0  0  0  0
 11 12  1  0  0  0  0
 11 67  1  0  0  0  0
 11 68  1  0  0  0  0
 12 13  1  6  0  0  0
 12 14  1  0  0  0  0
 12 52  1  0  0  0  0
 14 15  1  1  0  0  0
 14 16  1  0  0  0  0
 14 51  1  0  0  0  0
 16 17  1  6  0  0  0
 16 18  1  0  0  0  0
 16 50  1  0  0  0  0
 18 19  1  0  0  0  0
 18 69  1  0  0  0  0
 18 70  1  0  0  0  0
 20 22  1  1  0  0  0
 20 49  1  0  0  0  0
 20 21  2  0  0  0  0
 20 19  1  0  0  0  0
 23 22  1  6  0  0  0
 23 24  2  0  0  0  0
 23 25  1  0  0  0  0
 23 48  1  0  0  0  0
 25 26  1  0  0  0  0
 26 27  1  0  0  0  0
 26 71  1  0  0  0  0
 26 72  1  0  0  0  0
 27 28  1  6  0  0  0
 27 29  1  0  0  0  0
 27 34  1  0  0  0  0
 29 30  1  0  0  0  0
 30 32  1  0  0  0  0
 30 38  1  0  0  0  0
 30 31  1  1  0  0  0
 32 33  1  1  0  0  0
 32 34  1  0  0  0  0
 32 37  1  0  0  0  0
 34 35  1  6  0  0  0
 34 36  1  0  0  0  0
 36 73  1  0  0  0  0
 37 74  1  0  0  0  0
 38 39  1  0  0  0  0
 38 42  1  0  0  0  0
 39 40  2  0  0  0  0
 39 75  1  0  0  0  0
 40 41  1  0  0  0  0
 41 42  2  0  0  0  0
 41 46  1  0  0  0  0
 42 43  1  0  0  0  0
 43 44  2  0  0  0  0
 44 45  1  0  0  0  0
 44 76  1  0  0  0  0
 45 46  2  0  0  0  0
 46 47  1  0  0  0  0
 47 77  1  0  0  0  0
 47 78  1  0  0  0  0
 48 79  1  0  0  0  0
 50 80  1  0  0  0  0
 51 81  1  0  0  0  0
 52 82  1  0  0  0  0
 53 54  2  0  0  0  0
 53 64  1  0  0  0  0
 54 55  1  0  0  0  0
 54 61  1  0  0  0  0
 55 56  1  0  0  0  0
 56 57  2  0  0  0  0
 56 58  1  0  0  0  0
 58 59  1  0  0  0  0
 58 60  1  0  0  0  0
 58 83  1  0  0  0  0
 59 84  1  0  0  0  0
 59 85  1  0  0  0  0
 59 86  1  0  0  0  0
 60 87  1  0  0  0  0
 60 88  1  0  0  0  0
 60 89  1  0  0  0  0
 61 62  2  0  0  0  0
 61 90  1  0  0  0  0
 62 63  1  0  0  0  0
 62 66  1  0  0  0  0
 63 64  2  0  0  0  0
 63 65  1  0  0  0  0
 64 91  1  0  0  0  0
 65 92  1  0  0  0  0
 65 93  1  0  0  0  0
 65 94  1  0  0  0  0
 66 95  1  0  0  0  0
 66 96  1  0  0  0  0
 66 97  1  0  0  0  0
M  CHG  2  49  -1  55   1
M  END
$$$$
