FAH
 OpenBabel04121316113D

  8  7  0  0  0  0  0  0  0  0999 V2000
    0.9627    0.1208   -0.1473 O   0  0  0  0  0  0  0  0  0  0  0  0
    2.3065    0.0354   -0.0248 C   0  0  0  0  0  0  0  0  0  0  0  0
    2.7956   -0.6223    0.8793 O   0  0  0  0  0  0  0  0  0  0  0  0
    3.0339    0.8128   -1.0914 C   0  0  0  0  0  0  0  0  0  0  0  0
    4.3904    0.7254   -0.9708 F   0  0  0  0  0  0  0  0  0  0  0  0
    0.6199   -0.4238    0.5941 H   0  0  0  0  0  0  0  0  0  0  0  0
    2.7657    1.8699   -1.0195 H   0  0  0  0  0  0  0  0  0  0  0  0
    2.7662    0.4194   -2.0753 H   0  0  0  0  0  0  0  0  0  0  0  0
  1  2  1  0  0  0  0
  1  6  1  0  0  0  0
  2  3  2  0  0  0  0
  2  4  1  0  0  0  0
  4  5  1  0  0  0  0
  4  7  1  0  0  0  0
  4  8  1  0  0  0  0
M  END
$$$$
