FAO
 OpenBabel04121316113D

 90 95  0  0  1  0  0  0  0  0999 V2000
   12.3976    1.5861    4.3282 O   0  0  0  0  0  0  0  0  0  0  0  0
   11.2450    2.0229    4.3916 C   0  0  0  0  0  0  0  0  0  0  0  0
   10.6178    2.2950    5.5642 N   0  0  0  0  0  0  0  0  0  0  0  0
    9.6564    1.3685    5.9268 C   0  0  0  0  0  0  0  0  0  0  0  0
    9.4950    0.9879    7.0597 O   0  0  0  0  0  0  0  0  0  0  0  0
    8.6443    1.1337    4.8241 C   0  0  2  0  0  0  0  0  0  0  0  0
    8.1004    0.1927    4.9530 H   0  0  0  0  0  0  0  0  0  0  0  0
    9.3444    1.0938    3.4440 C   0  0  2  0  0  0  0  0  0  0  0  0
    9.8499    0.1273    3.3185 H   0  0  0  0  0  0  0  0  0  0  0  0
   10.4278    2.0291    3.2897 N   0  0  0  0  0  0  0  0  0  0  0  0
    8.3969    1.3001    2.3455 N   0  0  0  0  0  0  0  0  0  0  0  0
    8.4421    0.3027    1.2305 C   0  0  0  0  0  0  0  0  0  0  0  0
    8.0162    0.8484   -0.1277 C   0  0  1  0  0  0  0  0  0  0  0  0
    6.9366    0.9843   -0.1385 H   0  0  0  0  0  0  0  0  0  0  0  0
    8.8640    2.1017   -0.4098 C   0  0  1  0  0  0  0  0  0  0  0  0
    9.8840    1.7833   -0.6253 H   0  0  0  0  0  0  0  0  0  0  0  0
    8.3298    2.8707   -1.5776 C   0  0  1  0  0  0  0  0  0  0  0  0
    7.3473    3.2637   -1.3042 H   0  0  0  0  0  0  0  0  0  0  0  0
    9.3570    3.9837   -1.7100 C   0  0  0  0  0  0  0  0  0  0  0  0
    8.8621    5.2058   -0.6366 O   0  0  0  0  0  0  0  0  0  0  0  0
    9.7943    6.6330   -0.9316 P   0  0  1  0  0  0  0  0  0  0  0  0
   10.4505    6.1715   -2.2287 O   0  0  0  0  0  0  0  0  0  0  0  0
    8.3860    7.4619   -1.0323 O   0  0  0  0  0  0  0  0  0  0  0  0
    7.8471    5.9318   -0.7327 P   0  0  2  0  0  0  0  0  0  0  0  0
    7.9556    5.5723   -2.2306 O   0  0  0  0  0  0  0  0  0  0  0  0
    6.1489    6.0533   -0.9275 O   0  0  0  0  0  0  0  0  0  0  0  0
    5.5942    5.3208   -2.1344 C   0  0  0  0  0  0  0  0  0  0  0  0
    4.1152    4.8196   -2.1214 C   0  0  1  0  0  0  0  0  0  0  0  0
    3.7757    4.8781   -3.1630 H   0  0  0  0  0  0  0  0  0  0  0  0
    3.8918    3.4024   -1.7536 O   0  0  0  0  0  0  0  0  0  0  0  0
    2.5208    3.3071   -1.2237 C   0  0  2  0  0  0  0  0  0  0  0  0
    1.8718    3.1413   -2.0895 H   0  0  0  0  0  0  0  0  0  0  0  0
    2.2270    4.6911   -0.5973 C   0  0  1  0  0  0  0  0  0  0  0  0
    2.3373    4.6321    0.4892 H   0  0  0  0  0  0  0  0  0  0  0  0
    3.2694    5.6578   -1.1957 C   0  0  2  0  0  0  0  0  0  0  0  0
    3.8834    6.0969   -0.4075 H   0  0  0  0  0  0  0  0  0  0  0  0
    2.7433    6.7821   -1.8726 O   0  0  0  0  0  0  0  0  0  0  0  0
    0.9117    5.1792   -0.8045 O   0  0  0  0  0  0  0  0  0  0  0  0
    2.2809    2.1414   -0.3085 N   0  0  0  0  0  0  0  0  0  0  0  0
    2.9158    1.6991    0.8323 C   0  0  0  0  0  0  0  0  0  0  0  0
    2.3488    0.6847    1.4360 N   0  0  0  0  0  0  0  0  0  0  0  0
    1.2519    0.4451    0.6884 C   0  0  0  0  0  0  0  0  0  0  0  0
    1.1645    1.3224   -0.3854 C   0  0  0  0  0  0  0  0  0  0  0  0
    0.1732    1.3537   -1.2869 N   0  0  0  0  0  0  0  0  0  0  0  0
   -0.7325    0.3765   -1.0315 C   0  0  0  0  0  0  0  0  0  0  0  0
   -0.7572   -0.5354   -0.0279 N   0  0  0  0  0  0  0  0  0  0  0  0
    0.2481   -0.5103    0.8653 C   0  0  0  0  0  0  0  0  0  0  0  0
    0.2785   -1.3983    1.9189 N   0  0  0  0  0  0  0  0  0  0  0  0
    7.7256    6.3345    0.9454 O   0  0  0  0  0  0  0  0  0  0  0  0
   10.7266    8.0601   -1.2266 O   0  0  0  0  0  0  0  0  0  0  0  0
    8.1663    2.1306   -2.7724 O   0  0  0  0  0  0  0  0  0  0  0  0
    8.9906    3.0884    0.6369 O   0  0  0  0  0  0  0  0  0  0  0  0
    8.1619   -0.0875   -1.1981 O   0  0  0  0  0  0  0  0  0  0  0  0
    7.2939    2.1185    2.6481 C   0  0  0  0  0  0  0  0  0  0  0  0
    7.0709    2.7183    3.8960 C   0  0  0  0  0  0  0  0  0  0  0  0
    7.7226    2.2500    5.0080 N   0  0  0  0  0  0  0  0  0  0  0  0
    6.0978    3.7289    4.1146 C   0  0  0  0  0  0  0  0  0  0  0  0
    5.3103    4.1893    3.0933 C   0  0  0  0  0  0  0  0  0  0  0  0
    5.5742    3.6256    1.8836 C   0  0  0  0  0  0  0  0  0  0  0  0
    6.4851    2.6168    1.6794 C   0  0  0  0  0  0  0  0  0  0  0  0
    4.9488    4.0446    0.6531 C   0  0  0  0  0  0  0  0  0  0  0  0
    4.2169    5.1975    3.2156 C   0  0  0  0  0  0  0  0  0  0  0  0
   11.2170    2.5046    6.3511 H   0  0  0  0  0  0  0  0  0  0  0  0
   10.2404    2.9480    2.9041 H   0  0  0  0  0  0  0  0  0  0  0  0
    9.4779   -0.0392    1.0884 H   0  0  0  0  0  0  0  0  0  0  0  0
    7.8535   -0.5845    1.4739 H   0  0  0  0  0  0  0  0  0  0  0  0
    9.3389    4.3062   -2.7681 H   0  0  0  0  0  0  0  0  0  0  0  0
   10.3976    3.7565   -1.4820 H   0  0  0  0  0  0  0  0  0  0  0  0
    6.1771    4.4217   -2.3570 H   0  0  0  0  0  0  0  0  0  0  0  0
    5.7200    6.0261   -2.9616 H   0  0  0  0  0  0  0  0  0  0  0  0
    2.2432    7.2689   -1.1942 H   0  0  0  0  0  0  0  0  0  0  0  0
    0.3014    4.5526   -0.3801 H   0  0  0  0  0  0  0  0  0  0  0  0
    3.7947    2.0786    1.3007 H   0  0  0  0  0  0  0  0  0  0  0  0
   -1.5587    0.3128   -1.7317 H   0  0  0  0  0  0  0  0  0  0  0  0
   -0.4486   -2.0865    2.0086 H   0  0  0  0  0  0  0  0  0  0  0  0
    1.0546   -1.3492    2.5681 H   0  0  0  0  0  0  0  0  0  0  0  0
    7.6121    5.4887    1.4233 H   0  0  0  0  0  0  0  0  0  0  0  0
   11.5347    7.7581   -1.6850 H   0  0  0  0  0  0  0  0  0  0  0  0
    7.6784    1.3137   -2.5569 H   0  0  0  0  0  0  0  0  0  0  0  0
    9.0642    2.5947    1.4702 H   0  0  0  0  0  0  0  0  0  0  0  0
    7.4067   -0.7037   -1.1413 H   0  0  0  0  0  0  0  0  0  0  0  0
    7.8789    2.9004    5.7689 H   0  0  0  0  0  0  0  0  0  0  0  0
    5.9650    4.1471    5.1044 H   0  0  0  0  0  0  0  0  0  0  0  0
    6.5802    2.4219    0.6372 H   0  0  0  0  0  0  0  0  0  0  0  0
    4.2157    4.7920    0.8539 H   0  0  0  0  0  0  0  0  0  0  0  0
    4.5371    3.1877    0.1699 H   0  0  0  0  0  0  0  0  0  0  0  0
    5.7119    4.3254   -0.0314 H   0  0  0  0  0  0  0  0  0  0  0  0
    4.1152    5.5688    4.2309 H   0  0  0  0  0  0  0  0  0  0  0  0
    3.2648    4.7366    2.9141 H   0  0  0  0  0  0  0  0  0  0  0  0
    4.4075    6.0496    2.5493 H   0  0  0  0  0  0  0  0  0  0  0  0
  1  2  2  0  0  0  0
  2  3  1  0  0  0  0
  2 10  1  0  0  0  0
  3  4  1  0  0  0  0
  3 63  1  0  0  0  0
  4  6  1  0  0  0  0
  4  5  2  0  0  0  0
  6  8  1  0  0  0  0
  6 56  1  0  0  0  0
  6  7  1  1  0  0  0
  8 10  1  0  0  0  0
  8 11  1  0  0  0  0
  8  9  1  6  0  0  0
 10 64  1  0  0  0  0
 11 54  1  0  0  0  0
 11 12  1  0  0  0  0
 12 13  1  0  0  0  0
 12 65  1  0  0  0  0
 12 66  1  0  0  0  0
 13 14  1  1  0  0  0
 13 15  1  0  0  0  0
 13 53  1  0  0  0  0
 15 16  1  6  0  0  0
 15 17  1  0  0  0  0
 15 52  1  0  0  0  0
 17 18  1  1  0  0  0
 17 19  1  0  0  0  0
 17 51  1  0  0  0  0
 19 20  1  0  0  0  0
 19 67  1  0  0  0  0
 19 68  1  0  0  0  0
 21 20  1  1  0  0  0
 21 22  2  0  0  0  0
 21 23  1  0  0  0  0
 21 50  1  0  0  0  0
 24 26  1  6  0  0  0
 24 49  1  0  0  0  0
 24 25  2  0  0  0  0
 24 23  1  0  0  0  0
 26 27  1  0  0  0  0
 27 28  1  0  0  0  0
 27 69  1  0  0  0  0
 27 70  1  0  0  0  0
 28 29  1  6  0  0  0
 28 30  1  0  0  0  0
 28 35  1  0  0  0  0
 30 31  1  0  0  0  0
 31 33  1  0  0  0  0
 31 39  1  0  0  0  0
 31 32  1  6  0  0  0
 33 34  1  1  0  0  0
 33 35  1  0  0  0  0
 33 38  1  0  0  0  0
 35 36  1  1  0  0  0
 35 37  1  0  0  0  0
 37 71  1  0  0  0  0
 38 72  1  0  0  0  0
 39 40  1  0  0  0  0
 39 43  1  0  0  0  0
 40 41  2  0  0  0  0
 40 73  1  0  0  0  0
 41 42  1  0  0  0  0
 42 43  2  0  0  0  0
 42 47  1  0  0  0  0
 43 44  1  0  0  0  0
 44 45  2  0  0  0  0
 45 46  1  0  0  0  0
 45 74  1  0  0  0  0
 46 47  2  0  0  0  0
 47 48  1  0  0  0  0
 48 75  1  0  0  0  0
 48 76  1  0  0  0  0
 49 77  1  0  0  0  0
 50 78  1  0  0  0  0
 51 79  1  0  0  0  0
 52 80  1  0  0  0  0
 53 81  1  0  0  0  0
 54 55  2  0  0  0  0
 54 60  1  0  0  0  0
 55 56  1  0  0  0  0
 55 57  1  0  0  0  0
 56 82  1  0  0  0  0
 57 58  2  0  0  0  0
 57 83  1  0  0  0  0
 58 59  1  0  0  0  0
 58 62  1  0  0  0  0
 59 60  2  0  0  0  0
 59 61  1  0  0  0  0
 60 84  1  0  0  0  0
 61 85  1  0  0  0  0
 61 86  1  0  0  0  0
 61 87  1  0  0  0  0
 62 88  1  0  0  0  0
 62 89  1  0  0  0  0
 62 90  1  0  0  0  0
M  END
$$$$
