FAR
 OpenBabel04121316113D

 41 40  0  0  0  0  0  0  0  0999 V2000
    0.7946    0.1178   -0.0647 C   0  0  0  0  0  0  0  0  0  0  0  0
    2.2740    0.0763   -0.0097 C   0  0  0  0  0  0  0  0  0  0  0  0
    2.9976   -0.6106    0.8967 C   0  0  0  0  0  0  0  0  0  0  0  0
    4.5082   -0.6144    0.9037 C   0  0  0  0  0  0  0  0  0  0  0  0
    5.0586    0.2426   -0.2249 C   0  0  0  0  0  0  0  0  0  0  0  0
    6.5296    0.2786   -0.2703 C   0  0  0  0  0  0  0  0  0  0  0  0
    7.2110    0.9760   -1.1887 C   0  0  0  0  0  0  0  0  0  0  0  0
    8.7191    0.9959   -1.2148 C   0  0  0  0  0  0  0  0  0  0  0  0
    9.2951    0.1444   -0.0936 C   0  0  0  0  0  0  0  0  0  0  0  0
   10.7736    0.1033   -0.0397 C   0  0  0  0  0  0  0  0  0  0  0  0
   11.4107   -0.6089    0.8983 C   0  0  0  0  0  0  0  0  0  0  0  0
   10.7013   -1.4162    1.9615 C   0  0  0  0  0  0  0  0  0  0  0  0
   12.9050   -0.6283    0.9238 C   0  0  0  0  0  0  0  0  0  0  0  0
    6.5365    1.7909   -2.2624 C   0  0  0  0  0  0  0  0  0  0  0  0
    2.3680   -1.4337    1.9812 C   0  0  0  0  0  0  0  0  0  0  0  0
    0.4777    0.7498   -0.8984 H   0  0  0  0  0  0  0  0  0  0  0  0
    0.4028    0.5453    0.8609 H   0  0  0  0  0  0  0  0  0  0  0  0
    0.4028   -0.8888   -0.2261 H   0  0  0  0  0  0  0  0  0  0  0  0
    2.7457    0.6689   -0.7909 H   0  0  0  0  0  0  0  0  0  0  0  0
    4.8785   -1.6439    0.8010 H   0  0  0  0  0  0  0  0  0  0  0  0
    4.8770   -0.2377    1.8678 H   0  0  0  0  0  0  0  0  0  0  0  0
    4.7119    1.2754   -0.0954 H   0  0  0  0  0  0  0  0  0  0  0  0
    4.7135   -0.1606   -1.1851 H   0  0  0  0  0  0  0  0  0  0  0  0
    7.0099   -0.3115    0.5074 H   0  0  0  0  0  0  0  0  0  0  0  0
    9.0693    2.0290   -1.1091 H   0  0  0  0  0  0  0  0  0  0  0  0
    9.0693    0.6166   -2.1816 H   0  0  0  0  0  0  0  0  0  0  0  0
    8.9399   -0.8894   -0.2156 H   0  0  0  0  0  0  0  0  0  0  0  0
    8.9400    0.5395    0.8695 H   0  0  0  0  0  0  0  0  0  0  0  0
   11.3189    0.6723   -0.7891 H   0  0  0  0  0  0  0  0  0  0  0  0
    9.6084   -1.3661    1.8956 H   0  0  0  0  0  0  0  0  0  0  0  0
   10.9665   -1.0517    2.9576 H   0  0  0  0  0  0  0  0  0  0  0  0
   10.9665   -2.4736    1.8780 H   0  0  0  0  0  0  0  0  0  0  0  0
   13.3247   -0.0160    0.1174 H   0  0  0  0  0  0  0  0  0  0  0  0
   13.2690   -1.6499    0.7917 H   0  0  0  0  0  0  0  0  0  0  0  0
   13.2690   -0.2266    1.8724 H   0  0  0  0  0  0  0  0  0  0  0  0
    5.4441    1.7506   -2.2093 H   0  0  0  0  0  0  0  0  0  0  0  0
    6.8189    1.4203   -3.2510 H   0  0  0  0  0  0  0  0  0  0  0  0
    6.8188    2.8429   -2.1710 H   0  0  0  0  0  0  0  0  0  0  0  0
    1.2765   -1.4060    1.9431 H   0  0  0  0  0  0  0  0  0  0  0  0
    2.6713   -1.0586    2.9629 H   0  0  0  0  0  0  0  0  0  0  0  0
    2.6727   -2.4798    1.8850 H   0  0  0  0  0  0  0  0  0  0  0  0
  1  2  1  0  0  0  0
  1 16  1  0  0  0  0
  1 17  1  0  0  0  0
  1 18  1  0  0  0  0
  2  3  2  0  0  0  0
  2 19  1  0  0  0  0
  3  4  1  0  0  0  0
  3 15  1  0  0  0  0
  4  5  1  0  0  0  0
  4 20  1  0  0  0  0
  4 21  1  0  0  0  0
  5  6  1  0  0  0  0
  5 22  1  0  0  0  0
  5 23  1  0  0  0  0
  6  7  2  0  0  0  0
  6 24  1  0  0  0  0
  7  8  1  0  0  0  0
  7 14  1  0  0  0  0
  8  9  1  0  0  0  0
  8 25  1  0  0  0  0
  8 26  1  0  0  0  0
  9 10  1  0  0  0  0
  9 27  1  0  0  0  0
  9 28  1  0  0  0  0
 10 11  2  0  0  0  0
 10 29  1  0  0  0  0
 11 12  1  0  0  0  0
 11 13  1  0  0  0  0
 12 30  1  0  0  0  0
 12 31  1  0  0  0  0
 12 32  1  0  0  0  0
 13 33  1  0  0  0  0
 13 34  1  0  0  0  0
 13 35  1  0  0  0  0
 14 36  1  0  0  0  0
 14 37  1  0  0  0  0
 14 38  1  0  0  0  0
 15 39  1  0  0  0  0
 15 40  1  0  0  0  0
 15 41  1  0  0  0  0
M  END
$$$$
