FB1
 OpenBabel04121316113D

 17 17  0  0  0  0  0  0  0  0999 V2000
    0.9600    0.3696    0.1571 Cl  0  0  0  0  0  0  0  0  0  0  0  0
    2.6687    0.1460    0.0772 C   0  0  0  0  0  0  0  0  0  0  0  0
    3.4033    1.3386    0.0710 C   0  0  0  0  0  0  0  0  0  0  0  0
    4.7794    1.3319   -0.1397 C   0  0  0  0  0  0  0  0  0  0  0  0
    5.4570    0.1217   -0.2162 C   0  0  0  0  0  0  0  0  0  0  0  0
    4.7513   -1.0772   -0.0883 C   0  0  0  0  0  0  0  0  0  0  0  0
    3.3430   -1.0731   -0.0081 C   0  0  0  0  0  0  0  0  0  0  0  0
    2.5666   -2.6649   -0.1042 S   0  0  0  0  0  0  0  0  0  0  0  0
    2.8831   -3.2041   -1.4038 O   0  0  0  0  0  0  0  0  0  0  0  0
    2.8776   -3.3606    1.1262 O   0  0  0  0  0  0  0  0  0  0  0  0
    0.9139   -2.4184   -0.0997 N   0  0  0  0  0  0  0  0  0  0  0  0
    2.8946    2.2908    0.2079 H   0  0  0  0  0  0  0  0  0  0  0  0
    5.3153    2.2726   -0.2401 H   0  0  0  0  0  0  0  0  0  0  0  0
    6.5333    0.1151   -0.3767 H   0  0  0  0  0  0  0  0  0  0  0  0
    5.3070   -2.0156   -0.0742 H   0  0  0  0  0  0  0  0  0  0  0  0
    0.5982   -1.9094   -0.9261 H   0  0  0  0  0  0  0  0  0  0  0  0
    0.5875   -2.0061    0.7745 H   0  0  0  0  0  0  0  0  0  0  0  0
  1  2  1  0  0  0  0
  2  3  2  0  0  0  0
  2  7  1  0  0  0  0
  3  4  1  0  0  0  0
  3 12  1  0  0  0  0
  4  5  2  0  0  0  0
  4 13  1  0  0  0  0
  5  6  1  0  0  0  0
  5 14  1  0  0  0  0
  6  7  2  0  0  0  0
  6 15  1  0  0  0  0
  7  8  1  0  0  0  0
  8  9  2  0  0  0  0
  8 10  2  0  0  0  0
  8 11  1  0  0  0  0
 11 16  1  0  0  0  0
 11 17  1  0  0  0  0
M  END
$$$$
