FB2
 OpenBabel04121316113D

 17 17  0  0  0  0  0  0  0  0999 V2000
    1.1984   -0.0205   -0.0762 N   0  0  0  0  0  0  0  0  0  0  0  0
    2.8853    0.0684   -0.0441 S   0  0  0  0  0  0  0  0  0  0  0  0
    3.2472    0.9855   -1.1062 O   0  0  0  0  0  0  0  0  0  0  0  0
    3.2468    0.2995    1.3298 O   0  0  0  0  0  0  0  0  0  0  0  0
    3.4017   -1.5656   -0.4967 C   0  0  0  0  0  0  0  0  0  0  0  0
    4.3197   -1.7496   -1.5343 C   0  0  0  0  0  0  0  0  0  0  0  0
    4.6001   -3.0420   -1.9829 C   0  0  0  0  0  0  0  0  0  0  0  0
    4.0574   -4.1442   -1.3222 C   0  0  0  0  0  0  0  0  0  0  0  0
    3.2524   -3.9574   -0.1984 C   0  0  0  0  0  0  0  0  0  0  0  0
    2.8822   -2.6683    0.1894 C   0  0  0  0  0  0  0  0  0  0  0  0
    0.8226    0.9269    0.0151 H   0  0  0  0  0  0  0  0  0  0  0  0
    0.8315   -0.6257    0.6558 H   0  0  0  0  0  0  0  0  0  0  0  0
    4.8129   -0.9000   -2.0014 H   0  0  0  0  0  0  0  0  0  0  0  0
    5.2427   -3.1927   -2.8474 H   0  0  0  0  0  0  0  0  0  0  0  0
    4.2719   -5.1499   -1.6771 H   0  0  0  0  0  0  0  0  0  0  0  0
    2.9070   -4.8191    0.3675 H   0  0  0  0  0  0  0  0  0  0  0  0
    2.2012   -2.5374    1.0247 H   0  0  0  0  0  0  0  0  0  0  0  0
  1  2  1  0  0  0  0
  1 11  1  0  0  0  0
  1 12  1  0  0  0  0
  2  3  2  0  0  0  0
  2  4  2  0  0  0  0
  2  5  1  0  0  0  0
  5  6  2  0  0  0  0
  5 10  1  0  0  0  0
  6  7  1  0  0  0  0
  6 13  1  0  0  0  0
  7  8  2  0  0  0  0
  7 14  1  0  0  0  0
  8  9  1  0  0  0  0
  8 15  1  0  0  0  0
  9 10  2  0  0  0  0
  9 16  1  0  0  0  0
 10 17  1  0  0  0  0
M  END
$$$$
