FB5
 OpenBabel04121316113D

 29 28  0  0  1  0  0  0  0  0999 V2000
    5.1540    9.4220    1.7926 O   0  0  0  0  0  0  0  0  0  0  0  0
    3.9055   10.0290    1.3470 B   0  0  0  0  0  0  0  0  0  0  0  0
    3.0762    9.3600    0.2103 C   0  0  0  0  0  0  0  0  0  0  0  0
    3.7831    8.0982   -0.2572 C   0  0  0  0  0  0  0  0  0  0  0  0
    2.9740    7.4454   -1.3661 C   0  0  0  0  0  0  0  0  0  0  0  0
    3.6809    6.1836   -1.8336 C   0  0  0  0  0  0  0  0  0  0  0  0
    2.8070    5.5527   -2.9054 C   0  0  2  0  0  0  0  0  0  0  0  0
    2.0660    4.4068   -2.3273 C   0  0  0  0  0  0  0  0  0  0  0  0
    1.1016    4.0614   -3.0037 O   0  0  0  0  0  0  0  0  0  0  0  0
    2.2713    3.8544   -1.1138 O   0  0  0  0  0  0  0  0  0  0  0  0
    3.6809    5.0656   -4.0497 C   0  0  0  0  0  0  0  0  0  0  0  0
    4.3459    6.0940   -4.5685 F   0  0  0  0  0  0  0  0  0  0  0  0
    4.5452    4.1631   -3.5944 F   0  0  0  0  0  0  0  0  0  0  0  0
    1.8518    6.5503   -3.4086 N   0  0  0  0  0  0  0  0  0  0  0  0
    3.4331   11.2622    1.9650 O   0  0  0  0  0  0  0  0  0  0  0  0
    5.3209    8.6141    1.2824 H   0  0  0  0  0  0  0  0  0  0  0  0
    2.9814   10.0404   -0.6100 H   0  0  0  0  0  0  0  0  0  0  0  0
    2.1038    9.1082    0.5791 H   0  0  0  0  0  0  0  0  0  0  0  0
    3.8778    7.4177    0.5631 H   0  0  0  0  0  0  0  0  0  0  0  0
    4.7555    8.3499   -0.6259 H   0  0  0  0  0  0  0  0  0  0  0  0
    2.8793    8.1259   -2.1864 H   0  0  0  0  0  0  0  0  0  0  0  0
    2.0016    7.1937   -0.9974 H   0  0  0  0  0  0  0  0  0  0  0  0
    3.8032    5.5064   -1.0142 H   0  0  0  0  0  0  0  0  0  0  0  0
    4.6522    6.4121   -2.2199 H   0  0  0  0  0  0  0  0  0  0  0  0
    3.0075    4.1181   -0.5976 H   0  0  0  0  0  0  0  0  0  0  0  0
    3.0657    4.6215   -4.8042 H   0  0  0  0  0  0  0  0  0  0  0  0
    1.2654    6.1269   -4.1279 H   0  0  0  0  0  0  0  0  0  0  0  0
    2.3618    7.3390   -3.8065 H   0  0  0  0  0  0  0  0  0  0  0  0
    4.0615   11.5425    2.6487 H   0  0  0  0  0  0  0  0  0  0  0  0
  1  2  1  0  0  0  0
  1 16  1  0  0  0  0
  2  3  1  0  0  0  0
  2 15  1  0  0  0  0
  3  4  1  0  0  0  0
  3 17  1  0  0  0  0
  3 18  1  0  0  0  0
  4  5  1  0  0  0  0
  4 19  1  0  0  0  0
  4 20  1  0  0  0  0
  5  6  1  0  0  0  0
  5 21  1  0  0  0  0
  5 22  1  0  0  0  0
  6 23  1  0  0  0  0
  6 24  1  0  0  0  0
  7 11  1  6  0  0  0
  7 14  1  0  0  0  0
  7  8  1  0  0  0  0
  7  6  1  0  0  0  0
  8  9  2  0  0  0  0
  8 10  1  0  0  0  0
 10 25  1  0  0  0  0
 11 12  1  0  0  0  0
 11 13  1  0  0  0  0
 11 26  1  0  0  0  0
 14 27  1  0  0  0  0
 14 28  1  0  0  0  0
 15 29  1  0  0  0  0
M  END
$$$$
