FB6
 OpenBabel04121316113D

 29 28  0  0  1  0  0  0  0  0999 V2000
    1.0991   -0.0090    0.0098 O   0  0  0  0  0  0  0  0  0  0  0  0
    2.5571   -0.0090    0.0098 B   0  0  0  0  0  0  0  0  0  0  0  0
    3.3361   -1.0502   -0.8484 C   0  0  0  0  0  0  0  0  0  0  0  0
    2.3484   -1.9417   -1.5833 C   0  0  0  0  0  0  0  0  0  0  0  0
    3.1084   -2.9574   -2.4205 C   0  0  0  0  0  0  0  0  0  0  0  0
    2.1206   -3.8489   -3.1554 C   0  0  0  0  0  0  0  0  0  0  0  0
    2.8806   -4.8647   -3.9927 C   0  0  1  0  0  0  0  0  0  0  0  0
    3.7326   -4.1556   -4.9763 C   0  0  0  0  0  0  0  0  0  0  0  0
    4.9499   -4.3138   -4.9607 O   0  0  0  0  0  0  0  0  0  0  0  0
    3.1706   -3.3363   -5.8888 O   0  0  0  0  0  0  0  0  0  0  0  0
    3.7257   -5.6882   -3.1160 N   0  0  0  0  0  0  0  0  0  0  0  0
    1.8929   -5.7562   -4.7275 C   0  0  0  0  0  0  0  0  0  0  0  0
    3.2861    0.9653    0.8129 O   0  0  0  0  0  0  0  0  0  0  0  0
    0.7758   -0.7147   -0.5719 H   0  0  0  0  0  0  0  0  0  0  0  0
    3.9513   -1.6496   -0.2103 H   0  0  0  0  0  0  0  0  0  0  0  0
    3.9513   -0.5382   -1.5586 H   0  0  0  0  0  0  0  0  0  0  0  0
    1.7332   -1.3422   -2.2214 H   0  0  0  0  0  0  0  0  0  0  0  0
    1.7332   -2.4536   -0.8731 H   0  0  0  0  0  0  0  0  0  0  0  0
    3.7235   -3.5569   -1.7824 H   0  0  0  0  0  0  0  0  0  0  0  0
    3.7235   -2.4455   -3.1307 H   0  0  0  0  0  0  0  0  0  0  0  0
    1.5055   -3.2495   -3.7935 H   0  0  0  0  0  0  0  0  0  0  0  0
    1.5055   -4.3609   -2.4452 H   0  0  0  0  0  0  0  0  0  0  0  0
    2.2415   -3.2156   -5.9007 H   0  0  0  0  0  0  0  0  0  0  0  0
    4.3886   -5.0900   -2.6229 H   0  0  0  0  0  0  0  0  0  0  0  0
    4.2357   -6.3698   -3.6779 H   0  0  0  0  0  0  0  0  0  0  0  0
    1.2777   -5.1568   -5.3656 H   0  0  0  0  0  0  0  0  0  0  0  0
    1.2777   -6.2681   -4.0173 H   0  0  0  0  0  0  0  0  0  0  0  0
    2.4279   -6.4712   -5.3169 H   0  0  0  0  0  0  0  0  0  0  0  0
    2.6558    1.5342    1.2819 H   0  0  0  0  0  0  0  0  0  0  0  0
  1  2  1  0  0  0  0
  1 14  1  0  0  0  0
  2  3  1  0  0  0  0
  2 13  1  0  0  0  0
  3  4  1  0  0  0  0
  3 15  1  0  0  0  0
  3 16  1  0  0  0  0
  4  5  1  0  0  0  0
  4 17  1  0  0  0  0
  4 18  1  0  0  0  0
  5  6  1  0  0  0  0
  5 19  1  0  0  0  0
  5 20  1  0  0  0  0
  6 21  1  0  0  0  0
  6 22  1  0  0  0  0
  7  6  1  1  0  0  0
  7  8  1  0  0  0  0
  7 11  1  0  0  0  0
  7 12  1  0  0  0  0
  8  9  2  0  0  0  0
  8 10  1  0  0  0  0
 10 23  1  0  0  0  0
 11 24  1  0  0  0  0
 11 25  1  0  0  0  0
 12 26  1  0  0  0  0
 12 27  1  0  0  0  0
 12 28  1  0  0  0  0
 13 29  1  0  0  0  0
M  END
$$$$
