FBP
 OpenBabel04121316113D

 34 34  0  0  1  0  0  0  0  0999 V2000
    2.9172   -0.0605   -1.4283 O   0  0  0  0  0  0  0  0  0  0  0  0
    2.4005   -0.0708   -0.0844 C   0  0  2  0  0  0  0  0  0  0  0  0
    1.3119   -0.0125   -0.1554 H   0  0  0  0  0  0  0  0  0  0  0  0
    3.0191    1.0851    0.6931 C   0  0  1  0  0  0  0  0  0  0  0  0
    3.1786    1.9660    0.0613 H   0  0  0  0  0  0  0  0  0  0  0  0
    2.2281    1.4719    1.9363 C   0  0  0  0  0  0  0  0  0  0  0  0
    0.8699    1.7932    1.6620 O   0  0  0  0  0  0  0  0  0  0  0  0
   -0.0946    2.0109    3.0815 P   0  0  0  0  0  0  0  0  0  0  0  0
   -1.3821    1.6897    2.3329 O   0  0  0  0  0  0  0  0  0  0  0  0
    0.4297    0.6168    3.7510 O   0  0  0  0  0  0  0  0  0  0  0  0
   -1.0592    2.2287    4.5011 O   0  0  0  0  0  0  0  0  0  0  0  0
    4.3109    0.5793    1.0959 O   0  0  0  0  0  0  0  0  0  0  0  0
    4.1600   -0.8281    1.4168 C   0  0  2  0  0  0  0  0  0  0  0  0
    2.9004   -1.3215    0.6532 C   0  0  1  0  0  0  0  0  0  0  0  0
    3.1604   -2.0878   -0.0867 H   0  0  0  0  0  0  0  0  0  0  0  0
    1.9547   -1.9049    1.5563 O   0  0  0  0  0  0  0  0  0  0  0  0
    4.0681   -0.9349    2.8357 O   0  0  0  0  0  0  0  0  0  0  0  0
    5.4056   -1.5727    0.9448 C   0  0  0  0  0  0  0  0  0  0  0  0
    5.3067   -3.0078    1.0478 O   0  0  0  0  0  0  0  0  0  0  0  0
    6.6928   -3.8560    0.4541 P   0  0  0  0  0  0  0  0  0  0  0  0
    5.8282   -4.8258   -0.3461 O   0  0  0  0  0  0  0  0  0  0  0  0
    7.0700   -2.6800   -0.6114 O   0  0  0  0  0  0  0  0  0  0  0  0
    8.0788   -4.7041   -0.1395 O   0  0  0  0  0  0  0  0  0  0  0  0
    3.8611    0.1792   -1.4027 H   0  0  0  0  0  0  0  0  0  0  0  0
    2.7090    2.2901    2.4809 H   0  0  0  0  0  0  0  0  0  0  0  0
    2.2565    0.6191    2.6078 H   0  0  0  0  0  0  0  0  0  0  0  0
    1.0827    0.8037    4.4538 H   0  0  0  0  0  0  0  0  0  0  0  0
   -1.9737    2.1507    4.1509 H   0  0  0  0  0  0  0  0  0  0  0  0
    1.3506   -1.2340    1.9176 H   0  0  0  0  0  0  0  0  0  0  0  0
    3.1834   -1.3128    3.0295 H   0  0  0  0  0  0  0  0  0  0  0  0
    6.2935   -1.2376    1.4911 H   0  0  0  0  0  0  0  0  0  0  0  0
    5.5173   -1.2883   -0.1073 H   0  0  0  0  0  0  0  0  0  0  0  0
    6.6008   -2.8359   -1.4497 H   0  0  0  0  0  0  0  0  0  0  0  0
    7.7046   -5.5401   -0.4859 H   0  0  0  0  0  0  0  0  0  0  0  0
  1 24  1  0  0  0  0
  2  4  1  0  0  0  0
  2 14  1  0  0  0  0
  2  3  1  1  0  0  0
  2  1  1  0  0  0  0
  4  5  1  6  0  0  0
  4  6  1  0  0  0  0
  4 12  1  0  0  0  0
  6  7  1  0  0  0  0
  6 25  1  0  0  0  0
  6 26  1  0  0  0  0
  7  8  1  0  0  0  0
  8  9  2  0  0  0  0
  8 10  1  0  0  0  0
  8 11  1  0  0  0  0
 10 27  1  0  0  0  0
 11 28  1  0  0  0  0
 12 13  1  0  0  0  0
 13 14  1  0  0  0  0
 13 17  1  1  0  0  0
 13 18  1  0  0  0  0
 14 16  1  0  0  0  0
 14 15  1  6  0  0  0
 16 29  1  0  0  0  0
 17 30  1  0  0  0  0
 18 19  1  0  0  0  0
 18 31  1  0  0  0  0
 18 32  1  0  0  0  0
 19 20  1  0  0  0  0
 20 21  2  0  0  0  0
 20 22  1  0  0  0  0
 20 23  1  0  0  0  0
 22 33  1  0  0  0  0
 23 34  1  0  0  0  0
M  END
$$$$
