FBW
 OpenBabel04121316113D

 17 17  0  0  0  0  0  0  0  0999 V2000
    1.3231   -0.5943   -0.4450 F   0  0  0  0  0  0  0  0  0  0  0  0
    2.6662   -0.4340   -0.5103 C   0  0  0  0  0  0  0  0  0  0  0  0
    3.0485    0.9381   -0.2840 C   0  0  0  0  0  0  0  0  0  0  0  0
    4.3700    1.2032    0.0087 C   0  0  0  0  0  0  0  0  0  0  0  0
    5.0787    0.1263    0.4567 C   0  0  0  0  0  0  0  0  0  0  0  0
    4.3166   -0.9414    0.8799 C   0  0  0  0  0  0  0  0  0  0  0  0
    3.4682   -1.4774   -0.0223 C   0  0  0  0  0  0  0  0  0  0  0  0
    4.5814   -2.7780   -0.7389 S   0  0  0  0  0  0  0  0  0  0  0  0
    4.8335   -2.6185   -2.1374 O   0  0  0  0  0  0  0  0  0  0  0  0
    5.6980   -2.9362    0.2021 O   0  0  0  0  0  0  0  0  0  0  0  0
    3.7374   -4.1811   -0.4663 N   0  0  0  0  0  0  0  0  0  0  0  0
    2.3300    1.7578   -0.2387 H   0  0  0  0  0  0  0  0  0  0  0  0
    4.8351    2.1813   -0.0336 H   0  0  0  0  0  0  0  0  0  0  0  0
    6.0968   -0.0287    0.0881 H   0  0  0  0  0  0  0  0  0  0  0  0
    4.2520   -1.3198    1.8827 H   0  0  0  0  0  0  0  0  0  0  0  0
    2.9533   -4.3412   -1.0815 H   0  0  0  0  0  0  0  0  0  0  0  0
    3.6806   -4.4113    0.5225 H   0  0  0  0  0  0  0  0  0  0  0  0
  1  2  1  0  0  0  0
  2  3  2  0  0  0  0
  2  7  1  0  0  0  0
  3  4  1  0  0  0  0
  3 12  1  0  0  0  0
  4  5  2  0  0  0  0
  4 13  1  0  0  0  0
  5  6  1  0  0  0  0
  5 14  1  0  0  0  0
  6  7  2  0  0  0  0
  6  8  1  0  0  0  0
  7 15  1  0  0  0  0
  8  9  2  0  0  0  0
  8 10  2  0  0  0  0
  8 11  1  0  0  0  0
 11 16  1  0  0  0  0
 11 17  1  0  0  0  0
M  END
$$$$
