FCO
 OpenBabel04121316113D

  7  6  0  0  0  0  0  0  0  0999 V2000
    1.0662    0.0012    0.0749 O   0  0  0  0  0  0  0  0  0  0  0  0
    2.2592    0.0012    0.0749 C   0  0  0  0  0  0  0  0  0  0  0  0
    4.0829    0.0012    0.0749 Fe  0  0  0  0  0  0  0  0  0  0  0  0
      -nan      -nan      -nan C   0  0  0  0  0  0  0  0  0  0  0  0
      -nan      -nan      -nan N   0  0  0  0  0  0  0  0  0  0  0  0
      -nan      -nan      -nan C   0  0  0  0  0  0  0  0  0  0  0  0
      -nan      -nan      -nan N   0  0  0  0  0  0  0  0  0  0  0  0
  1  2  2  0  0  0  0
  2  3  2  0  0  0  0
  3  4  1  0  0  0  0
  3  6  1  0  0  0  0
  4  5  3  0  0  0  0
  6  7  3  0  0  0  0
M  END
$$$$
