FD4
 OpenBabel04121316113D

 65 68  0  0  1  0  0  0  0  0999 V2000
    1.0151    0.0811   -0.1964 O   0  0  0  0  0  0  0  0  0  0  0  0
    2.2501    0.0800   -0.2012 C   0  0  0  0  0  0  0  0  0  0  0  0
    3.0587    0.1122    1.1492 C   0  0  1  0  0  0  0  0  0  0  0  0
    3.6226   -0.8259    1.2476 H   0  0  0  0  0  0  0  0  0  0  0  0
    4.0311    1.2662    1.3246 N   0  0  0  0  0  0  0  0  0  0  0  0
    5.3153    1.1919    0.2777 S   0  0  0  0  0  0  0  0  0  0  0  0
    6.0882    0.0139    0.5150 O   0  0  0  0  0  0  0  0  0  0  0  0
    4.8269    1.5225   -1.0206 O   0  0  0  0  0  0  0  0  0  0  0  0
    6.2210    2.6476    0.3537 C   0  0  0  0  0  0  0  0  0  0  0  0
    7.5536    2.4993    0.0084 C   0  0  0  0  0  0  0  0  0  0  0  0
    8.3187    3.6260   -0.1244 C   0  0  0  0  0  0  0  0  0  0  0  0
    7.7128    4.8796   -0.0419 C   0  0  0  0  0  0  0  0  0  0  0  0
    6.3106    5.0202    0.1094 C   0  0  0  0  0  0  0  0  0  0  0  0
    5.5481    3.8775    0.2590 C   0  0  0  0  0  0  0  0  0  0  0  0
    5.7334    6.2915    0.1398 C   0  0  0  0  0  0  0  0  0  0  0  0
    6.5312    7.3994   -0.1192 C   0  0  0  0  0  0  0  0  0  0  0  0
    7.8947    7.2403   -0.3596 C   0  0  0  0  0  0  0  0  0  0  0  0
    8.5002    6.0073   -0.1674 C   0  0  0  0  0  0  0  0  0  0  0  0
    2.0473    0.1735    2.3416 C   0  0  0  0  0  0  0  0  0  0  0  0
    2.7343    0.2304    3.6915 C   0  0  0  0  0  0  0  0  0  0  0  0
    3.0759    1.4629    4.2606 C   0  0  0  0  0  0  0  0  0  0  0  0
    3.8497    1.5140    5.4132 C   0  0  0  0  0  0  0  0  0  0  0  0
    4.3945    0.3428    5.9334 C   0  0  0  0  0  0  0  0  0  0  0  0
    4.0542   -0.8996    5.3885 C   0  0  0  0  0  0  0  0  0  0  0  0
    3.1491   -0.9465    4.3189 C   0  0  0  0  0  0  0  0  0  0  0  0
    4.6782   -2.1621    5.8922 C   0  0  0  0  0  0  0  0  0  0  0  0
    5.5717   -2.2000    6.8309 N   0  0  0  0  0  0  0  0  0  0  0  0
    4.3444   -3.3609    5.3536 N   0  0  0  0  0  0  0  0  0  0  0  0
    2.9190   -0.0308   -1.4118 N   0  0  0  0  0  0  0  0  0  0  0  0
    3.3961   -1.2983   -1.9518 C   0  0  0  0  0  0  0  0  0  0  0  0
    2.8394   -1.4653   -3.3842 C   0  0  0  0  0  0  0  0  0  0  0  0
    3.1134   -0.3060   -4.2591 N   0  0  0  0  0  0  0  0  0  0  0  0
    2.5718    0.9566   -3.7396 C   0  0  0  0  0  0  0  0  0  0  0  0
    3.0758    1.1160   -2.3463 C   0  0  0  0  0  0  0  0  0  0  0  0
    3.9603   -0.4525   -5.3401 C   0  0  0  0  0  0  0  0  0  0  0  0
    4.3749   -1.5600   -5.6928 O   0  0  0  0  0  0  0  0  0  0  0  0
    4.3668    0.7628   -6.1422 C   0  0  0  0  0  0  0  0  0  0  0  0
    4.4089    1.2967    2.2752 H   0  0  0  0  0  0  0  0  0  0  0  0
    7.9592    1.5150   -0.2209 H   0  0  0  0  0  0  0  0  0  0  0  0
    9.3771    3.5049   -0.3197 H   0  0  0  0  0  0  0  0  0  0  0  0
    4.4557    3.9301    0.2137 H   0  0  0  0  0  0  0  0  0  0  0  0
    4.6775    6.4263    0.3631 H   0  0  0  0  0  0  0  0  0  0  0  0
    6.0962    8.3930   -0.1187 H   0  0  0  0  0  0  0  0  0  0  0  0
    8.4955    8.0746   -0.7032 H   0  0  0  0  0  0  0  0  0  0  0  0
    9.5818    5.9225   -0.1364 H   0  0  0  0  0  0  0  0  0  0  0  0
    1.3858   -0.7027    2.3200 H   0  0  0  0  0  0  0  0  0  0  0  0
    1.3954    1.0509    2.2469 H   0  0  0  0  0  0  0  0  0  0  0  0
    2.7774    2.3910    3.7764 H   0  0  0  0  0  0  0  0  0  0  0  0
    4.0565    2.4657    5.8942 H   0  0  0  0  0  0  0  0  0  0  0  0
    5.0786    0.4355    6.7683 H   0  0  0  0  0  0  0  0  0  0  0  0
    2.7755   -1.8890    3.9347 H   0  0  0  0  0  0  0  0  0  0  0  0
    5.8056   -1.2786    7.1970 H   0  0  0  0  0  0  0  0  0  0  0  0
    3.7081   -3.4879    4.5857 H   0  0  0  0  0  0  0  0  0  0  0  0
    4.8224   -4.1765    5.7118 H   0  0  0  0  0  0  0  0  0  0  0  0
    3.0890   -2.1319   -1.3100 H   0  0  0  0  0  0  0  0  0  0  0  0
    4.4941   -1.2635   -1.9592 H   0  0  0  0  0  0  0  0  0  0  0  0
    1.7490   -1.5126   -3.3155 H   0  0  0  0  0  0  0  0  0  0  0  0
    3.2163   -2.3922   -3.8173 H   0  0  0  0  0  0  0  0  0  0  0  0
    1.4892    0.9451   -3.7323 H   0  0  0  0  0  0  0  0  0  0  0  0
    2.9291    1.8384   -4.2777 H   0  0  0  0  0  0  0  0  0  0  0  0
    2.7689    2.0582   -1.8793 H   0  0  0  0  0  0  0  0  0  0  0  0
    4.1347    1.1456   -2.6587 H   0  0  0  0  0  0  0  0  0  0  0  0
    4.0685    1.7190   -5.7266 H   0  0  0  0  0  0  0  0  0  0  0  0
    3.9219    0.6823   -7.1368 H   0  0  0  0  0  0  0  0  0  0  0  0
    5.4580    0.7889   -6.2241 H   0  0  0  0  0  0  0  0  0  0  0  0
  1  2  2  0  0  0  0
  2  3  1  0  0  0  0
  2 29  1  0  0  0  0
  3  4  1  1  0  0  0
  3  5  1  0  0  0  0
  3 19  1  0  0  0  0
  5  6  1  0  0  0  0
  5 38  1  0  0  0  0
  6  7  2  0  0  0  0
  6  8  2  0  0  0  0
  6  9  1  0  0  0  0
  9 10  2  0  0  0  0
  9 14  1  0  0  0  0
 10 11  1  0  0  0  0
 10 39  1  0  0  0  0
 11 12  2  0  0  0  0
 11 40  1  0  0  0  0
 12 13  1  0  0  0  0
 12 18  1  0  0  0  0
 13 14  2  0  0  0  0
 13 15  1  0  0  0  0
 14 41  1  0  0  0  0
 15 16  2  0  0  0  0
 15 42  1  0  0  0  0
 16 17  1  0  0  0  0
 16 43  1  0  0  0  0
 17 18  2  0  0  0  0
 17 44  1  0  0  0  0
 18 45  1  0  0  0  0
 19 20  1  0  0  0  0
 19 46  1  0  0  0  0
 19 47  1  0  0  0  0
 20 21  2  0  0  0  0
 20 25  1  0  0  0  0
 21 22  1  0  0  0  0
 21 48  1  0  0  0  0
 22 23  2  0  0  0  0
 22 49  1  0  0  0  0
 23 24  1  0  0  0  0
 23 50  1  0  0  0  0
 24 25  2  0  0  0  0
 24 26  1  0  0  0  0
 25 51  1  0  0  0  0
 26 27  2  0  0  0  0
 26 28  1  0  0  0  0
 27 52  1  0  0  0  0
 28 53  1  0  0  0  0
 28 54  1  0  0  0  0
 29 30  1  0  0  0  0
 29 34  1  0  0  0  0
 30 31  1  0  0  0  0
 30 55  1  0  0  0  0
 30 56  1  0  0  0  0
 31 32  1  0  0  0  0
 31 57  1  0  0  0  0
 31 58  1  0  0  0  0
 32 33  1  0  0  0  0
 32 35  1  0  0  0  0
 33 34  1  0  0  0  0
 33 59  1  0  0  0  0
 33 60  1  0  0  0  0
 34 61  1  0  0  0  0
 34 62  1  0  0  0  0
 35 36  2  0  0  0  0
 35 37  1  0  0  0  0
 37 63  1  0  0  0  0
 37 64  1  0  0  0  0
 37 65  1  0  0  0  0
M  END
$$$$
