FDM
 OpenBabel04121316113D

 35 36  0  0  1  0  0  0  0  0999 V2000
    1.0024    0.1113    0.1187 F   0  0  0  0  0  0  0  0  0  0  0  0
    2.3540    0.0824    0.0682 C   0  0  1  0  0  0  0  0  0  0  0  0
    2.6762    0.1712   -0.9749 H   0  0  0  0  0  0  0  0  0  0  0  0
    2.9350    1.1732    0.9275 C   0  0  0  0  0  0  0  0  0  0  0  0
    4.3186    0.6221    1.2632 C   0  0  1  0  0  0  0  0  0  0  0  0
    4.7123    1.0583    2.1887 H   0  0  0  0  0  0  0  0  0  0  0  0
    4.0670   -0.7723    1.4877 O   0  0  0  0  0  0  0  0  0  0  0  0
    2.8892   -1.1575    0.7344 C   0  0  2  0  0  0  0  0  0  0  0  0
    2.1653   -1.5711    1.4459 H   0  0  0  0  0  0  0  0  0  0  0  0
    3.2427   -2.2183   -0.2836 C   0  0  0  0  0  0  0  0  0  0  0  0
    2.1417   -2.7138   -1.0457 O   0  0  0  0  0  0  0  0  0  0  0  0
    2.5542   -3.8849   -2.2503 P   0  0  0  0  0  0  0  0  0  0  0  0
    2.8098   -2.7799   -3.2713 O   0  0  0  0  0  0  0  0  0  0  0  0
    3.9747   -4.2363   -1.5320 O   0  0  0  0  0  0  0  0  0  0  0  0
    2.9667   -5.0560   -3.4550 O   0  0  0  0  0  0  0  0  0  0  0  0
    5.3252    0.8649    0.1998 N   0  0  0  0  0  0  0  0  0  0  0  0
    5.5539    2.1839   -0.1748 C   0  0  0  0  0  0  0  0  0  0  0  0
    6.2133    2.5119   -1.2935 C   0  0  0  0  0  0  0  0  0  0  0  0
    6.3232    3.8914   -1.8504 C   0  0  0  0  0  0  0  0  0  0  0  0
    6.8262    1.4229   -2.0800 C   0  0  0  0  0  0  0  0  0  0  0  0
    7.3570    1.6258   -3.1703 O   0  0  0  0  0  0  0  0  0  0  0  0
    6.7823    0.1934   -1.5049 N   0  0  0  0  0  0  0  0  0  0  0  0
    7.2054   -0.5688   -2.0121 H   0  0  0  0  0  0  0  0  0  0  0  0
    6.0226   -0.1685   -0.4239 C   0  0  0  0  0  0  0  0  0  0  0  0
    6.0039   -1.3544   -0.1125 O   0  0  0  0  0  0  0  0  0  0  0  0
    2.3329    1.2589    1.8408 H   0  0  0  0  0  0  0  0  0  0  0  0
    2.9191    2.1425    0.4272 H   0  0  0  0  0  0  0  0  0  0  0  0
    3.6867   -3.0257    0.3074 H   0  0  0  0  0  0  0  0  0  0  0  0
    3.9792   -1.8515   -0.9988 H   0  0  0  0  0  0  0  0  0  0  0  0
    3.9060   -4.7276   -0.6958 H   0  0  0  0  0  0  0  0  0  0  0  0
    2.3722   -4.9133   -4.2133 H   0  0  0  0  0  0  0  0  0  0  0  0
    5.1179    2.9559    0.4551 H   0  0  0  0  0  0  0  0  0  0  0  0
    5.8427    4.6326   -1.2046 H   0  0  0  0  0  0  0  0  0  0  0  0
    5.8252    3.9351   -2.8263 H   0  0  0  0  0  0  0  0  0  0  0  0
    7.3704    4.1778   -1.9837 H   0  0  0  0  0  0  0  0  0  0  0  0
  1  2  1  0  0  0  0
  2  3  1  6  0  0  0
  2  4  1  0  0  0  0
  2  8  1  0  0  0  0
  4  5  1  0  0  0  0
  4 26  1  0  0  0  0
  4 27  1  0  0  0  0
  5  6  1  1  0  0  0
  5  7  1  0  0  0  0
  5 16  1  0  0  0  0
  7  8  1  0  0  0  0
  8  9  1  1  0  0  0
  8 10  1  0  0  0  0
 10 11  1  0  0  0  0
 10 28  1  0  0  0  0
 10 29  1  0  0  0  0
 11 12  1  0  0  0  0
 12 13  2  0  0  0  0
 12 14  1  0  0  0  0
 12 15  1  0  0  0  0
 14 30  1  0  0  0  0
 15 31  1  0  0  0  0
 16 17  1  0  0  0  0
 16 24  1  0  0  0  0
 17 18  2  0  0  0  0
 17 32  1  0  0  0  0
 18 19  1  0  0  0  0
 18 20  1  0  0  0  0
 19 33  1  0  0  0  0
 19 34  1  0  0  0  0
 19 35  1  0  0  0  0
 20 21  2  0  0  0  0
 20 22  1  0  0  0  0
 22 23  1  0  0  0  0
 22 24  1  0  0  0  0
 24 25  2  0  0  0  0
M  END
$$$$
