FDR
 OpenBabel04121316113D

 24 26  0  0  0  0  0  0  0  0999 V2000
    1.1051    0.1102    0.0658 C   0  0  0  0  0  0  0  0  0  0  0  0
    2.6163    0.1775    0.0673 C   0  0  0  0  0  0  0  0  0  0  0  0
    3.2583    1.3112    0.0886 N   0  0  0  0  0  0  0  0  0  0  0  0
    4.6234    1.1946    0.0894 C   0  0  0  0  0  0  0  0  0  0  0  0
    5.7082    2.5569    0.1163 S   0  0  0  0  0  0  0  0  0  0  0  0
    7.0543    1.5464    0.1048 C   0  0  0  0  0  0  0  0  0  0  0  0
    6.7251    0.2205    0.0751 C   0  0  0  0  0  0  0  0  0  0  0  0
    5.3345    0.0051    0.0684 C   0  0  0  0  0  0  0  0  0  0  0  0
    4.5955   -1.2289    0.0423 C   0  0  0  0  0  0  0  0  0  0  0  0
    5.1186   -2.3410    0.0206 O   0  0  0  0  0  0  0  0  0  0  0  0
    3.2320   -1.0608    0.0448 N   0  0  0  0  0  0  0  0  0  0  0  0
    2.6957   -1.9154    0.0289 H   0  0  0  0  0  0  0  0  0  0  0  0
    7.9284   -0.6424    0.0483 C   0  0  0  0  0  0  0  0  0  0  0  0
    9.0568    0.3452    0.4636 C   0  0  0  0  0  0  0  0  0  0  0  0
    8.5308    1.7776    0.1042 C   0  0  0  0  0  0  0  0  0  0  0  0
    0.6675    1.1112    0.0838 H   0  0  0  0  0  0  0  0  0  0  0  0
    0.7496   -0.4459    0.9407 H   0  0  0  0  0  0  0  0  0  0  0  0
    0.7496   -0.4144   -0.8283 H   0  0  0  0  0  0  0  0  0  0  0  0
    8.1035   -1.0036   -0.9701 H   0  0  0  0  0  0  0  0  0  0  0  0
    7.8558   -1.4886    0.7350 H   0  0  0  0  0  0  0  0  0  0  0  0
   10.0065    0.1052   -0.0266 H   0  0  0  0  0  0  0  0  0  0  0  0
    9.2248    0.2735    1.5473 H   0  0  0  0  0  0  0  0  0  0  0  0
    8.8914    2.0448   -0.8956 H   0  0  0  0  0  0  0  0  0  0  0  0
    8.8859    2.5156    0.8284 H   0  0  0  0  0  0  0  0  0  0  0  0
  1  2  1  0  0  0  0
  1 16  1  0  0  0  0
  1 17  1  0  0  0  0
  1 18  1  0  0  0  0
  2  3  2  0  0  0  0
  2 11  1  0  0  0  0
  3  4  1  0  0  0  0
  4  5  1  0  0  0  0
  4  8  2  0  0  0  0
  5  6  1  0  0  0  0
  6  7  2  0  0  0  0
  6 15  1  0  0  0  0
  7  8  1  0  0  0  0
  7 13  1  0  0  0  0
  8  9  1  0  0  0  0
  9 10  2  0  0  0  0
  9 11  1  0  0  0  0
 11 12  1  0  0  0  0
 13 14  1  0  0  0  0
 13 19  1  0  0  0  0
 13 20  1  0  0  0  0
 14 15  1  0  0  0  0
 14 21  1  0  0  0  0
 14 22  1  0  0  0  0
 15 23  1  0  0  0  0
 15 24  1  0  0  0  0
M  END
$$$$
