FEE
 OpenBabel04121316113D

126126  0  0  1  0  0  0  0  0999 V2000
   14.4072   10.5976    4.5933 C   0  0  0  0  0  0  0  0  0  0  0  0
   15.2113    9.6734    3.7004 C   0  0  0  0  0  0  0  0  0  0  0  0
   15.4903    8.3578    4.4128 C   0  0  0  0  0  0  0  0  0  0  0  0
   16.2965    7.4293    3.5195 C   0  0  0  0  0  0  0  0  0  0  0  0
   16.5699    6.1193    4.2390 C   0  0  0  0  0  0  0  0  0  0  0  0
   17.3751    5.1938    3.3450 C   0  0  0  0  0  0  0  0  0  0  0  0
   17.6475    3.8859    4.0646 C   0  0  0  0  0  0  0  0  0  0  0  0
   18.4522    2.9623    3.1696 C   0  0  0  0  0  0  0  0  0  0  0  0
   18.7243    1.6550    3.8893 C   0  0  0  0  0  0  0  0  0  0  0  0
   19.5288    0.7320    2.9941 C   0  0  0  0  0  0  0  0  0  0  0  0
   19.8007   -0.5749    3.7139 C   0  0  0  0  0  0  0  0  0  0  0  0
   20.6052   -1.4977    2.8187 C   0  0  0  0  0  0  0  0  0  0  0  0
   20.8769   -2.8044    3.5386 C   0  0  0  0  0  0  0  0  0  0  0  0
   21.6812   -3.7268    2.6433 C   0  0  0  0  0  0  0  0  0  0  0  0
   21.9527   -5.0330    3.3636 C   0  0  0  0  0  0  0  0  0  0  0  0
   22.7568   -5.9551    2.4688 C   0  0  0  0  0  0  0  0  0  0  0  0
   23.0268   -7.2597    3.1914 C   0  0  0  0  0  0  0  0  0  0  0  0
   23.8298   -8.1805    2.2979 C   0  0  0  0  0  0  0  0  0  0  0  0
   24.0996   -9.4872    3.0175 C   0  0  0  0  0  0  0  0  0  0  0  0
   24.8933  -10.3894    2.0999 C   0  0  0  0  0  0  0  0  0  0  0  0
   25.1712  -11.7192    2.7570 C   0  0  0  0  0  0  0  0  0  0  0  0
   25.9322  -12.5836    1.7531 C   0  0  0  0  0  0  0  0  0  0  0  0
   26.2634  -13.8845    2.4149 C   0  0  0  0  0  0  0  0  0  0  0  0
   27.0445  -14.8920    1.6278 C   0  0  0  0  0  0  0  0  0  0  0  0
   27.4929  -14.6808    0.5195 O   0  0  0  0  0  0  0  0  0  0  0  0
   27.2812  -16.0879    2.2706 N   0  0  0  0  0  0  0  0  0  0  0  0
   26.8019  -16.5777    3.6024 C   0  0  2  0  0  0  0  0  0  0  0  0
   25.7131  -16.4867    3.5627 H   0  0  0  0  0  0  0  0  0  0  0  0
   27.3135  -15.7352    4.8323 C   0  0  1  0  0  0  0  0  0  0  0  0
   27.0581  -16.3074    5.7255 H   0  0  0  0  0  0  0  0  0  0  0  0
   28.8393  -15.5285    4.8553 C   0  0  1  0  0  0  0  0  0  0  0  0
   29.2440  -15.3448    3.8477 H   0  0  0  0  0  0  0  0  0  0  0  0
   29.4304  -14.4980    5.7693 C   0  0  0  0  0  0  0  0  0  0  0  0
   29.0334  -13.1006    5.4070 C   0  0  0  0  0  0  0  0  0  0  0  0
   29.5451  -12.1747    6.4727 C   0  0  0  0  0  0  0  0  0  0  0  0
   29.0011  -10.7942    6.1780 C   0  0  0  0  0  0  0  0  0  0  0  0
   29.4817   -9.8434    7.2414 C   0  0  0  0  0  0  0  0  0  0  0  0
   29.3644  -16.7079    5.4469 O   0  0  0  0  0  0  0  0  0  0  0  0
   26.5962  -14.5288    5.0265 O   0  0  0  0  0  0  0  0  0  0  0  0
   27.1402  -18.0964    3.8232 C   0  0  0  0  0  0  0  0  0  0  0  0
   28.5016  -18.2116    3.5335 O   0  0  0  0  0  0  0  0  0  0  0  0
   29.3843  -19.2764    3.9157 C   0  0  1  0  0  0  0  0  0  0  0  0
   29.4824  -19.2992    5.0102 H   0  0  0  0  0  0  0  0  0  0  0  0
   29.0142  -20.5735    3.4818 O   0  0  0  0  0  0  0  0  0  0  0  0
   28.8290  -20.6700    2.0736 C   0  0  2  0  0  0  0  0  0  0  0  0
   27.9104  -20.1179    1.8461 H   0  0  0  0  0  0  0  0  0  0  0  0
   28.5966  -22.1264    1.6805 C   0  0  0  0  0  0  0  0  0  0  0  0
   28.3046  -22.1988    0.2885 O   0  0  0  0  0  0  0  0  0  0  0  0
   29.9939  -20.0781    1.2461 C   0  0  1  0  0  0  0  0  0  0  0  0
   29.7459  -20.0698    0.1814 H   0  0  0  0  0  0  0  0  0  0  0  0
   30.2741  -18.6629    1.7047 C   0  0  1  0  0  0  0  0  0  0  0  0
   29.3700  -18.0665    1.5416 H   0  0  0  0  0  0  0  0  0  0  0  0
   30.6572  -18.7252    3.1996 C   0  0  1  0  0  0  0  0  0  0  0  0
   31.5537  -19.3134    3.4020 H   0  0  0  0  0  0  0  0  0  0  0  0
   30.9466  -17.3812    3.6154 O   0  0  0  0  0  0  0  0  0  0  0  0
   31.2586  -17.9894    0.9292 O   0  0  0  0  0  0  0  0  0  0  0  0
   31.2049  -20.8139    1.4259 O   0  0  0  0  0  0  0  0  0  0  0  0
   14.2079   11.5417    4.0799 H   0  0  0  0  0  0  0  0  0  0  0  0
   14.9533   10.8145    5.5170 H   0  0  0  0  0  0  0  0  0  0  0  0
   13.4493   10.1401    4.8606 H   0  0  0  0  0  0  0  0  0  0  0  0
   16.1562   10.1565    3.4255 H   0  0  0  0  0  0  0  0  0  0  0  0
   14.6591    9.4852    2.7722 H   0  0  0  0  0  0  0  0  0  0  0  0
   14.5450    7.8747    4.6896 H   0  0  0  0  0  0  0  0  0  0  0  0
   16.0415    8.5457    5.3426 H   0  0  0  0  0  0  0  0  0  0  0  0
   17.2451    7.9057    3.2434 H   0  0  0  0  0  0  0  0  0  0  0  0
   15.7478    7.2344    2.5899 H   0  0  0  0  0  0  0  0  0  0  0  0
   15.6231    5.6390    4.5154 H   0  0  0  0  0  0  0  0  0  0  0  0
   17.1202    6.3102    5.1687 H   0  0  0  0  0  0  0  0  0  0  0  0
   18.3230    5.6718    3.0687 H   0  0  0  0  0  0  0  0  0  0  0  0
   16.8258    5.0004    2.4153 H   0  0  0  0  0  0  0  0  0  0  0  0
   16.7003    3.4063    4.3407 H   0  0  0  0  0  0  0  0  0  0  0  0
   18.1975    4.0777    4.9941 H   0  0  0  0  0  0  0  0  0  0  0  0
   19.3998    3.4410    2.8934 H   0  0  0  0  0  0  0  0  0  0  0  0
   17.9026    2.7696    2.2400 H   0  0  0  0  0  0  0  0  0  0  0  0
   17.7769    1.1758    4.1654 H   0  0  0  0  0  0  0  0  0  0  0  0
   19.2742    1.8472    4.8188 H   0  0  0  0  0  0  0  0  0  0  0  0
   20.4763    1.2110    2.7179 H   0  0  0  0  0  0  0  0  0  0  0  0
   18.9790    0.5396    2.0645 H   0  0  0  0  0  0  0  0  0  0  0  0
   18.8533   -1.0541    3.9901 H   0  0  0  0  0  0  0  0  0  0  0  0
   20.3506   -0.3827    4.6435 H   0  0  0  0  0  0  0  0  0  0  0  0
   21.5527   -1.0187    2.5426 H   0  0  0  0  0  0  0  0  0  0  0  0
   20.0554   -1.6901    1.8892 H   0  0  0  0  0  0  0  0  0  0  0  0
   19.9296   -3.2837    3.8148 H   0  0  0  0  0  0  0  0  0  0  0  0
   21.4269   -2.6123    4.4682 H   0  0  0  0  0  0  0  0  0  0  0  0
   22.6289   -3.2481    2.3672 H   0  0  0  0  0  0  0  0  0  0  0  0
   21.1315   -3.9195    1.7138 H   0  0  0  0  0  0  0  0  0  0  0  0
   21.0054   -5.5125    3.6396 H   0  0  0  0  0  0  0  0  0  0  0  0
   22.5027   -4.8411    4.2931 H   0  0  0  0  0  0  0  0  0  0  0  0
   23.7047   -5.4770    2.1923 H   0  0  0  0  0  0  0  0  0  0  0  0
   22.2075   -6.1485    1.5390 H   0  0  0  0  0  0  0  0  0  0  0  0
   22.0796   -7.7396    3.4664 H   0  0  0  0  0  0  0  0  0  0  0  0
   23.5774   -7.0680    4.1204 H   0  0  0  0  0  0  0  0  0  0  0  0
   24.7782   -7.7034    2.0204 H   0  0  0  0  0  0  0  0  0  0  0  0
   23.2810   -8.3731    1.3672 H   0  0  0  0  0  0  0  0  0  0  0  0
   23.1536   -9.9683    3.2940 H   0  0  0  0  0  0  0  0  0  0  0  0
   24.6564   -9.3022    3.9442 H   0  0  0  0  0  0  0  0  0  0  0  0
   25.8432   -9.9095    1.8343 H   0  0  0  0  0  0  0  0  0  0  0  0
   24.3386  -10.5571    1.1693 H   0  0  0  0  0  0  0  0  0  0  0  0
   24.2339  -12.2046    3.0612 H   0  0  0  0  0  0  0  0  0  0  0  0
   25.7564  -11.5691    3.6762 H   0  0  0  0  0  0  0  0  0  0  0  0
   26.8657  -12.0806    1.4761 H   0  0  0  0  0  0  0  0  0  0  0  0
   25.3474  -12.7427    0.8434 H   0  0  0  0  0  0  0  0  0  0  0  0
   25.3452  -14.3533    2.7820 H   0  0  0  0  0  0  0  0  0  0  0  0
   26.9428  -13.5797    3.2061 H   0  0  0  0  0  0  0  0  0  0  0  0
   27.8933  -16.6788    1.7219 H   0  0  0  0  0  0  0  0  0  0  0  0
   30.5297  -14.5852    5.7337 H   0  0  0  0  0  0  0  0  0  0  0  0
   29.1538  -14.7528    6.7987 H   0  0  0  0  0  0  0  0  0  0  0  0
   27.9554  -12.9763    5.3993 H   0  0  0  0  0  0  0  0  0  0  0  0
   29.3946  -12.8330    4.4073 H   0  0  0  0  0  0  0  0  0  0  0  0
   30.6401  -12.1908    6.4970 H   0  0  0  0  0  0  0  0  0  0  0  0
   29.1856  -12.5190    7.4524 H   0  0  0  0  0  0  0  0  0  0  0  0
   27.9033  -10.8173    6.1620 H   0  0  0  0  0  0  0  0  0  0  0  0
   29.3313  -10.4703    5.1845 H   0  0  0  0  0  0  0  0  0  0  0  0
   29.1209  -10.1625    8.2246 H   0  0  0  0  0  0  0  0  0  0  0  0
   29.1128   -8.8381    7.0367 H   0  0  0  0  0  0  0  0  0  0  0  0
   30.5753   -9.8284    7.2630 H   0  0  0  0  0  0  0  0  0  0  0  0
   29.3533  -17.3375    4.7203 H   0  0  0  0  0  0  0  0  0  0  0  0
   25.6744  -14.6208    4.7520 H   0  0  0  0  0  0  0  0  0  0  0  0
   26.5867  -18.7088    3.1073 H   0  0  0  0  0  0  0  0  0  0  0  0
   26.9121  -18.4117    4.8437 H   0  0  0  0  0  0  0  0  0  0  0  0
   27.7755  -22.5751    2.2464 H   0  0  0  0  0  0  0  0  0  0  0  0
   29.4812  -22.7395    1.8831 H   0  0  0  0  0  0  0  0  0  0  0  0
   27.5093  -21.6608    0.1246 H   0  0  0  0  0  0  0  0  0  0  0  0
   30.3208  -16.8114    3.1330 H   0  0  0  0  0  0  0  0  0  0  0  0
   30.9606  -18.0083    0.0046 H   0  0  0  0  0  0  0  0  0  0  0  0
   31.0781  -21.7133    1.0876 H   0  0  0  0  0  0  0  0  0  0  0  0
  1  2  1  0  0  0  0
  1 58  1  0  0  0  0
  1 59  1  0  0  0  0
  1 60  1  0  0  0  0
  2  3  1  0  0  0  0
  2 61  1  0  0  0  0
  2 62  1  0  0  0  0
  3  4  1  0  0  0  0
  3 63  1  0  0  0  0
  3 64  1  0  0  0  0
  4  5  1  0  0  0  0
  4 65  1  0  0  0  0
  4 66  1  0  0  0  0
  5  6  1  0  0  0  0
  5 67  1  0  0  0  0
  5 68  1  0  0  0  0
  6  7  1  0  0  0  0
  6 69  1  0  0  0  0
  6 70  1  0  0  0  0
  7  8  1  0  0  0  0
  7 71  1  0  0  0  0
  7 72  1  0  0  0  0
  8  9  1  0  0  0  0
  8 73  1  0  0  0  0
  8 74  1  0  0  0  0
  9 10  1  0  0  0  0
  9 75  1  0  0  0  0
  9 76  1  0  0  0  0
 10 11  1  0  0  0  0
 10 77  1  0  0  0  0
 10 78  1  0  0  0  0
 11 12  1  0  0  0  0
 11 79  1  0  0  0  0
 11 80  1  0  0  0  0
 12 13  1  0  0  0  0
 12 81  1  0  0  0  0
 12 82  1  0  0  0  0
 13 14  1  0  0  0  0
 13 83  1  0  0  0  0
 13 84  1  0  0  0  0
 14 15  1  0  0  0  0
 14 85  1  0  0  0  0
 14 86  1  0  0  0  0
 15 16  1  0  0  0  0
 15 87  1  0  0  0  0
 15 88  1  0  0  0  0
 16 17  1  0  0  0  0
 16 89  1  0  0  0  0
 16 90  1  0  0  0  0
 17 18  1  0  0  0  0
 17 91  1  0  0  0  0
 17 92  1  0  0  0  0
 18 19  1  0  0  0  0
 18 93  1  0  0  0  0
 18 94  1  0  0  0  0
 19 20  1  0  0  0  0
 19 95  1  0  0  0  0
 19 96  1  0  0  0  0
 20 21  1  0  0  0  0
 20 97  1  0  0  0  0
 20 98  1  0  0  0  0
 21 22  1  0  0  0  0
 21 99  1  0  0  0  0
 21100  1  0  0  0  0
 22 23  1  0  0  0  0
 22101  1  0  0  0  0
 22102  1  0  0  0  0
 23 24  1  0  0  0  0
 23103  1  0  0  0  0
 23104  1  0  0  0  0
 24 25  2  0  0  0  0
 24 26  1  0  0  0  0
 26105  1  0  0  0  0
 27 29  1  0  0  0  0
 27 40  1  0  0  0  0
 27 28  1  6  0  0  0
 27 26  1  0  0  0  0
 29 30  1  1  0  0  0
 29 31  1  0  0  0  0
 29 39  1  0  0  0  0
 31 32  1  6  0  0  0
 31 33  1  0  0  0  0
 31 38  1  0  0  0  0
 33 34  1  0  0  0  0
 33106  1  0  0  0  0
 33107  1  0  0  0  0
 34 35  1  0  0  0  0
 34108  1  0  0  0  0
 34109  1  0  0  0  0
 35 36  1  0  0  0  0
 35110  1  0  0  0  0
 35111  1  0  0  0  0
 36 37  1  0  0  0  0
 36112  1  0  0  0  0
 36113  1  0  0  0  0
 37114  1  0  0  0  0
 37115  1  0  0  0  0
 37116  1  0  0  0  0
 38117  1  0  0  0  0
 39118  1  0  0  0  0
 40 41  1  0  0  0  0
 40119  1  0  0  0  0
 40120  1  0  0  0  0
 41 42  1  0  0  0  0
 42 43  1  1  0  0  0
 42 44  1  0  0  0  0
 42 53  1  0  0  0  0
 44 45  1  0  0  0  0
 45 46  1  6  0  0  0
 45 47  1  0  0  0  0
 45 49  1  0  0  0  0
 47 48  1  0  0  0  0
 47121  1  0  0  0  0
 47122  1  0  0  0  0
 48123  1  0  0  0  0
 49 50  1  6  0  0  0
 49 51  1  0  0  0  0
 49 57  1  0  0  0  0
 51 52  1  6  0  0  0
 51 53  1  0  0  0  0
 51 56  1  0  0  0  0
 53 55  1  0  0  0  0
 53 54  1  1  0  0  0
 55124  1  0  0  0  0
 56125  1  0  0  0  0
 57126  1  0  0  0  0
M  END
$$$$
