FF3
 OpenBabel04121316113D

 17 17  0  0  0  0  0  0  0  0999 V2000
    1.0668    0.1774    0.0675 N   0  0  0  0  0  0  0  0  0  0  0  0
    2.3971    0.0523    0.0799 C   0  0  0  0  0  0  0  0  0  0  0  0
    3.3320    0.9759    0.0708 N   0  0  0  0  0  0  0  0  0  0  0  0
    4.6196    0.4259    0.0744 N   0  0  0  0  0  0  0  0  0  0  0  0
    4.5912   -0.8954    0.0732 C   0  0  0  0  0  0  0  0  0  0  0  0
    2.9982   -1.5385    0.0820 S   0  0  0  0  0  0  0  0  0  0  0  0
    5.7026   -1.8923    0.1160 C   0  0  0  0  0  0  0  0  0  0  0  0
    6.7089   -1.7319   -1.4286 S   0  0  0  0  0  0  0  0  0  0  0  0
    7.2693   -0.4001   -1.5649 O   0  0  0  0  0  0  0  0  0  0  0  0
    7.5573   -2.8980   -1.5555 O   0  0  0  0  0  0  0  0  0  0  0  0
    5.5988   -1.8910   -2.6910 N   0  0  0  0  0  0  0  0  0  0  0  0
    6.4569   -1.7899    1.2490 F   0  0  0  0  0  0  0  0  0  0  0  0
    5.1870   -3.1713    0.1450 F   0  0  0  0  0  0  0  0  0  0  0  0
    0.5745    1.0586    0.1040 H   0  0  0  0  0  0  0  0  0  0  0  0
    0.5097   -0.6684    0.1085 H   0  0  0  0  0  0  0  0  0  0  0  0
    4.9989   -1.0857   -2.8628 H   0  0  0  0  0  0  0  0  0  0  0  0
    5.2250   -2.8294   -2.8293 H   0  0  0  0  0  0  0  0  0  0  0  0
  1  2  1  0  0  0  0
  1 14  1  0  0  0  0
  1 15  1  0  0  0  0
  2  3  2  0  0  0  0
  2  6  1  0  0  0  0
  3  4  1  0  0  0  0
  4  5  2  0  0  0  0
  5  6  1  0  0  0  0
  5  7  1  0  0  0  0
  7  8  1  0  0  0  0
  7 12  1  0  0  0  0
  7 13  1  0  0  0  0
  8  9  2  0  0  0  0
  8 10  2  0  0  0  0
  8 11  1  0  0  0  0
 11 16  1  0  0  0  0
 11 17  1  0  0  0  0
M  END
$$$$
