FFG
 OpenBabel04121316113D

 73 79  0  0  1  0  0  0  0  0999 V2000
    3.0851    0.5939   -1.8217 O   0  0  0  0  0  0  0  0  0  0  0  0
    2.7413    0.2192   -0.5085 C   0  0  2  0  0  0  0  0  0  0  0  0
    1.6785    0.0577   -0.4725 H   0  0  0  0  0  0  0  0  0  0  0  0
    3.2433    1.2396    0.5112 C   0  0  0  0  0  0  0  0  0  0  0  0
    4.6022    0.6805    0.9021 C   0  0  0  0  0  0  0  0  0  0  0  0
    4.4020   -0.7552    0.8004 N   0  0  0  0  0  0  0  0  0  0  0  0
    3.4077   -1.0881   -0.2035 C   0  0  0  0  0  0  0  0  0  0  0  0
    5.5288   -1.6425    0.8130 C   0  0  0  0  0  0  0  0  0  0  0  0
    5.2141   -3.0875    1.2475 C   0  0  0  0  0  0  0  0  0  0  0  0
    6.3588   -3.9346    1.0673 C   0  0  0  0  0  0  0  0  0  0  0  0
    6.2561   -5.3195    1.0240 C   0  0  0  0  0  0  0  0  0  0  0  0
    5.0218   -5.8949    1.2355 C   0  0  0  0  0  0  0  0  0  0  0  0
    3.9307   -5.0918    1.5971 C   0  0  0  0  0  0  0  0  0  0  0  0
    3.9520   -3.6711    1.6458 C   0  0  0  0  0  0  0  0  0  0  0  0
    2.5941   -2.9830    1.9563 C   0  0  0  0  0  0  0  0  0  0  0  0
    1.3965   -3.5536    1.4692 C   0  0  0  0  0  0  0  0  0  0  0  0
    0.2539   -2.7810    1.1410 C   0  0  0  0  0  0  0  0  0  0  0  0
    0.2206   -1.3996    1.3181 C   0  0  0  0  0  0  0  0  0  0  0  0
    1.2679   -0.8740    2.0714 C   0  0  0  0  0  0  0  0  0  0  0  0
    2.4170   -1.6660    2.4376 C   0  0  0  0  0  0  0  0  0  0  0  0
   -0.8299   -0.6070    0.7333 N   0  0  0  0  0  0  0  0  0  0  0  0
   -0.6758    0.7439    0.1635 C   0  0  0  0  0  0  0  0  0  0  0  0
   -1.1930    1.8220    1.0740 C   0  0  0  0  0  0  0  0  0  0  0  0
   -2.4696    1.3745    1.6659 C   0  0  0  0  0  0  0  0  0  0  0  0
   -2.9280    0.0693    1.6490 C   0  0  0  0  0  0  0  0  0  0  0  0
   -2.1652   -1.0027    1.0036 C   0  0  0  0  0  0  0  0  0  0  0  0
   -2.5761   -2.1148    0.7351 O   0  0  0  0  0  0  0  0  0  0  0  0
   -4.1462    0.0817    2.3405 N   0  0  0  0  0  0  0  0  0  0  0  0
   -4.4733    1.3940    2.6913 N   0  0  0  0  0  0  0  0  0  0  0  0
   -3.4232    2.1635    2.3112 C   0  0  0  0  0  0  0  0  0  0  0  0
   -3.2369    3.6736    2.4865 C   0  0  0  0  0  0  0  0  0  0  0  0
   -4.1984    4.4044    1.8705 F   0  0  0  0  0  0  0  0  0  0  0  0
   -3.1702    4.0612    3.7840 F   0  0  0  0  0  0  0  0  0  0  0  0
   -2.0573    4.1104    1.9365 F   0  0  0  0  0  0  0  0  0  0  0  0
   -5.0378   -1.0164    2.6916 C   0  0  0  0  0  0  0  0  0  0  0  0
   -4.5895   -2.3436    2.6972 C   0  0  0  0  0  0  0  0  0  0  0  0
   -5.4528   -3.4252    2.9195 C   0  0  0  0  0  0  0  0  0  0  0  0
   -6.8136   -3.2121    3.0656 C   0  0  0  0  0  0  0  0  0  0  0  0
   -7.2984   -1.9032    3.1204 C   0  0  0  0  0  0  0  0  0  0  0  0
   -6.3965   -0.8048    3.0213 C   0  0  0  0  0  0  0  0  0  0  0  0
   -8.7714   -1.7551    3.2066 C   0  0  0  0  0  0  0  0  0  0  0  0
   -9.6381   -2.7357    3.2367 N   0  0  0  0  0  0  0  0  0  0  0  0
  -10.8570   -2.1051    3.2723 N   0  0  0  0  0  0  0  0  0  0  0  0
  -11.7405   -2.5980    3.2911 H   0  0  0  0  0  0  0  0  0  0  0  0
  -10.6944   -0.7256    3.2616 C   0  0  0  0  0  0  0  0  0  0  0  0
  -11.5503    0.1242    3.2819 O   0  0  0  0  0  0  0  0  0  0  0  0
   -9.3422   -0.5286    3.2207 N   0  0  0  0  0  0  0  0  0  0  0  0
   -8.9168    0.3772    3.1829 H   0  0  0  0  0  0  0  0  0  0  0  0
    3.9873    0.2485   -1.9367 H   0  0  0  0  0  0  0  0  0  0  0  0
    2.6412    1.3307    1.4227 H   0  0  0  0  0  0  0  0  0  0  0  0
    3.2803    2.2457    0.0904 H   0  0  0  0  0  0  0  0  0  0  0  0
    4.8549    0.9776    1.9294 H   0  0  0  0  0  0  0  0  0  0  0  0
    5.3638    1.0634    0.2215 H   0  0  0  0  0  0  0  0  0  0  0  0
    2.5945   -1.6904    0.1499 H   0  0  0  0  0  0  0  0  0  0  0  0
    3.7450   -1.7262   -1.0225 H   0  0  0  0  0  0  0  0  0  0  0  0
    6.3431   -1.2579    1.4408 H   0  0  0  0  0  0  0  0  0  0  0  0
    5.9333   -1.6660   -0.2151 H   0  0  0  0  0  0  0  0  0  0  0  0
    7.3499   -3.5001    0.9186 H   0  0  0  0  0  0  0  0  0  0  0  0
    7.1235   -5.9419    0.8161 H   0  0  0  0  0  0  0  0  0  0  0  0
    4.8979   -6.9724    1.1609 H   0  0  0  0  0  0  0  0  0  0  0  0
    3.0169   -5.6281    1.8337 H   0  0  0  0  0  0  0  0  0  0  0  0
    1.3508   -4.5990    1.1809 H   0  0  0  0  0  0  0  0  0  0  0  0
   -0.5469   -3.2868    0.6091 H   0  0  0  0  0  0  0  0  0  0  0  0
    1.2942    0.1926    2.2595 H   0  0  0  0  0  0  0  0  0  0  0  0
    3.2780   -1.1172    2.8214 H   0  0  0  0  0  0  0  0  0  0  0  0
   -1.2836    0.7609   -0.7589 H   0  0  0  0  0  0  0  0  0  0  0  0
    0.3052    1.0624   -0.1591 H   0  0  0  0  0  0  0  0  0  0  0  0
   -1.3234    2.7296    0.4727 H   0  0  0  0  0  0  0  0  0  0  0  0
   -0.4681    2.0304    1.8671 H   0  0  0  0  0  0  0  0  0  0  0  0
   -3.5482   -2.6012    2.5638 H   0  0  0  0  0  0  0  0  0  0  0  0
   -5.0567   -4.4378    2.9534 H   0  0  0  0  0  0  0  0  0  0  0  0
   -7.4842   -4.0686    3.1375 H   0  0  0  0  0  0  0  0  0  0  0  0
   -6.7614    0.2070    3.1666 H   0  0  0  0  0  0  0  0  0  0  0  0
  1 49  1  0  0  0  0
  2  4  1  0  0  0  0
  2  7  1  0  0  0  0
  2  3  1  1  0  0  0
  2  1  1  0  0  0  0
  4  5  1  0  0  0  0
  4 50  1  0  0  0  0
  4 51  1  0  0  0  0
  5  6  1  0  0  0  0
  5 52  1  0  0  0  0
  5 53  1  0  0  0  0
  6  7  1  0  0  0  0
  6  8  1  0  0  0  0
  7 54  1  0  0  0  0
  7 55  1  0  0  0  0
  8  9  1  0  0  0  0
  8 56  1  0  0  0  0
  8 57  1  0  0  0  0
  9 10  2  0  0  0  0
  9 14  1  0  0  0  0
 10 11  1  0  0  0  0
 10 58  1  0  0  0  0
 11 12  2  0  0  0  0
 11 59  1  0  0  0  0
 12 13  1  0  0  0  0
 12 60  1  0  0  0  0
 13 14  2  0  0  0  0
 13 61  1  0  0  0  0
 14 15  1  0  0  0  0
 15 16  2  0  0  0  0
 15 20  1  0  0  0  0
 16 17  1  0  0  0  0
 16 62  1  0  0  0  0
 17 18  2  0  0  0  0
 17 63  1  0  0  0  0
 18 19  1  0  0  0  0
 18 21  1  0  0  0  0
 19 20  2  0  0  0  0
 19 64  1  0  0  0  0
 20 65  1  0  0  0  0
 21 22  1  0  0  0  0
 21 26  1  0  0  0  0
 22 23  1  0  0  0  0
 22 66  1  0  0  0  0
 22 67  1  0  0  0  0
 23 24  1  0  0  0  0
 23 68  1  0  0  0  0
 23 69  1  0  0  0  0
 24 25  2  0  0  0  0
 24 30  1  0  0  0  0
 25 26  1  0  0  0  0
 25 28  1  0  0  0  0
 26 27  2  0  0  0  0
 28 29  1  0  0  0  0
 28 35  1  0  0  0  0
 29 30  2  0  0  0  0
 30 31  1  0  0  0  0
 31 32  1  0  0  0  0
 31 33  1  0  0  0  0
 31 34  1  0  0  0  0
 35 36  2  0  0  0  0
 35 40  1  0  0  0  0
 36 37  1  0  0  0  0
 36 70  1  0  0  0  0
 37 38  2  0  0  0  0
 37 71  1  0  0  0  0
 38 39  1  0  0  0  0
 38 72  1  0  0  0  0
 39 40  2  0  0  0  0
 39 41  1  0  0  0  0
 40 73  1  0  0  0  0
 41 42  2  0  0  0  0
 41 47  1  0  0  0  0
 42 43  1  0  0  0  0
 43 44  1  0  0  0  0
 43 45  1  0  0  0  0
 45 46  2  0  0  0  0
 45 47  1  0  0  0  0
 47 48  1  0  0  0  0
M  END
$$$$
