FFP
 OpenBabel04121316113D

 13 13  0  0  0  0  0  0  0  0999 V2000
    0.8912    0.1240   -0.1421 F   0  0  0  0  0  0  0  0  0  0  0  0
    2.2282    0.0959   -0.0159 C   0  0  0  0  0  0  0  0  0  0  0  0
    2.9234    1.3031    0.0214 C   0  0  0  0  0  0  0  0  0  0  0  0
    4.3047    1.2990    0.2402 C   0  0  0  0  0  0  0  0  0  0  0  0
    4.9940    0.0886    0.2848 C   0  0  0  0  0  0  0  0  0  0  0  0
    4.2901   -1.1100    0.1862 C   0  0  0  0  0  0  0  0  0  0  0  0
    2.8991   -1.1114    0.0963 C   0  0  0  0  0  0  0  0  0  0  0  0
    2.2023   -2.2876    0.1360 O   0  0  0  0  0  0  0  0  0  0  0  0
    4.9531   -2.2722    0.1875 F   0  0  0  0  0  0  0  0  0  0  0  0
    2.3850    2.2358   -0.1064 H   0  0  0  0  0  0  0  0  0  0  0  0
    4.8359    2.2389    0.3716 H   0  0  0  0  0  0  0  0  0  0  0  0
    6.0745    0.0691    0.3990 H   0  0  0  0  0  0  0  0  0  0  0  0
    2.8408   -2.9993    0.3221 H   0  0  0  0  0  0  0  0  0  0  0  0
  1  2  1  0  0  0  0
  2  3  2  0  0  0  0
  2  7  1  0  0  0  0
  3  4  1  0  0  0  0
  3 10  1  0  0  0  0
  4  5  2  0  0  0  0
  4 11  1  0  0  0  0
  5  6  1  0  0  0  0
  5 12  1  0  0  0  0
  6  7  2  0  0  0  0
  6  9  1  0  0  0  0
  7  8  1  0  0  0  0
  8 13  1  0  0  0  0
M  END
$$$$
