FG3
 OpenBabel04121316113D

 45 47  0  0  0  0  0  0  0  0999 V2000
    0.9624    0.0953   -0.0700 C   0  0  0  0  0  0  0  0  0  0  0  0
    2.3759    0.1320   -0.0382 O   0  0  0  0  0  0  0  0  0  0  0  0
    2.9541   -1.0666   -0.3285 C   0  0  0  0  0  0  0  0  0  0  0  0
    4.2111   -0.9656   -0.8500 C   0  0  0  0  0  0  0  0  0  0  0  0
    4.9075   -2.1153   -1.1775 C   0  0  0  0  0  0  0  0  0  0  0  0
    4.3926   -3.4147   -0.9914 C   0  0  0  0  0  0  0  0  0  0  0  0
    3.1105   -3.5101   -0.4497 C   0  0  0  0  0  0  0  0  0  0  0  0
    2.3972   -2.3324   -0.1192 C   0  0  0  0  0  0  0  0  0  0  0  0
    2.7987   -4.8785   -0.3442 C   0  0  0  0  0  0  0  0  0  0  0  0
    3.8610   -5.6514   -0.8122 C   0  0  0  0  0  0  0  0  0  0  0  0
    4.8546   -4.7173   -1.2164 N   0  0  0  0  0  0  0  0  0  0  0  0
    6.1597   -5.1381   -1.7796 C   0  0  0  0  0  0  0  0  0  0  0  0
    7.2260   -4.1570   -2.2150 C   0  0  0  0  0  0  0  0  0  0  0  0
    7.2090   -2.9414   -2.1902 O   0  0  0  0  0  0  0  0  0  0  0  0
    8.3614   -4.6855   -2.7068 O   0  0  0  0  0  0  0  0  0  0  0  0
    3.7822   -7.1295   -0.8029 C   0  0  0  0  0  0  0  0  0  0  0  0
    2.7873   -7.7104   -0.3945 O   0  0  0  0  0  0  0  0  0  0  0  0
    4.8894   -7.8492   -1.2720 N   0  0  0  0  0  0  0  0  0  0  0  0
    4.9143   -9.5365   -1.3051 S   0  0  0  0  0  0  0  0  0  0  0  0
    4.9089   -9.9787    0.0716 O   0  0  0  0  0  0  0  0  0  0  0  0
    3.9284   -9.9359   -2.2874 O   0  0  0  0  0  0  0  0  0  0  0  0
    6.5434   -9.9921   -1.9939 C   0  0  0  0  0  0  0  0  0  0  0  0
    7.4685   -9.0492   -2.4148 C   0  0  0  0  0  0  0  0  0  0  0  0
    8.5584   -9.4865   -3.1642 C   0  0  0  0  0  0  0  0  0  0  0  0
    8.7638  -10.8487   -3.3687 C   0  0  0  0  0  0  0  0  0  0  0  0
    7.8696  -11.7258   -2.7639 C   0  0  0  0  0  0  0  0  0  0  0  0
    6.7381  -11.3315   -2.1274 N   0  0  0  0  0  0  0  0  0  0  0  0
    9.9010  -11.3322   -4.2144 C   0  0  0  0  0  0  0  0  0  0  0  0
    0.6021    1.0997    0.1533 H   0  0  0  0  0  0  0  0  0  0  0  0
    0.5725   -0.5742    0.7000 H   0  0  0  0  0  0  0  0  0  0  0  0
    0.6132   -0.1953   -1.0669 H   0  0  0  0  0  0  0  0  0  0  0  0
    4.6850   -0.0030   -1.0327 H   0  0  0  0  0  0  0  0  0  0  0  0
    5.8599   -1.8440   -1.5763 H   0  0  0  0  0  0  0  0  0  0  0  0
    1.4135   -2.4466    0.3140 H   0  0  0  0  0  0  0  0  0  0  0  0
    1.8654   -5.2744    0.0474 H   0  0  0  0  0  0  0  0  0  0  0  0
    5.8968   -5.7343   -2.6637 H   0  0  0  0  0  0  0  0  0  0  0  0
    6.6048   -5.7695   -0.9990 H   0  0  0  0  0  0  0  0  0  0  0  0
    8.4929   -5.6377   -2.7827 H   0  0  0  0  0  0  0  0  0  0  0  0
    5.6836   -7.4058   -1.6575 H   0  0  0  0  0  0  0  0  0  0  0  0
    7.3934   -8.0009   -2.1972 H   0  0  0  0  0  0  0  0  0  0  0  0
    9.2503   -8.7656   -3.5934 H   0  0  0  0  0  0  0  0  0  0  0  0
    8.0449  -12.8003   -2.7754 H   0  0  0  0  0  0  0  0  0  0  0  0
   10.4615  -10.4898   -4.6374 H   0  0  0  0  0  0  0  0  0  0  0  0
    9.5198  -11.9187   -5.0572 H   0  0  0  0  0  0  0  0  0  0  0  0
   10.5967  -11.9380   -3.6282 H   0  0  0  0  0  0  0  0  0  0  0  0
  1  2  1  0  0  0  0
  1 29  1  0  0  0  0
  1 30  1  0  0  0  0
  1 31  1  0  0  0  0
  2  3  1  0  0  0  0
  3  4  2  0  0  0  0
  3  8  1  0  0  0  0
  4  5  1  0  0  0  0
  4 32  1  0  0  0  0
  5  6  2  0  0  0  0
  5 33  1  0  0  0  0
  6  7  1  0  0  0  0
  6 11  1  0  0  0  0
  7  8  2  0  0  0  0
  7  9  1  0  0  0  0
  8 34  1  0  0  0  0
  9 10  2  0  0  0  0
  9 35  1  0  0  0  0
 10 11  1  0  0  0  0
 10 16  1  0  0  0  0
 11 12  1  0  0  0  0
 12 13  1  0  0  0  0
 12 36  1  0  0  0  0
 12 37  1  0  0  0  0
 13 14  2  0  0  0  0
 13 15  1  0  0  0  0
 15 38  1  0  0  0  0
 16 17  2  0  0  0  0
 16 18  1  0  0  0  0
 18 19  1  0  0  0  0
 18 39  1  0  0  0  0
 19 20  2  0  0  0  0
 19 21  2  0  0  0  0
 19 22  1  0  0  0  0
 22 23  2  0  0  0  0
 22 27  1  0  0  0  0
 23 24  1  0  0  0  0
 23 40  1  0  0  0  0
 24 25  2  0  0  0  0
 24 41  1  0  0  0  0
 25 26  1  0  0  0  0
 25 28  1  0  0  0  0
 26 27  2  0  0  0  0
 26 42  1  0  0  0  0
 28 43  1  0  0  0  0
 28 44  1  0  0  0  0
 28 45  1  0  0  0  0
M  END
$$$$
