FG6
 OpenBabel04121316113D

 46 49  0  0  0  0  0  0  0  0999 V2000
    1.0848   -0.0467    0.0572 C   0  0  0  0  0  0  0  0  0  0  0  0
    2.5104   -0.1993    0.0604 O   0  0  0  0  0  0  0  0  0  0  0  0
    3.0971    0.6848   -0.7992 C   0  0  0  0  0  0  0  0  0  0  0  0
    2.8329    2.0198   -0.6886 C   0  0  0  0  0  0  0  0  0  0  0  0
    3.3819    2.9006   -1.5955 C   0  0  0  0  0  0  0  0  0  0  0  0
    4.2465    2.5104   -2.6311 C   0  0  0  0  0  0  0  0  0  0  0  0
    4.5615    1.1494   -2.7092 C   0  0  0  0  0  0  0  0  0  0  0  0
    3.9924    0.2371   -1.7750 C   0  0  0  0  0  0  0  0  0  0  0  0
    5.4421    1.0041   -3.8025 C   0  0  0  0  0  0  0  0  0  0  0  0
    5.6778    2.2415   -4.4092 C   0  0  0  0  0  0  0  0  0  0  0  0
    4.9192    3.1791   -3.6609 N   0  0  0  0  0  0  0  0  0  0  0  0
    4.8957    4.6301   -3.9826 C   0  0  0  0  0  0  0  0  0  0  0  0
    4.0893    5.6414   -3.1928 C   0  0  0  0  0  0  0  0  0  0  0  0
    3.3594    5.4663   -2.2359 O   0  0  0  0  0  0  0  0  0  0  0  0
    4.1737    6.9234   -3.5917 O   0  0  0  0  0  0  0  0  0  0  0  0
    6.5681    2.3587   -5.5832 C   0  0  0  0  0  0  0  0  0  0  0  0
    7.1275    1.3817   -6.0594 O   0  0  0  0  0  0  0  0  0  0  0  0
    6.7658    3.6249   -6.1446 N   0  0  0  0  0  0  0  0  0  0  0  0
    7.7553    3.8546   -7.4846 S   0  0  0  0  0  0  0  0  0  0  0  0
    9.1223    3.6214   -7.0821 O   0  0  0  0  0  0  0  0  0  0  0  0
    7.1202    3.2627   -8.6367 O   0  0  0  0  0  0  0  0  0  0  0  0
    7.7142    5.6498   -7.8031 C   0  0  0  0  0  0  0  0  0  0  0  0
    7.5890    6.6857   -6.8853 C   0  0  0  0  0  0  0  0  0  0  0  0
    7.6221    7.9097   -7.5868 C   0  0  0  0  0  0  0  0  0  0  0  0
    7.7787    7.5819   -8.9261 C   0  0  0  0  0  0  0  0  0  0  0  0
    7.8279    6.2194   -9.0664 O   0  0  0  0  0  0  0  0  0  0  0  0
    7.8677    8.5435   -9.9380 C   0  0  0  0  0  0  0  0  0  0  0  0
    7.7885    9.8902   -9.5407 C   0  0  0  0  0  0  0  0  0  0  0  0
    7.6312   10.2436   -8.1991 C   0  0  0  0  0  0  0  0  0  0  0  0
    7.5464    9.2601   -7.2100 C   0  0  0  0  0  0  0  0  0  0  0  0
    0.6764   -0.7234    0.8093 H   0  0  0  0  0  0  0  0  0  0  0  0
    0.6894   -0.3214   -0.9260 H   0  0  0  0  0  0  0  0  0  0  0  0
    0.7386    0.9613    0.3209 H   0  0  0  0  0  0  0  0  0  0  0  0
    2.1911    2.4371    0.0820 H   0  0  0  0  0  0  0  0  0  0  0  0
    3.0352    3.8830   -1.3695 H   0  0  0  0  0  0  0  0  0  0  0  0
    4.2286   -0.8201   -1.8291 H   0  0  0  0  0  0  0  0  0  0  0  0
    5.8738    0.0632   -4.1330 H   0  0  0  0  0  0  0  0  0  0  0  0
    4.5353    4.6775   -5.0187 H   0  0  0  0  0  0  0  0  0  0  0  0
    5.9470    4.9422   -3.9213 H   0  0  0  0  0  0  0  0  0  0  0  0
    4.6956    7.1883   -4.3590 H   0  0  0  0  0  0  0  0  0  0  0  0
    6.3207    4.4593   -5.8346 H   0  0  0  0  0  0  0  0  0  0  0  0
    7.5099    6.5683   -5.8170 H   0  0  0  0  0  0  0  0  0  0  0  0
    7.9955    8.2749  -10.9810 H   0  0  0  0  0  0  0  0  0  0  0  0
    7.8533   10.6802  -10.2884 H   0  0  0  0  0  0  0  0  0  0  0  0
    7.5790   11.2928   -7.9132 H   0  0  0  0  0  0  0  0  0  0  0  0
    7.4315    9.5394   -6.1679 H   0  0  0  0  0  0  0  0  0  0  0  0
  1  2  1  0  0  0  0
  1 31  1  0  0  0  0
  1 32  1  0  0  0  0
  1 33  1  0  0  0  0
  2  3  1  0  0  0  0
  3  4  2  0  0  0  0
  3  8  1  0  0  0  0
  4  5  1  0  0  0  0
  4 34  1  0  0  0  0
  5  6  2  0  0  0  0
  5 35  1  0  0  0  0
  6  7  1  0  0  0  0
  6 11  1  0  0  0  0
  7  8  2  0  0  0  0
  7  9  1  0  0  0  0
  8 36  1  0  0  0  0
  9 10  2  0  0  0  0
  9 37  1  0  0  0  0
 10 11  1  0  0  0  0
 10 16  1  0  0  0  0
 11 12  1  0  0  0  0
 12 13  1  0  0  0  0
 12 38  1  0  0  0  0
 12 39  1  0  0  0  0
 13 14  2  0  0  0  0
 13 15  1  0  0  0  0
 15 40  1  0  0  0  0
 16 17  2  0  0  0  0
 16 18  1  0  0  0  0
 18 19  1  0  0  0  0
 18 41  1  0  0  0  0
 19 20  2  0  0  0  0
 19 21  2  0  0  0  0
 19 22  1  0  0  0  0
 22 23  2  0  0  0  0
 22 26  1  0  0  0  0
 23 24  1  0  0  0  0
 23 42  1  0  0  0  0
 24 25  2  0  0  0  0
 24 30  1  0  0  0  0
 25 26  1  0  0  0  0
 25 27  1  0  0  0  0
 27 28  2  0  0  0  0
 27 43  1  0  0  0  0
 28 29  1  0  0  0  0
 28 44  1  0  0  0  0
 29 30  2  0  0  0  0
 29 45  1  0  0  0  0
 30 46  1  0  0  0  0
M  END
$$$$
