FGG
 OpenBabel04121316113D

 65 64  0  0  0  0  0  0  0  0999 V2000
    8.5383   -0.1373   -9.2420 C   0  0  0  0  0  0  0  0  0  0  0  0
    8.2513   -0.2281  -10.7138 C   0  0  0  0  0  0  0  0  0  0  0  0
    7.1051    0.1887  -11.2706 C   0  0  0  0  0  0  0  0  0  0  0  0
    6.0328    0.7718  -10.4889 C   0  0  0  0  0  0  0  0  0  0  0  0
    4.8583    1.1627  -11.3568 C   0  0  0  0  0  0  0  0  0  0  0  0
    3.7802    1.7497  -10.5263 C   0  0  0  0  0  0  0  0  0  0  0  0
    3.8813    1.8754   -9.2089 C   0  0  0  0  0  0  0  0  0  0  0  0
    2.8287    2.3514   -8.3456 C   0  0  0  0  0  0  0  0  0  0  0  0
    1.5161    2.5006   -8.9402 O   0  0  0  0  0  0  0  0  0  0  0  0
    0.6415    3.5177   -8.0221 P   0  0  2  0  0  0  0  0  0  0  0  0
    1.4137    2.9936   -6.7917 O   0  0  0  0  0  0  0  0  0  0  0  0
   -0.7466    2.6048   -7.5398 O   0  0  0  0  0  0  0  0  0  0  0  0
   -0.3938    1.7470   -6.0795 P   0  0  0  0  0  0  0  0  0  0  0  0
   -1.1401    2.8118   -5.2732 O   0  0  0  0  0  0  0  0  0  0  0  0
   -1.4586    0.5908   -6.5088 O   0  0  0  0  0  0  0  0  0  0  0  0
   -0.0410    0.8891   -4.6192 O   0  0  0  0  0  0  0  0  0  0  0  0
   -0.2235    4.1049   -9.4005 O   0  0  0  0  0  0  0  0  0  0  0  0
    4.9901    1.5357   -8.4988 F   0  0  0  0  0  0  0  0  0  0  0  0
    2.5508    2.1762  -11.2715 C   0  0  0  0  0  0  0  0  0  0  0  0
    9.3230   -0.8197  -11.5680 C   0  0  0  0  0  0  0  0  0  0  0  0
    8.8668   -0.8344  -13.0194 C   0  0  0  0  0  0  0  0  0  0  0  0
    9.8635   -1.3994  -13.9207 C   0  0  0  0  0  0  0  0  0  0  0  0
    9.6607   -1.5053  -15.2442 C   0  0  0  0  0  0  0  0  0  0  0  0
   10.7125   -2.0929  -16.1407 C   0  0  0  0  0  0  0  0  0  0  0  0
   11.9373   -2.5064  -15.3388 C   0  0  0  0  0  0  0  0  0  0  0  0
   13.0259   -3.0959  -16.1423 C   0  0  0  0  0  0  0  0  0  0  0  0
   14.1652   -3.5050  -15.5625 C   0  0  0  0  0  0  0  0  0  0  0  0
   14.4295   -3.4024  -14.0789 C   0  0  0  0  0  0  0  0  0  0  0  0
   15.2447   -4.0967  -16.4061 C   0  0  0  0  0  0  0  0  0  0  0  0
    8.3928   -1.0543  -15.9185 C   0  0  0  0  0  0  0  0  0  0  0  0
    7.7168    0.3037   -8.6689 H   0  0  0  0  0  0  0  0  0  0  0  0
    9.4172    0.4890   -9.0694 H   0  0  0  0  0  0  0  0  0  0  0  0
    8.7110   -1.1354   -8.8314 H   0  0  0  0  0  0  0  0  0  0  0  0
    6.8763    0.1317  -12.3287 H   0  0  0  0  0  0  0  0  0  0  0  0
    6.4479    1.6636  -10.0007 H   0  0  0  0  0  0  0  0  0  0  0  0
    5.7239    0.0109   -9.7592 H   0  0  0  0  0  0  0  0  0  0  0  0
    4.4600    0.2807  -11.8719 H   0  0  0  0  0  0  0  0  0  0  0  0
    5.1658    1.8937  -12.1119 H   0  0  0  0  0  0  0  0  0  0  0  0
    3.2155    3.3006   -7.9271 H   0  0  0  0  0  0  0  0  0  0  0  0
    2.7717    1.5857   -7.5571 H   0  0  0  0  0  0  0  0  0  0  0  0
   -1.9133    0.8395   -7.3313 H   0  0  0  0  0  0  0  0  0  0  0  0
    0.5590    1.4512   -4.0984 H   0  0  0  0  0  0  0  0  0  0  0  0
   -1.0814    4.4697   -9.1097 H   0  0  0  0  0  0  0  0  0  0  0  0
    2.6407    2.0282  -12.3447 H   0  0  0  0  0  0  0  0  0  0  0  0
    2.3686    3.2437  -11.0936 H   0  0  0  0  0  0  0  0  0  0  0  0
    1.6914    1.5788  -10.9487 H   0  0  0  0  0  0  0  0  0  0  0  0
    9.5379   -1.8404  -11.2305 H   0  0  0  0  0  0  0  0  0  0  0  0
   10.2395   -0.2267  -11.4674 H   0  0  0  0  0  0  0  0  0  0  0  0
    8.6734    0.1945  -13.3557 H   0  0  0  0  0  0  0  0  0  0  0  0
    7.9596   -1.4481  -13.1148 H   0  0  0  0  0  0  0  0  0  0  0  0
   10.7692   -1.7192  -13.4181 H   0  0  0  0  0  0  0  0  0  0  0  0
   10.9989   -1.3506  -16.8938 H   0  0  0  0  0  0  0  0  0  0  0  0
   10.2985   -2.9658  -16.6572 H   0  0  0  0  0  0  0  0  0  0  0  0
   11.6364   -3.2531  -14.5882 H   0  0  0  0  0  0  0  0  0  0  0  0
   12.3440   -1.6207  -14.8272 H   0  0  0  0  0  0  0  0  0  0  0  0
   12.8684   -3.1846  -17.2128 H   0  0  0  0  0  0  0  0  0  0  0  0
   13.6018   -2.9605  -13.5123 H   0  0  0  0  0  0  0  0  0  0  0  0
   15.3019   -2.7709  -13.8902 H   0  0  0  0  0  0  0  0  0  0  0  0
   14.5977   -4.3950  -13.6524 H   0  0  0  0  0  0  0  0  0  0  0  0
   14.9541   -4.1254  -17.4626 H   0  0  0  0  0  0  0  0  0  0  0  0
   15.4487   -5.1217  -16.0877 H   0  0  0  0  0  0  0  0  0  0  0  0
   16.1537   -3.4959  -16.3259 H   0  0  0  0  0  0  0  0  0  0  0  0
    7.6578   -0.6340  -15.2244 H   0  0  0  0  0  0  0  0  0  0  0  0
    7.9092   -1.8999  -16.4146 H   0  0  0  0  0  0  0  0  0  0  0  0
    8.6138   -0.2750  -16.6526 H   0  0  0  0  0  0  0  0  0  0  0  0
  1  2  1  0  0  0  0
  1 31  1  0  0  0  0
  1 32  1  0  0  0  0
  1 33  1  0  0  0  0
  2  3  2  0  0  0  0
  2 20  1  0  0  0  0
  3  4  1  0  0  0  0
  3 34  1  0  0  0  0
  4  5  1  0  0  0  0
  4 35  1  0  0  0  0
  4 36  1  0  0  0  0
  5  6  1  0  0  0  0
  5 37  1  0  0  0  0
  5 38  1  0  0  0  0
  6  7  2  0  0  0  0
  6 19  1  0  0  0  0
  7  8  1  0  0  0  0
  7 18  1  0  0  0  0
  8  9  1  0  0  0  0
  8 39  1  0  0  0  0
  8 40  1  0  0  0  0
 10 12  1  1  0  0  0
 10 17  1  0  0  0  0
 10 11  2  0  0  0  0
 10  9  1  0  0  0  0
 12 13  1  0  0  0  0
 13 14  2  0  0  0  0
 13 15  1  0  0  0  0
 13 16  1  0  0  0  0
 15 41  1  0  0  0  0
 16 42  1  0  0  0  0
 17 43  1  0  0  0  0
 19 44  1  0  0  0  0
 19 45  1  0  0  0  0
 19 46  1  0  0  0  0
 20 21  1  0  0  0  0
 20 47  1  0  0  0  0
 20 48  1  0  0  0  0
 21 22  1  0  0  0  0
 21 49  1  0  0  0  0
 21 50  1  0  0  0  0
 22 23  2  0  0  0  0
 22 51  1  0  0  0  0
 23 24  1  0  0  0  0
 23 30  1  0  0  0  0
 24 25  1  0  0  0  0
 24 52  1  0  0  0  0
 24 53  1  0  0  0  0
 25 26  1  0  0  0  0
 25 54  1  0  0  0  0
 25 55  1  0  0  0  0
 26 27  2  0  0  0  0
 26 56  1  0  0  0  0
 27 28  1  0  0  0  0
 27 29  1  0  0  0  0
 28 57  1  0  0  0  0
 28 58  1  0  0  0  0
 28 59  1  0  0  0  0
 29 60  1  0  0  0  0
 29 61  1  0  0  0  0
 29 62  1  0  0  0  0
 30 63  1  0  0  0  0
 30 64  1  0  0  0  0
 30 65  1  0  0  0  0
M  END
$$$$
