FGR
 OpenBabel04121316113D

 35 35  0  0  1  0  0  0  0  0999 V2000
    7.8702    3.7720   -3.2535 O   0  0  0  0  0  0  0  0  0  0  0  0
    7.7495    2.5754   -2.9973 C   0  0  0  0  0  0  0  0  0  0  0  0
    7.2487    1.6712   -3.8753 N   0  0  0  0  0  0  0  0  0  0  0  0
    7.1036    0.2699   -3.5676 C   0  0  0  0  0  0  0  0  0  0  0  0
    6.4749   -0.4872   -4.7342 C   0  0  0  0  0  0  0  0  0  0  0  0
    6.1622    0.0542   -5.7947 O   0  0  0  0  0  0  0  0  0  0  0  0
    6.2260   -1.8202   -4.5615 N   0  0  0  0  0  0  0  0  0  0  0  0
    6.6855   -2.6298   -3.4565 C   0  0  2  0  0  0  0  0  0  0  0  0
    6.5357   -2.0511   -2.5413 H   0  0  0  0  0  0  0  0  0  0  0  0
    8.0902   -2.8653   -3.6180 O   0  0  0  0  0  0  0  0  0  0  0  0
    8.2453   -4.1176   -4.3413 C   0  0  1  0  0  0  0  0  0  0  0  0
    9.2213   -4.5374   -4.0645 H   0  0  0  0  0  0  0  0  0  0  0  0
    7.0998   -4.9991   -3.8630 C   0  0  2  0  0  0  0  0  0  0  0  0
    6.7121   -5.6120   -4.6798 H   0  0  0  0  0  0  0  0  0  0  0  0
    6.0418   -4.0162   -3.3404 C   0  0  1  0  0  0  0  0  0  0  0  0
    5.1235   -4.0744   -3.9313 H   0  0  0  0  0  0  0  0  0  0  0  0
    5.6781   -4.2678   -1.9770 O   0  0  0  0  0  0  0  0  0  0  0  0
    7.5491   -5.9062   -2.8478 O   0  0  0  0  0  0  0  0  0  0  0  0
    8.2239   -3.7862   -5.8386 C   0  0  0  0  0  0  0  0  0  0  0  0
    8.2242   -4.8488   -6.7755 O   0  0  0  0  0  0  0  0  0  0  0  0
    8.8181   -4.4011   -8.2142 P   0  0  0  0  0  0  0  0  0  0  0  0
    9.2840   -2.9900   -8.2967 O   0  0  0  0  0  0  0  0  0  0  0  0
    9.9293   -5.5122   -8.4532 O   0  0  0  0  0  0  0  0  0  0  0  0
    7.6812   -4.7233   -9.2823 O   0  0  0  0  0  0  0  0  0  0  0  0
    8.0386    2.1442   -2.0273 H   0  0  0  0  0  0  0  0  0  0  0  0
    6.9594    2.0054   -4.7915 H   0  0  0  0  0  0  0  0  0  0  0  0
    6.4502    0.1874   -2.6936 H   0  0  0  0  0  0  0  0  0  0  0  0
    8.0908   -0.1375   -3.3329 H   0  0  0  0  0  0  0  0  0  0  0  0
    5.7912   -2.2462   -5.3719 H   0  0  0  0  0  0  0  0  0  0  0  0
    6.4744   -4.1995   -1.4231 H   0  0  0  0  0  0  0  0  0  0  0  0
    7.9465   -5.4109   -2.1138 H   0  0  0  0  0  0  0  0  0  0  0  0
    9.1058   -3.1615   -5.9996 H   0  0  0  0  0  0  0  0  0  0  0  0
    7.3586   -3.1899   -6.1023 H   0  0  0  0  0  0  0  0  0  0  0  0
    9.9373   -6.1478   -7.7146 H   0  0  0  0  0  0  0  0  0  0  0  0
    7.6857   -3.9998   -9.9454 H   0  0  0  0  0  0  0  0  0  0  0  0
  1  2  2  0  0  0  0
  2  3  1  0  0  0  0
  2 25  1  0  0  0  0
  3  4  1  0  0  0  0
  3 26  1  0  0  0  0
  4  5  1  0  0  0  0
  4 27  1  0  0  0  0
  4 28  1  0  0  0  0
  5  6  2  0  0  0  0
  5  7  1  0  0  0  0
  7 29  1  0  0  0  0
  8 10  1  0  0  0  0
  8 15  1  0  0  0  0
  8  9  1  1  0  0  0
  8  7  1  0  0  0  0
 10 11  1  0  0  0  0
 11 12  1  1  0  0  0
 11 13  1  0  0  0  0
 11 19  1  0  0  0  0
 13 15  1  0  0  0  0
 13 18  1  0  0  0  0
 13 14  1  6  0  0  0
 15 17  1  0  0  0  0
 15 16  1  6  0  0  0
 17 30  1  0  0  0  0
 18 31  1  0  0  0  0
 19 20  1  0  0  0  0
 19 32  1  0  0  0  0
 19 33  1  0  0  0  0
 20 21  1  0  0  0  0
 21 22  2  0  0  0  0
 21 23  1  0  0  0  0
 21 24  1  0  0  0  0
 23 34  1  0  0  0  0
 24 35  1  0  0  0  0
M  END
$$$$
