FHM
 OpenBabel04121316113D

 42 43  0  0  1  0  0  0  0  0999 V2000
    0.9241    0.1115    0.1840 F   0  0  0  0  0  0  0  0  0  0  0  0
    2.2599    0.1133    0.1064 C   0  0  0  0  0  0  0  0  0  0  0  0
    2.9478    1.3210    0.0882 C   0  0  0  0  0  0  0  0  0  0  0  0
    4.3271    1.3190   -0.1152 C   0  0  0  0  0  0  0  0  0  0  0  0
    5.0164    0.1073   -0.1941 C   0  0  0  0  0  0  0  0  0  0  0  0
    4.3238   -1.0974   -0.0446 C   0  0  0  0  0  0  0  0  0  0  0  0
    2.9362   -1.0963    0.0425 C   0  0  0  0  0  0  0  0  0  0  0  0
    6.3577    0.2094   -0.4319 O   0  0  0  0  0  0  0  0  0  0  0  0
    7.0452   -1.0387   -0.5754 C   0  0  0  0  0  0  0  0  0  0  0  0
    8.5037   -0.7696   -0.9210 C   0  0  1  0  0  0  0  0  0  0  0  0
    8.6050    0.0370   -2.2278 C   0  0  0  0  0  0  0  0  0  0  0  0
    9.0182    1.1974   -2.1667 O   0  0  0  0  0  0  0  0  0  0  0  0
    8.1593   -0.5919   -3.3916 N   0  0  0  0  0  0  0  0  0  0  0  0
    8.1580    0.0346   -4.6591 C   0  0  0  0  0  0  0  0  0  0  0  0
    8.9601    1.1422   -4.9214 C   0  0  0  0  0  0  0  0  0  0  0  0
    8.8681    1.8341   -6.1204 C   0  0  0  0  0  0  0  0  0  0  0  0
    7.8960    1.4821   -7.0592 C   0  0  0  0  0  0  0  0  0  0  0  0
    7.1012    0.3339   -6.8499 C   0  0  0  0  0  0  0  0  0  0  0  0
    7.3063   -0.4291   -5.6674 C   0  0  0  0  0  0  0  0  0  0  0  0
    5.9944   -0.0669   -7.7924 C   0  0  0  0  0  0  0  0  0  0  0  0
    5.0166    0.8736   -7.8739 F   0  0  0  0  0  0  0  0  0  0  0  0
    6.4345   -0.3335   -9.0480 F   0  0  0  0  0  0  0  0  0  0  0  0
    5.3506   -1.2038   -7.3946 F   0  0  0  0  0  0  0  0  0  0  0  0
    7.7329    2.3898   -8.2137 N   0  3  0  0  0  0  0  0  0  0  0  0
    6.8594    2.1517   -9.0409 O   0  0  0  0  0  0  0  0  0  0  0  0
    8.4949    3.3713   -8.2759 O   0  5  0  0  0  0  0  0  0  0  0  0
    9.0722   -0.0085    0.1555 O   0  0  0  0  0  0  0  0  0  0  0  0
    9.2856   -2.0696   -1.0240 C   0  0  0  0  0  0  0  0  0  0  0  0
    2.4068    2.2523    0.2165 H   0  0  0  0  0  0  0  0  0  0  0  0
    4.8632    2.2605   -0.2137 H   0  0  0  0  0  0  0  0  0  0  0  0
    4.8311   -2.0549   -0.0019 H   0  0  0  0  0  0  0  0  0  0  0  0
    2.3875   -2.0314    0.0656 H   0  0  0  0  0  0  0  0  0  0  0  0
    6.5774   -1.6450   -1.3608 H   0  0  0  0  0  0  0  0  0  0  0  0
    7.0034   -1.5620    0.3875 H   0  0  0  0  0  0  0  0  0  0  0  0
    7.6378   -1.4564   -3.3083 H   0  0  0  0  0  0  0  0  0  0  0  0
    9.6786    1.5146   -4.1980 H   0  0  0  0  0  0  0  0  0  0  0  0
    9.5422    2.6761   -6.2690 H   0  0  0  0  0  0  0  0  0  0  0  0
    6.7360   -1.3480   -5.5222 H   0  0  0  0  0  0  0  0  0  0  0  0
    8.6618    0.8795    0.0805 H   0  0  0  0  0  0  0  0  0  0  0  0
    8.8760   -2.7332   -1.7918 H   0  0  0  0  0  0  0  0  0  0  0  0
    9.2761   -2.6000   -0.0658 H   0  0  0  0  0  0  0  0  0  0  0  0
   10.3339   -1.8685   -1.2695 H   0  0  0  0  0  0  0  0  0  0  0  0
  1  2  1  0  0  0  0
  2  3  2  0  0  0  0
  2  7  1  0  0  0  0
  3  4  1  0  0  0  0
  3 29  1  0  0  0  0
  4  5  2  0  0  0  0
  4 30  1  0  0  0  0
  5  6  1  0  0  0  0
  5  8  1  0  0  0  0
  6  7  2  0  0  0  0
  6 31  1  0  0  0  0
  7 32  1  0  0  0  0
  8  9  1  0  0  0  0
  9 33  1  0  0  0  0
  9 34  1  0  0  0  0
 10  9  1  1  0  0  0
 10 11  1  0  0  0  0
 10 27  1  0  0  0  0
 10 28  1  0  0  0  0
 11 12  2  0  0  0  0
 11 13  1  0  0  0  0
 13 14  1  0  0  0  0
 13 35  1  0  0  0  0
 14 15  2  0  0  0  0
 14 19  1  0  0  0  0
 15 16  1  0  0  0  0
 15 36  1  0  0  0  0
 16 17  2  0  0  0  0
 16 37  1  0  0  0  0
 17 18  1  0  0  0  0
 17 24  1  0  0  0  0
 18 19  2  0  0  0  0
 18 20  1  0  0  0  0
 19 38  1  0  0  0  0
 20 21  1  0  0  0  0
 20 22  1  0  0  0  0
 20 23  1  0  0  0  0
 24 25  2  0  0  0  0
 24 26  1  0  0  0  0
 27 39  1  0  0  0  0
 28 40  1  0  0  0  0
 28 41  1  0  0  0  0
 28 42  1  0  0  0  0
M  CHG  2  24   1  26  -1
M  END
$$$$
