FI4
 OpenBabel04121316113D

 46 49  0  0  1  0  0  0  0  0999 V2000
    1.0354    0.0580   -0.1075 C   0  0  0  0  0  0  0  0  0  0  0  0
    2.5604    0.0306   -0.0763 C   0  0  1  0  0  0  0  0  0  0  0  0
    2.9362    1.0002    0.2742 H   0  0  0  0  0  0  0  0  0  0  0  0
    3.0885   -1.0887    0.8382 C   0  0  0  0  0  0  0  0  0  0  0  0
    2.6771   -0.8586    2.2004 N   0  0  0  0  0  0  0  0  0  0  0  0
    3.0264   -1.7246    3.2080 C   0  0  0  0  0  0  0  0  0  0  0  0
    2.9646   -3.0468    3.0129 N   0  0  0  0  0  0  0  0  0  0  0  0
    2.9216   -3.8842    4.0585 C   0  0  0  0  0  0  0  0  0  0  0  0
    2.4475   -5.1927    3.8423 O   0  0  0  0  0  0  0  0  0  0  0  0
    2.1081   -5.6302    2.5662 C   0  0  0  0  0  0  0  0  0  0  0  0
    2.1665   -7.0196    2.3534 C   0  0  0  0  0  0  0  0  0  0  0  0
    2.0156   -7.5540    1.0606 C   0  0  0  0  0  0  0  0  0  0  0  0
    1.7600   -6.7109   -0.0137 C   0  0  0  0  0  0  0  0  0  0  0  0
    1.5496   -5.3657    0.1963 C   0  0  0  0  0  0  0  0  0  0  0  0
    1.6789   -4.8501    1.4802 C   0  0  0  0  0  0  0  0  0  0  0  0
    1.2691   -3.5835    1.6112 F   0  0  0  0  0  0  0  0  0  0  0  0
    1.6694   -7.2038   -1.2547 F   0  0  0  0  0  0  0  0  0  0  0  0
    3.2266   -3.5525    5.3382 N   0  0  0  0  0  0  0  0  0  0  0  0
    3.5065   -2.2350    5.4547 C   0  0  0  0  0  0  0  0  0  0  0  0
    3.3924   -1.2789    4.4611 C   0  0  0  0  0  0  0  0  0  0  0  0
    3.7345   -0.0390    5.0530 C   0  0  0  0  0  0  0  0  0  0  0  0
    4.1066   -0.2063    6.3333 N   0  0  0  0  0  0  0  0  0  0  0  0
    3.9263   -1.5350    6.5501 N   0  0  0  0  0  0  0  0  0  0  0  0
    4.1231   -1.9042    7.4747 H   0  0  0  0  0  0  0  0  0  0  0  0
    3.7421    1.2636    4.3845 C   0  0  0  0  0  0  0  0  0  0  0  0
    4.9564    1.8199    3.9527 C   0  0  0  0  0  0  0  0  0  0  0  0
    4.9867    3.0993    3.3854 C   0  0  0  0  0  0  0  0  0  0  0  0
    3.7990    3.7863    3.1422 C   0  0  0  0  0  0  0  0  0  0  0  0
    2.5788    3.1864    3.4451 C   0  0  0  0  0  0  0  0  0  0  0  0
    2.5501    1.9532    4.1053 C   0  0  0  0  0  0  0  0  0  0  0  0
    0.9957    1.3180    4.5248 Cl  0  0  0  0  0  0  0  0  0  0  0  0
    3.0542   -0.1697   -1.4010 O   0  0  0  0  0  0  0  0  0  0  0  0
    0.6111    0.2468    0.8837 H   0  0  0  0  0  0  0  0  0  0  0  0
    0.6403   -0.8935   -0.4786 H   0  0  0  0  0  0  0  0  0  0  0  0
    0.6767    0.8407   -0.7831 H   0  0  0  0  0  0  0  0  0  0  0  0
    4.1844   -1.0996    0.7872 H   0  0  0  0  0  0  0  0  0  0  0  0
    2.7495   -2.0595    0.4632 H   0  0  0  0  0  0  0  0  0  0  0  0
    2.2030   -0.0063    2.4541 H   0  0  0  0  0  0  0  0  0  0  0  0
    2.3206   -7.7028    3.1864 H   0  0  0  0  0  0  0  0  0  0  0  0
    2.1019   -8.6215    0.8777 H   0  0  0  0  0  0  0  0  0  0  0  0
    1.2633   -4.7048   -0.6126 H   0  0  0  0  0  0  0  0  0  0  0  0
    5.8870    1.2657    4.0599 H   0  0  0  0  0  0  0  0  0  0  0  0
    5.9392    3.5634    3.1376 H   0  0  0  0  0  0  0  0  0  0  0  0
    3.8219    4.7879    2.7184 H   0  0  0  0  0  0  0  0  0  0  0  0
    1.6527    3.6928    3.1839 H   0  0  0  0  0  0  0  0  0  0  0  0
    2.7019    0.5462   -1.9565 H   0  0  0  0  0  0  0  0  0  0  0  0
  1  2  1  0  0  0  0
  1 33  1  0  0  0  0
  1 34  1  0  0  0  0
  1 35  1  0  0  0  0
  2  3  1  1  0  0  0
  2  4  1  0  0  0  0
  2 32  1  0  0  0  0
  4  5  1  0  0  0  0
  4 36  1  0  0  0  0
  4 37  1  0  0  0  0
  5  6  1  0  0  0  0
  5 38  1  0  0  0  0
  6  7  2  0  0  0  0
  6 20  1  0  0  0  0
  7  8  1  0  0  0  0
  8  9  1  0  0  0  0
  8 18  2  0  0  0  0
  9 10  1  0  0  0  0
 10 11  2  0  0  0  0
 10 15  1  0  0  0  0
 11 12  1  0  0  0  0
 11 39  1  0  0  0  0
 12 13  2  0  0  0  0
 12 40  1  0  0  0  0
 13 14  1  0  0  0  0
 13 17  1  0  0  0  0
 14 15  2  0  0  0  0
 14 41  1  0  0  0  0
 15 16  1  0  0  0  0
 18 19  1  0  0  0  0
 19 20  2  0  0  0  0
 19 23  1  0  0  0  0
 20 21  1  0  0  0  0
 21 22  2  0  0  0  0
 21 25  1  0  0  0  0
 22 23  1  0  0  0  0
 23 24  1  0  0  0  0
 25 26  2  0  0  0  0
 25 30  1  0  0  0  0
 26 27  1  0  0  0  0
 26 42  1  0  0  0  0
 27 28  2  0  0  0  0
 27 43  1  0  0  0  0
 28 29  1  0  0  0  0
 28 44  1  0  0  0  0
 29 30  2  0  0  0  0
 29 45  1  0  0  0  0
 30 31  1  0  0  0  0
 32 46  1  0  0  0  0
M  END
$$$$
