FIC
 OpenBabel04121316113D

 19 20  0  0  0  0  0  0  0  0999 V2000
    0.9863   -0.0842    0.0746 F   0  0  0  0  0  0  0  0  0  0  0  0
    2.3270   -0.0683    0.0883 C   0  0  0  0  0  0  0  0  0  0  0  0
    3.0238   -1.2679    0.0301 C   0  0  0  0  0  0  0  0  0  0  0  0
    4.4271   -1.2810    0.0210 C   0  0  0  0  0  0  0  0  0  0  0  0
    5.0918   -0.0422    0.0337 C   0  0  0  0  0  0  0  0  0  0  0  0
    4.3991    1.1639    0.1085 C   0  0  0  0  0  0  0  0  0  0  0  0
    2.9915    1.1541    0.1495 C   0  0  0  0  0  0  0  0  0  0  0  0
    5.3729    2.1927    0.0857 C   0  0  0  0  0  0  0  0  0  0  0  0
    6.6048    1.6350   -0.2457 C   0  0  0  0  0  0  0  0  0  0  0  0
    6.4409    0.2783   -0.0197 N   0  0  0  0  0  0  0  0  0  0  0  0
    7.1725   -0.4158    0.0197 H   0  0  0  0  0  0  0  0  0  0  0  0
    7.7512    2.3895   -0.7290 C   0  0  0  0  0  0  0  0  0  0  0  0
    7.7412    3.6017   -0.9216 O   0  0  0  0  0  0  0  0  0  0  0  0
    8.8523    1.6627   -1.0286 O   0  0  0  0  0  0  0  0  0  0  0  0
    2.4612   -2.1972   -0.0159 H   0  0  0  0  0  0  0  0  0  0  0  0
    4.9624   -2.2235   -0.0283 H   0  0  0  0  0  0  0  0  0  0  0  0
    2.4213    2.0764    0.1785 H   0  0  0  0  0  0  0  0  0  0  0  0
    5.1661    3.2551    0.1417 H   0  0  0  0  0  0  0  0  0  0  0  0
    8.8234    0.7018   -0.9231 H   0  0  0  0  0  0  0  0  0  0  0  0
  1  2  1  0  0  0  0
  2  3  2  0  0  0  0
  2  7  1  0  0  0  0
  3  4  1  0  0  0  0
  3 15  1  0  0  0  0
  4  5  2  0  0  0  0
  4 16  1  0  0  0  0
  5  6  1  0  0  0  0
  5 10  1  0  0  0  0
  6  7  2  0  0  0  0
  6  8  1  0  0  0  0
  7 17  1  0  0  0  0
  8  9  2  0  0  0  0
  8 18  1  0  0  0  0
  9 10  1  0  0  0  0
  9 12  1  0  0  0  0
 10 11  1  0  0  0  0
 12 13  2  0  0  0  0
 12 14  1  0  0  0  0
 14 19  1  0  0  0  0
M  END
$$$$
