FLA
 OpenBabel04121316113D

 13 12  0  0  1  0  0  0  0  0999 V2000
    2.9207   -0.7429   -1.3075 N   0  0  0  0  0  0  0  0  0  0  0  0
    2.4468   -0.0877   -0.0416 C   0  0  2  0  0  0  0  0  0  0  0  0
    1.3505   -0.1008   -0.0581 H   0  0  0  0  0  0  0  0  0  0  0  0
    2.9155    1.3502    0.1544 C   0  0  0  0  0  0  0  0  0  0  0  0
    2.4770    1.9141    1.2914 F   0  0  0  0  0  0  0  0  0  0  0  0
    4.2736    1.3950    0.1472 F   0  0  0  0  0  0  0  0  0  0  0  0
    2.4950    2.1185   -0.8809 F   0  0  0  0  0  0  0  0  0  0  0  0
    2.8881   -0.8865    1.1714 C   0  0  0  0  0  0  0  0  0  0  0  0
    2.0985   -1.4054    1.9532 O   0  0  0  0  0  0  0  0  0  0  0  0
    4.2248   -1.0329    1.3292 O   0  0  0  0  0  0  0  0  0  0  0  0
    3.9363   -0.6908   -1.3743 H   0  0  0  0  0  0  0  0  0  0  0  0
    2.5790   -0.1793   -2.0921 H   0  0  0  0  0  0  0  0  0  0  0  0
    4.7905   -0.5776    0.6763 H   0  0  0  0  0  0  0  0  0  0  0  0
  1 11  1  0  0  0  0
  1 12  1  0  0  0  0
  2  4  1  0  0  0  0
  2  8  1  0  0  0  0
  2  3  1  6  0  0  0
  2  1  1  0  0  0  0
  4  5  1  0  0  0  0
  4  6  1  0  0  0  0
  4  7  1  0  0  0  0
  8  9  2  0  0  0  0
  8 10  1  0  0  0  0
 10 13  1  0  0  0  0
M  END
$$$$
