FLS
 OpenBabel04121316113D

 47 49  0  0  1  0  0  0  0  0999 V2000
    2.9209   -0.9328    1.2923 C   0  0  0  0  0  0  0  0  0  0  0  0
    2.5155   -0.1062    0.0625 C   0  0  2  0  0  0  0  0  0  0  0  0
    1.4194   -0.0506    0.0652 H   0  0  0  0  0  0  0  0  0  0  0  0
    2.9585   -0.7190   -1.2796 C   0  0  0  0  0  0  0  0  0  0  0  0
    2.3300   -2.3755   -1.5001 S   0  0  0  0  0  0  0  0  0  0  0  0
    2.9559   -3.2576   -0.5333 O   0  0  0  0  0  0  0  0  0  0  0  0
    0.8869   -2.2883   -1.6050 O   0  0  0  0  0  0  0  0  0  0  0  0
    2.9575   -2.9008   -3.0716 C   0  0  0  0  0  0  0  0  0  0  0  0
    3.0020    1.2748    0.1737 N   0  0  0  0  0  0  0  0  0  0  0  0
    4.3334    1.5726    0.2742 C   0  0  0  0  0  0  0  0  0  0  0  0
    5.1900    0.5459    0.2683 N   0  0  0  0  0  0  0  0  0  0  0  0
    6.4840    0.8152    0.2942 C   0  0  0  0  0  0  0  0  0  0  0  0
    6.9418    2.1010    0.2494 C   0  0  0  0  0  0  0  0  0  0  0  0
    6.0286    3.1146    0.3318 C   0  0  0  0  0  0  0  0  0  0  0  0
    4.7040    2.8616    0.3346 N   0  0  0  0  0  0  0  0  0  0  0  0
    6.5584    4.4323    0.3838 N   0  0  0  0  0  0  0  0  0  0  0  0
    5.6470    5.5489    0.3273 C   0  0  0  0  0  0  0  0  0  0  0  0
    7.9359    4.6996    0.4541 C   0  0  0  0  0  0  0  0  0  0  0  0
    8.3915    5.8534    0.4659 O   0  0  0  0  0  0  0  0  0  0  0  0
    8.8899    3.5253    0.4091 C   0  0  0  0  0  0  0  0  0  0  0  0
    8.3267    2.3665    0.0518 C   0  0  0  0  0  0  0  0  0  0  0  0
   10.2660    3.7245    0.5305 O   0  0  0  0  0  0  0  0  0  0  0  0
   11.1710    2.6697    0.5711 C   0  0  0  0  0  0  0  0  0  0  0  0
   12.5038    3.0141    0.3291 C   0  0  0  0  0  0  0  0  0  0  0  0
   13.4639    2.0125    0.1159 C   0  0  0  0  0  0  0  0  0  0  0  0
   13.1003    0.6707    0.1737 C   0  0  0  0  0  0  0  0  0  0  0  0
   11.8294    0.3108    0.5563 C   0  0  0  0  0  0  0  0  0  0  0  0
   10.9064    1.3093    0.8193 C   0  0  0  0  0  0  0  0  0  0  0  0
    9.7556    0.8719    1.3505 F   0  0  0  0  0  0  0  0  0  0  0  0
   13.9988   -0.2868   -0.0809 F   0  0  0  0  0  0  0  0  0  0  0  0
    3.9996   -1.1023    1.3492 H   0  0  0  0  0  0  0  0  0  0  0  0
    2.4571   -1.9195    1.2899 H   0  0  0  0  0  0  0  0  0  0  0  0
    2.6102   -0.4459    2.2200 H   0  0  0  0  0  0  0  0  0  0  0  0
    4.0442   -0.7805   -1.3815 H   0  0  0  0  0  0  0  0  0  0  0  0
    2.5820   -0.1057   -2.1083 H   0  0  0  0  0  0  0  0  0  0  0  0
    4.0490   -2.8950   -3.0357 H   0  0  0  0  0  0  0  0  0  0  0  0
    2.5800   -2.2531   -3.8611 H   0  0  0  0  0  0  0  0  0  0  0  0
    2.6096   -3.9266   -3.2249 H   0  0  0  0  0  0  0  0  0  0  0  0
    2.3743    2.0478    0.3372 H   0  0  0  0  0  0  0  0  0  0  0  0
    7.1462   -0.0454    0.3238 H   0  0  0  0  0  0  0  0  0  0  0  0
    4.6004    5.2410    0.2871 H   0  0  0  0  0  0  0  0  0  0  0  0
    5.8775    6.1401   -0.5655 H   0  0  0  0  0  0  0  0  0  0  0  0
    5.8092    6.1682    1.2130 H   0  0  0  0  0  0  0  0  0  0  0  0
    8.8785    1.5337   -0.3350 H   0  0  0  0  0  0  0  0  0  0  0  0
   12.8063    4.0595    0.3213 H   0  0  0  0  0  0  0  0  0  0  0  0
   14.4966    2.2680   -0.0979 H   0  0  0  0  0  0  0  0  0  0  0  0
   11.5414   -0.7258    0.6852 H   0  0  0  0  0  0  0  0  0  0  0  0
  1 31  1  0  0  0  0
  1 32  1  0  0  0  0
  1 33  1  0  0  0  0
  2  4  1  0  0  0  0
  2  9  1  0  0  0  0
  2  3  1  6  0  0  0
  2  1  1  0  0  0  0
  4  5  1  0  0  0  0
  4 34  1  0  0  0  0
  4 35  1  0  0  0  0
  5  6  2  0  0  0  0
  5  7  2  0  0  0  0
  5  8  1  0  0  0  0
  8 36  1  0  0  0  0
  8 37  1  0  0  0  0
  8 38  1  0  0  0  0
  9 10  1  0  0  0  0
  9 39  1  0  0  0  0
 10 11  2  0  0  0  0
 10 15  1  0  0  0  0
 11 12  1  0  0  0  0
 12 13  2  0  0  0  0
 12 40  1  0  0  0  0
 13 14  1  0  0  0  0
 13 21  1  0  0  0  0
 14 15  2  0  0  0  0
 14 16  1  0  0  0  0
 16 17  1  0  0  0  0
 16 18  1  0  0  0  0
 17 41  1  0  0  0  0
 17 42  1  0  0  0  0
 17 43  1  0  0  0  0
 18 19  2  0  0  0  0
 18 20  1  0  0  0  0
 20 21  2  0  0  0  0
 20 22  1  0  0  0  0
 21 44  1  0  0  0  0
 22 23  1  0  0  0  0
 23 24  2  0  0  0  0
 23 28  1  0  0  0  0
 24 25  1  0  0  0  0
 24 45  1  0  0  0  0
 25 26  2  0  0  0  0
 25 46  1  0  0  0  0
 26 27  1  0  0  0  0
 26 30  1  0  0  0  0
 27 28  2  0  0  0  0
 27 47  1  0  0  0  0
 28 29  1  0  0  0  0
M  END
$$$$
