FLU
 OpenBabel04121316113D

 37 40  0  0  0  0  0  0  0  0999 V2000
    0.9015   -0.0509    0.0709 O   0  0  0  0  0  0  0  0  0  0  0  0
    2.2593    0.0062    0.0342 C   0  0  0  0  0  0  0  0  0  0  0  0
    2.8913    1.2261   -0.0401 C   0  0  0  0  0  0  0  0  0  0  0  0
    4.2727    1.2433   -0.1443 C   0  0  0  0  0  0  0  0  0  0  0  0
    5.0675    0.0930    0.0284 C   0  0  0  0  0  0  0  0  0  0  0  0
    4.3967   -1.1275    0.0716 C   0  0  0  0  0  0  0  0  0  0  0  0
    2.9964   -1.1742    0.0407 C   0  0  0  0  0  0  0  0  0  0  0  0
    5.0573   -2.3281    0.1348 O   0  0  0  0  0  0  0  0  0  0  0  0
    6.4364   -2.3277    0.2808 C   0  0  0  0  0  0  0  0  0  0  0  0
    7.1505   -1.0579    0.5218 C   0  0  0  0  0  0  0  0  0  0  0  0
    6.5566    0.1476    0.2429 C   0  0  0  0  0  0  0  0  0  0  0  0
    7.3484    1.4422    0.1004 C   0  0  0  0  0  0  0  0  0  0  0  0
    6.7567    2.6635    0.5168 C   0  0  0  0  0  0  0  0  0  0  0  0
    7.2616    3.9099    0.1493 C   0  0  0  0  0  0  0  0  0  0  0  0
    8.5705    3.9816   -0.2640 C   0  0  0  0  0  0  0  0  0  0  0  0
    9.2786    2.8040   -0.4545 C   0  0  0  0  0  0  0  0  0  0  0  0
    8.6200    1.5623   -0.4928 C   0  0  0  0  0  0  0  0  0  0  0  0
    9.4392    0.5080   -1.1765 C   0  0  0  0  0  0  0  0  0  0  0  0
   10.6471    0.4960   -1.0941 O   0  0  0  0  0  0  0  0  0  0  0  0
    8.7738   -0.3935   -1.9353 O   0  0  0  0  0  0  0  0  0  0  0  0
    8.5831   -1.1720    0.8483 C   0  0  0  0  0  0  0  0  0  0  0  0
    9.2902   -2.2420    0.4557 C   0  0  0  0  0  0  0  0  0  0  0  0
    8.6020   -3.4979    0.1151 C   0  0  0  0  0  0  0  0  0  0  0  0
    9.2326   -4.5259   -0.0943 O   0  0  0  0  0  0  0  0  0  0  0  0
    7.1197   -3.4719    0.0979 C   0  0  0  0  0  0  0  0  0  0  0  0
    0.5613    0.8606    0.0424 H   0  0  0  0  0  0  0  0  0  0  0  0
    2.3575    2.1722   -0.0342 H   0  0  0  0  0  0  0  0  0  0  0  0
    4.6755    2.2231   -0.3533 H   0  0  0  0  0  0  0  0  0  0  0  0
    2.4800   -2.1279    0.0500 H   0  0  0  0  0  0  0  0  0  0  0  0
    5.8399    2.6907    1.1028 H   0  0  0  0  0  0  0  0  0  0  0  0
    6.6596    4.8106    0.2507 H   0  0  0  0  0  0  0  0  0  0  0  0
    9.0491    4.9415   -0.4239 H   0  0  0  0  0  0  0  0  0  0  0  0
   10.3512    2.8535   -0.6256 H   0  0  0  0  0  0  0  0  0  0  0  0
    7.9013   -0.6670   -1.6078 H   0  0  0  0  0  0  0  0  0  0  0  0
    9.1395   -0.2994    1.1742 H   0  0  0  0  0  0  0  0  0  0  0  0
   10.3699   -2.2158    0.3433 H   0  0  0  0  0  0  0  0  0  0  0  0
    6.6449   -4.4214   -0.1135 H   0  0  0  0  0  0  0  0  0  0  0  0
  1  2  1  0  0  0  0
  1 26  1  0  0  0  0
  2  3  2  0  0  0  0
  2  7  1  0  0  0  0
  3  4  1  0  0  0  0
  3 27  1  0  0  0  0
  4  5  2  0  0  0  0
  4 28  1  0  0  0  0
  5  6  1  0  0  0  0
  5 11  1  0  0  0  0
  6  7  2  0  0  0  0
  6  8  1  0  0  0  0
  7 29  1  0  0  0  0
  8  9  1  0  0  0  0
  9 10  1  0  0  0  0
  9 25  2  0  0  0  0
 10 11  2  0  0  0  0
 10 21  1  0  0  0  0
 11 12  1  0  0  0  0
 12 13  2  0  0  0  0
 12 17  1  0  0  0  0
 13 14  1  0  0  0  0
 13 30  1  0  0  0  0
 14 15  2  0  0  0  0
 14 31  1  0  0  0  0
 15 16  1  0  0  0  0
 15 32  1  0  0  0  0
 16 17  2  0  0  0  0
 16 33  1  0  0  0  0
 17 18  1  0  0  0  0
 18 19  2  0  0  0  0
 18 20  1  0  0  0  0
 20 34  1  0  0  0  0
 21 22  2  0  0  0  0
 21 35  1  0  0  0  0
 22 23  1  0  0  0  0
 22 36  1  0  0  0  0
 23 24  2  0  0  0  0
 23 25  1  0  0  0  0
 25 37  1  0  0  0  0
M  END
$$$$
