FLZ
 OpenBabel04121316113D

 46 49  0  0  0  0  0  0  0  0999 V2000
    0.8857   -0.0918    0.0494 C   0  0  0  0  0  0  0  0  0  0  0  0
    2.3301   -0.1122    0.0248 N   0  0  0  0  0  0  0  0  0  0  0  0
    3.0084   -1.3646    0.0383 C   0  0  0  0  0  0  0  0  0  0  0  0
    2.3868   -2.5534    0.0376 N   0  0  0  0  0  0  0  0  0  0  0  0
    3.1694   -3.6631    0.1036 C   0  0  0  0  0  0  0  0  0  0  0  0
    4.4960   -3.6910    0.0545 N   0  0  0  0  0  0  0  0  0  0  0  0
    5.0806   -2.5057    0.0570 C   0  0  0  0  0  0  0  0  0  0  0  0
    4.3688   -1.3299    0.0969 C   0  0  0  0  0  0  0  0  0  0  0  0
    5.0470   -0.0960    0.2955 C   0  0  0  0  0  0  0  0  0  0  0  0
    4.5186    1.1027    0.0941 C   0  0  0  0  0  0  0  0  0  0  0  0
    2.9974    1.1378    0.0134 C   0  0  0  0  0  0  0  0  0  0  0  0
    2.4092    2.2032    0.0078 O   0  0  0  0  0  0  0  0  0  0  0  0
    5.2305    2.3110    0.1269 O   0  0  0  0  0  0  0  0  0  0  0  0
    6.6159    2.3616    0.0408 C   0  0  0  0  0  0  0  0  0  0  0  0
    7.2163    3.6147    0.1108 C   0  0  0  0  0  0  0  0  0  0  0  0
    8.6036    3.7295   -0.0974 C   0  0  0  0  0  0  0  0  0  0  0  0
    9.4207    2.5983   -0.1714 C   0  0  0  0  0  0  0  0  0  0  0  0
    8.8530    1.3539   -0.0885 C   0  0  0  0  0  0  0  0  0  0  0  0
    7.4765    1.2782   -0.1700 C   0  0  0  0  0  0  0  0  0  0  0  0
    2.5294   -4.8345    0.3543 N   0  0  0  0  0  0  0  0  0  0  0  0
    3.0515   -6.1618    0.0883 C   0  0  0  0  0  0  0  0  0  0  0  0
    3.7303   -7.1078    1.0797 C   0  0  0  0  0  0  0  0  0  0  0  0
    3.2462   -8.5054    0.5936 C   0  0  0  0  0  0  0  0  0  0  0  0
    3.6824   -8.7726   -0.7471 O   0  0  0  0  0  0  0  0  0  0  0  0
    3.1791   -7.8341   -1.7034 C   0  0  0  0  0  0  0  0  0  0  0  0
    3.5790   -6.4183   -1.3205 C   0  0  0  0  0  0  0  0  0  0  0  0
    0.4504   -1.0929    0.0568 H   0  0  0  0  0  0  0  0  0  0  0  0
    0.5324    0.4498   -0.8328 H   0  0  0  0  0  0  0  0  0  0  0  0
    0.5555    0.4476    0.9441 H   0  0  0  0  0  0  0  0  0  0  0  0
    6.1662   -2.5308    0.0720 H   0  0  0  0  0  0  0  0  0  0  0  0
    6.0358   -0.2810    0.6625 H   0  0  0  0  0  0  0  0  0  0  0  0
    6.6185    4.5113    0.2558 H   0  0  0  0  0  0  0  0  0  0  0  0
    9.0580    4.7078   -0.2145 H   0  0  0  0  0  0  0  0  0  0  0  0
   10.4871    2.6678   -0.3526 H   0  0  0  0  0  0  0  0  0  0  0  0
    9.4311    0.4347   -0.0892 H   0  0  0  0  0  0  0  0  0  0  0  0
    7.1648    0.3078   -0.5118 H   0  0  0  0  0  0  0  0  0  0  0  0
    1.5674   -4.7035    0.0479 H   0  0  0  0  0  0  0  0  0  0  0  0
    2.0624   -6.5945    0.2029 H   0  0  0  0  0  0  0  0  0  0  0  0
    3.4114   -6.9521    2.1145 H   0  0  0  0  0  0  0  0  0  0  0  0
    4.8302   -7.0842    1.0483 H   0  0  0  0  0  0  0  0  0  0  0  0
    2.1467   -8.5660    0.6063 H   0  0  0  0  0  0  0  0  0  0  0  0
    3.6085   -9.3075    1.2377 H   0  0  0  0  0  0  0  0  0  0  0  0
    2.0870   -7.9184   -1.7724 H   0  0  0  0  0  0  0  0  0  0  0  0
    3.5919   -8.0912   -2.6835 H   0  0  0  0  0  0  0  0  0  0  0  0
    3.2031   -5.7028   -2.0548 H   0  0  0  0  0  0  0  0  0  0  0  0
    4.6781   -6.3582   -1.3434 H   0  0  0  0  0  0  0  0  0  0  0  0
  1  2  1  0  0  0  0
  1 27  1  0  0  0  0
  1 28  1  0  0  0  0
  1 29  1  0  0  0  0
  2  3  1  0  0  0  0
  2 11  1  0  0  0  0
  3  4  2  0  0  0  0
  3  8  1  0  0  0  0
  4  5  1  0  0  0  0
  5  6  2  0  0  0  0
  5 20  1  0  0  0  0
  6  7  1  0  0  0  0
  7  8  2  0  0  0  0
  7 30  1  0  0  0  0
  8  9  1  0  0  0  0
  9 10  2  0  0  0  0
  9 31  1  0  0  0  0
 10 11  1  0  0  0  0
 10 13  1  0  0  0  0
 11 12  2  0  0  0  0
 13 14  1  0  0  0  0
 14 15  2  0  0  0  0
 14 19  1  0  0  0  0
 15 16  1  0  0  0  0
 15 32  1  0  0  0  0
 16 17  2  0  0  0  0
 16 33  1  0  0  0  0
 17 18  1  0  0  0  0
 17 34  1  0  0  0  0
 18 19  2  0  0  0  0
 18 35  1  0  0  0  0
 19 36  1  0  0  0  0
 20 21  1  0  0  0  0
 20 37  1  0  0  0  0
 21 22  1  0  0  0  0
 21 26  1  0  0  0  0
 21 38  1  0  0  0  0
 22 23  1  0  0  0  0
 22 39  1  0  0  0  0
 22 40  1  0  0  0  0
 23 24  1  0  0  0  0
 23 41  1  0  0  0  0
 23 42  1  0  0  0  0
 24 25  1  0  0  0  0
 25 26  1  0  0  0  0
 25 43  1  0  0  0  0
 25 44  1  0  0  0  0
 26 45  1  0  0  0  0
 26 46  1  0  0  0  0
M  END
$$$$
