FMB
 OpenBabel04121316113D

 31 33  0  0  1  0  0  0  0  0999 V2000
    0.9424    0.0150   -0.0221 O   0  0  0  0  0  0  0  0  0  0  0  0
    2.3638   -0.0679   -0.0432 C   0  0  0  0  0  0  0  0  0  0  0  0
    2.8275   -1.0618   -1.1141 C   0  0  1  0  0  0  0  0  0  0  0  0
    2.6203   -0.6252   -2.1009 H   0  0  0  0  0  0  0  0  0  0  0  0
    4.2279   -1.3345   -1.0291 O   0  0  0  0  0  0  0  0  0  0  0  0
    4.4313   -2.5954   -1.7307 C   0  0  2  0  0  0  0  0  0  0  0  0
    4.4063   -2.3839   -2.8096 H   0  0  0  0  0  0  0  0  0  0  0  0
    3.2200   -3.4522   -1.3630 C   0  0  1  0  0  0  0  0  0  0  0  0
    3.4292   -4.0981   -0.5035 H   0  0  0  0  0  0  0  0  0  0  0  0
    2.1517   -2.4195   -0.9662 C   0  0  2  0  0  0  0  0  0  0  0  0
    1.8727   -2.5854    0.0801 H   0  0  0  0  0  0  0  0  0  0  0  0
    0.9684   -2.4800   -1.7547 O   0  0  0  0  0  0  0  0  0  0  0  0
    2.7500   -4.2860   -2.4277 O   0  0  0  0  0  0  0  0  0  0  0  0
    5.8053   -3.1436   -1.4591 C   0  0  0  0  0  0  0  0  0  0  0  0
    6.1389   -4.4221   -1.1687 N   0  0  0  0  0  0  0  0  0  0  0  0
    7.5084   -4.3896   -1.0737 N   0  0  0  0  0  0  0  0  0  0  0  0
    8.0158   -5.2441   -0.8535 H   0  0  0  0  0  0  0  0  0  0  0  0
    8.0309   -3.1575   -1.3201 C   0  0  0  0  0  0  0  0  0  0  0  0
    6.9603   -2.3607   -1.5729 C   0  0  0  0  0  0  0  0  0  0  0  0
    7.0531   -1.0123   -1.9022 N   0  0  0  0  0  0  0  0  0  0  0  0
    8.2694   -0.5780   -1.9112 C   0  0  0  0  0  0  0  0  0  0  0  0
    9.4008   -1.3230   -1.6582 N   0  0  0  0  0  0  0  0  0  0  0  0
   10.3093   -0.8888   -1.7027 H   0  0  0  0  0  0  0  0  0  0  0  0
    9.3604   -2.6675   -1.3523 C   0  0  0  0  0  0  0  0  0  0  0  0
   10.3735   -3.3315   -1.1406 O   0  0  0  0  0  0  0  0  0  0  0  0
    0.6781    0.6076    0.6987 H   0  0  0  0  0  0  0  0  0  0  0  0
    2.7160   -0.3736    0.9482 H   0  0  0  0  0  0  0  0  0  0  0  0
    2.7662    0.9319   -0.2386 H   0  0  0  0  0  0  0  0  0  0  0  0
    0.6881   -3.4106   -1.7475 H   0  0  0  0  0  0  0  0  0  0  0  0
    3.4904   -4.8682   -2.6767 H   0  0  0  0  0  0  0  0  0  0  0  0
    8.4700    0.4790   -2.1400 H   0  0  0  0  0  0  0  0  0  0  0  0
  1  2  1  0  0  0  0
  1 26  1  0  0  0  0
  2  3  1  0  0  0  0
  2 27  1  0  0  0  0
  2 28  1  0  0  0  0
  3  4  1  6  0  0  0
  3  5  1  0  0  0  0
  3 10  1  0  0  0  0
  5  6  1  0  0  0  0
  6  8  1  0  0  0  0
  6 14  1  0  0  0  0
  6  7  1  6  0  0  0
  8  9  1  1  0  0  0
  8 10  1  0  0  0  0
  8 13  1  0  0  0  0
 10 11  1  1  0  0  0
 10 12  1  0  0  0  0
 12 29  1  0  0  0  0
 13 30  1  0  0  0  0
 14 15  2  0  0  0  0
 14 19  1  0  0  0  0
 15 16  1  0  0  0  0
 16 17  1  0  0  0  0
 16 18  1  0  0  0  0
 18 19  2  0  0  0  0
 18 24  1  0  0  0  0
 19 20  1  0  0  0  0
 20 21  2  0  0  0  0
 21 22  1  0  0  0  0
 21 31  1  0  0  0  0
 22 23  1  0  0  0  0
 22 24  1  0  0  0  0
 24 25  2  0  0  0  0
M  END
$$$$
