FMP
 OpenBabel04121316123D

 37 39  0  0  1  0  0  0  0  0999 V2000
    2.9623    0.1062   -1.4241 O   0  0  0  0  0  0  0  0  0  0  0  0
    2.4163   -0.0709   -0.0967 C   0  0  2  0  0  0  0  0  0  0  0  0
    1.3283   -0.0343   -0.1952 H   0  0  0  0  0  0  0  0  0  0  0  0
    2.9456    1.0435    0.7826 C   0  0  2  0  0  0  0  0  0  0  0  0
    2.3029    1.1423    1.6637 H   0  0  0  0  0  0  0  0  0  0  0  0
    3.0456    2.3081    0.1350 O   0  0  0  0  0  0  0  0  0  0  0  0
    4.3156    0.4985    1.1301 C   0  0  2  0  0  0  0  0  0  0  0  0
    5.0216    0.6480    0.3017 H   0  0  0  0  0  0  0  0  0  0  0  0
    4.1932   -0.9202    1.2653 O   0  0  0  0  0  0  0  0  0  0  0  0
    2.9642   -1.3304    0.6186 C   0  0  1  0  0  0  0  0  0  0  0  0
    3.2450   -2.0915   -0.1194 H   0  0  0  0  0  0  0  0  0  0  0  0
    1.9934   -1.9487    1.5828 C   0  0  0  0  0  0  0  0  0  0  0  0
    0.7423   -2.2336    1.1696 N   0  0  0  0  0  0  0  0  0  0  0  0
    0.1628   -2.7708    2.2548 N   0  0  0  0  0  0  0  0  0  0  0  0
   -0.8048   -3.0631    2.1861 H   0  0  0  0  0  0  0  0  0  0  0  0
    0.9720   -2.8582    3.3446 C   0  0  0  0  0  0  0  0  0  0  0  0
    2.1905   -2.3397    2.9374 C   0  0  0  0  0  0  0  0  0  0  0  0
    3.2542   -2.2797    3.7655 N   0  0  0  0  0  0  0  0  0  0  0  0
    2.9942   -2.7402    4.9984 C   0  0  0  0  0  0  0  0  0  0  0  0
    1.8361   -3.2582    5.4641 N   0  0  0  0  0  0  0  0  0  0  0  0
    0.7904   -3.3267    4.6250 C   0  0  0  0  0  0  0  0  0  0  0  0
   -0.3903   -3.8568    5.0893 N   0  0  0  0  0  0  0  0  0  0  0  0
    4.9242    1.1682    2.3424 C   0  0  0  0  0  0  0  0  0  0  0  0
    3.9564    1.5930    3.3082 O   0  0  0  0  0  0  0  0  0  0  0  0
    4.5799    2.3951    4.7085 P   0  0  0  0  0  0  0  0  0  0  0  0
    4.5440    1.1180    5.5425 O   0  0  0  0  0  0  0  0  0  0  0  0
    6.0808    2.5335    4.0831 O   0  0  0  0  0  0  0  0  0  0  0  0
    5.2034    3.1972    6.1088 O   0  0  0  0  0  0  0  0  0  0  0  0
    3.8885   -0.1935   -1.4203 H   0  0  0  0  0  0  0  0  0  0  0  0
    3.2816    2.1231   -0.7947 H   0  0  0  0  0  0  0  0  0  0  0  0
    3.8138   -2.6958    5.7104 H   0  0  0  0  0  0  0  0  0  0  0  0
   -0.3946   -4.1351    6.0602 H   0  0  0  0  0  0  0  0  0  0  0  0
   -1.2300   -3.9098    4.5448 H   0  0  0  0  0  0  0  0  0  0  0  0
    5.6596    0.5099    2.8161 H   0  0  0  0  0  0  0  0  0  0  0  0
    5.4121    2.0709    1.9574 H   0  0  0  0  0  0  0  0  0  0  0  0
    6.1819    3.3509    3.5651 H   0  0  0  0  0  0  0  0  0  0  0  0
    5.2261    2.4643    6.7612 H   0  0  0  0  0  0  0  0  0  0  0  0
  1 29  1  0  0  0  0
  2  4  1  0  0  0  0
  2 10  1  0  0  0  0
  2  3  1  6  0  0  0
  2  1  1  0  0  0  0
  4  7  1  0  0  0  0
  4  6  1  0  0  0  0
  4  5  1  1  0  0  0
  6 30  1  0  0  0  0
  7  9  1  0  0  0  0
  7 23  1  0  0  0  0
  7  8  1  6  0  0  0
  9 10  1  0  0  0  0
 10 12  1  0  0  0  0
 10 11  1  6  0  0  0
 12 13  2  0  0  0  0
 12 17  1  0  0  0  0
 13 14  1  0  0  0  0
 14 15  1  0  0  0  0
 14 16  1  0  0  0  0
 16 17  2  0  0  0  0
 16 21  1  0  0  0  0
 17 18  1  0  0  0  0
 18 19  2  0  0  0  0
 19 20  1  0  0  0  0
 19 31  1  0  0  0  0
 20 21  2  0  0  0  0
 21 22  1  0  0  0  0
 22 32  1  0  0  0  0
 22 33  1  0  0  0  0
 23 24  1  0  0  0  0
 23 34  1  0  0  0  0
 23 35  1  0  0  0  0
 24 25  1  0  0  0  0
 25 26  2  0  0  0  0
 25 27  1  0  0  0  0
 25 28  1  0  0  0  0
 27 36  1  0  0  0  0
 28 37  1  0  0  0  0
M  END
$$$$
