FMT
 OpenBabel04121316123D

  5  4  0  0  0  0  0  0  0  0999 V2000
    1.0637    0.1151    0.0223 O   0  0  0  0  0  0  0  0  0  0  0  0
    2.3997    0.0571   -0.0931 C   0  0  0  0  0  0  0  0  0  0  0  0
    2.9506   -0.0881   -1.1688 O   0  0  0  0  0  0  0  0  0  0  0  0
    0.7265    0.0333   -0.8943 H   0  0  0  0  0  0  0  0  0  0  0  0
    2.8907    0.1613    0.8852 H   0  0  0  0  0  0  0  0  0  0  0  0
  1  2  1  0  0  0  0
  1  4  1  0  0  0  0
  2  3  2  0  0  0  0
  2  5  1  0  0  0  0
M  END
$$$$
