FNR
 OpenBabel04121316123D

 54 56  0  0  1  0  0  0  0  0999 V2000
    0.9678    0.0261    0.1103 O   0  0  0  0  0  0  0  0  0  0  0  0
    2.2032    0.0815    0.1035 C   0  0  0  0  0  0  0  0  0  0  0  0
    2.8717    1.2577    0.1148 N   0  0  0  0  0  0  0  0  0  0  0  0
    2.3341    2.1086    0.1132 H   0  0  0  0  0  0  0  0  0  0  0  0
    4.2350    1.3750    0.1072 C   0  0  0  0  0  0  0  0  0  0  0  0
    4.8040    2.4511    0.0994 O   0  0  0  0  0  0  0  0  0  0  0  0
    4.9998    0.0932    0.0765 C   0  0  0  0  0  0  0  0  0  0  0  0
    4.3356   -1.0784    0.0060 C   0  0  0  0  0  0  0  0  0  0  0  0
    2.9575   -1.0485    0.0677 N   0  0  0  0  0  0  0  0  0  0  0  0
    2.4211   -1.9021    0.0584 H   0  0  0  0  0  0  0  0  0  0  0  0
    5.0646   -2.2992   -0.1324 N   0  0  0  0  0  0  0  0  0  0  0  0
    4.2870   -3.5614    0.0509 C   0  0  0  0  0  0  0  0  0  0  0  0
    5.0608   -4.8360    0.2441 C   0  0  1  0  0  0  0  0  0  0  0  0
    5.6045   -4.9832   -0.6796 H   0  0  0  0  0  0  0  0  0  0  0  0
    5.8681   -4.8223    1.5778 C   0  0  1  0  0  0  0  0  0  0  0  0
    5.1850   -5.1270    2.3703 H   0  0  0  0  0  0  0  0  0  0  0  0
    6.9886   -5.8687    1.4746 C   0  0  1  0  0  0  0  0  0  0  0  0
    7.5157   -5.8003    0.5307 H   0  0  0  0  0  0  0  0  0  0  0  0
    7.9866   -5.6904    2.6029 C   0  0  0  0  0  0  0  0  0  0  0  0
    8.7612   -4.4228    2.5565 O   0  0  0  0  0  0  0  0  0  0  0  0
    9.7594   -4.3139    3.9653 P   0  0  0  0  0  0  0  0  0  0  0  0
    8.6514   -4.7515    4.9151 O   0  0  0  0  0  0  0  0  0  0  0  0
   10.6352   -5.5947    3.4750 O   0  0  0  0  0  0  0  0  0  0  0  0
   10.7575   -4.2049    5.3741 O   0  0  0  0  0  0  0  0  0  0  0  0
    6.4577   -7.1954    1.4504 O   0  0  0  0  0  0  0  0  0  0  0  0
    6.4025   -3.5903    2.0691 O   0  0  0  0  0  0  0  0  0  0  0  0
    4.2448   -6.0185    0.1966 O   0  0  0  0  0  0  0  0  0  0  0  0
    6.5019   -2.2205   -0.3212 C   0  0  0  0  0  0  0  0  0  0  0  0
    7.1449   -0.9756   -0.1218 C   0  0  0  0  0  0  0  0  0  0  0  0
    6.3739    0.1720    0.1037 N   0  0  0  0  0  0  0  0  0  0  0  0
    6.7813    1.0970    0.0525 H   0  0  0  0  0  0  0  0  0  0  0  0
    8.5440   -0.9076   -0.0038 C   0  0  0  0  0  0  0  0  0  0  0  0
    9.3463   -2.0584   -0.0602 C   0  0  0  0  0  0  0  0  0  0  0  0
    8.7664   -3.2858   -0.3086 C   0  0  0  0  0  0  0  0  0  0  0  0
    7.3853   -3.3005   -0.5368 C   0  0  0  0  0  0  0  0  0  0  0  0
    9.5403   -4.5911   -0.2715 C   0  0  0  0  0  0  0  0  0  0  0  0
   10.8265   -2.0013    0.0843 C   0  0  0  0  0  0  0  0  0  0  0  0
    3.6136   -3.6793   -0.8071 H   0  0  0  0  0  0  0  0  0  0  0  0
    3.6278   -3.4788    0.9303 H   0  0  0  0  0  0  0  0  0  0  0  0
    8.6818   -6.5375    2.5901 H   0  0  0  0  0  0  0  0  0  0  0  0
    7.4096   -5.7732    3.5279 H   0  0  0  0  0  0  0  0  0  0  0  0
   10.5909   -5.7098    2.5119 H   0  0  0  0  0  0  0  0  0  0  0  0
   10.3428   -3.5534    5.9663 H   0  0  0  0  0  0  0  0  0  0  0  0
    5.7950   -7.2049    0.7304 H   0  0  0  0  0  0  0  0  0  0  0  0
    5.9300   -2.8022    1.7595 H   0  0  0  0  0  0  0  0  0  0  0  0
    3.9165   -6.1010   -0.7193 H   0  0  0  0  0  0  0  0  0  0  0  0
    9.0117    0.0561    0.1699 H   0  0  0  0  0  0  0  0  0  0  0  0
    7.0879   -4.2844   -0.8030 H   0  0  0  0  0  0  0  0  0  0  0  0
   10.6218   -4.4724   -0.2709 H   0  0  0  0  0  0  0  0  0  0  0  0
    9.2447   -5.2507   -1.0881 H   0  0  0  0  0  0  0  0  0  0  0  0
    9.3801   -5.1602    0.6382 H   0  0  0  0  0  0  0  0  0  0  0  0
   11.1863   -0.9762    0.1158 H   0  0  0  0  0  0  0  0  0  0  0  0
   11.2629   -2.4878   -0.7957 H   0  0  0  0  0  0  0  0  0  0  0  0
   11.1342   -2.5363    0.9897 H   0  0  0  0  0  0  0  0  0  0  0  0
  1  2  2  0  0  0  0
  2  3  1  0  0  0  0
  2  9  1  0  0  0  0
  3  4  1  0  0  0  0
  3  5  1  0  0  0  0
  5  6  2  0  0  0  0
  5  7  1  0  0  0  0
  7  8  2  0  0  0  0
  7 30  1  0  0  0  0
  8  9  1  0  0  0  0
  8 11  1  0  0  0  0
  9 10  1  0  0  0  0
 11 12  1  0  0  0  0
 11 28  1  0  0  0  0
 12 13  1  0  0  0  0
 12 38  1  0  0  0  0
 12 39  1  0  0  0  0
 13 14  1  6  0  0  0
 13 15  1  0  0  0  0
 13 27  1  0  0  0  0
 15 16  1  1  0  0  0
 15 17  1  0  0  0  0
 15 26  1  0  0  0  0
 17 18  1  6  0  0  0
 17 19  1  0  0  0  0
 17 25  1  0  0  0  0
 19 20  1  0  0  0  0
 19 40  1  0  0  0  0
 19 41  1  0  0  0  0
 20 21  1  0  0  0  0
 21 22  2  0  0  0  0
 21 23  1  0  0  0  0
 21 24  1  0  0  0  0
 23 42  1  0  0  0  0
 24 43  1  0  0  0  0
 25 44  1  0  0  0  0
 26 45  1  0  0  0  0
 27 46  1  0  0  0  0
 28 29  2  0  0  0  0
 28 35  1  0  0  0  0
 29 30  1  0  0  0  0
 29 32  1  0  0  0  0
 30 31  1  0  0  0  0
 32 33  2  0  0  0  0
 32 47  1  0  0  0  0
 33 34  1  0  0  0  0
 33 37  1  0  0  0  0
 34 35  2  0  0  0  0
 34 36  1  0  0  0  0
 35 48  1  0  0  0  0
 36 49  1  0  0  0  0
 36 50  1  0  0  0  0
 36 51  1  0  0  0  0
 37 52  1  0  0  0  0
 37 53  1  0  0  0  0
 37 54  1  0  0  0  0
M  END
$$$$
