FNU
 OpenBabel04121316123D

 36 37  0  0  1  0  0  0  0  0999 V2000
    2.8241    0.2695   -1.3460 O   0  0  0  0  0  0  0  0  0  0  0  0
    2.3113    0.1136   -0.0102 C   0  0  2  0  0  0  0  0  0  0  0  0
    1.2253    0.1848   -0.0713 H   0  0  0  0  0  0  0  0  0  0  0  0
    2.8432    1.2256    0.8632 C   0  0  2  0  0  0  0  0  0  0  0  0
    2.2095    1.2944    1.7544 H   0  0  0  0  0  0  0  0  0  0  0  0
    2.9160    2.4969    0.2392 O   0  0  0  0  0  0  0  0  0  0  0  0
    4.2157    0.7049    1.1953 C   0  0  2  0  0  0  0  0  0  0  0  0
    4.9270    0.8324    0.3688 H   0  0  0  0  0  0  0  0  0  0  0  0
    4.0741   -0.7183    1.3835 O   0  0  0  0  0  0  0  0  0  0  0  0
    2.8560   -1.1574    0.7077 C   0  0  1  0  0  0  0  0  0  0  0  0
    3.1562   -1.9226   -0.0202 H   0  0  0  0  0  0  0  0  0  0  0  0
    1.8991   -1.7922    1.6336 N   0  0  0  0  0  0  0  0  0  0  0  0
    0.6655   -2.1204    1.0632 C   0  0  0  0  0  0  0  0  0  0  0  0
    0.3898   -1.9666   -0.1239 O   0  0  0  0  0  0  0  0  0  0  0  0
   -0.2847   -2.6295    1.8972 N   0  0  0  0  0  0  0  0  0  0  0  0
   -1.1877   -2.8239    1.4914 H   0  0  0  0  0  0  0  0  0  0  0  0
   -0.0975   -2.9679    3.1995 C   0  0  0  0  0  0  0  0  0  0  0  0
   -0.9909   -3.4791    3.8749 O   0  0  0  0  0  0  0  0  0  0  0  0
    1.2512   -2.7132    3.7153 C   0  0  0  0  0  0  0  0  0  0  0  0
    2.2159   -2.1764    2.9423 C   0  0  0  0  0  0  0  0  0  0  0  0
    3.4869   -2.0655    3.4532 N   0  0  0  0  0  0  0  0  0  0  0  0
    1.4848   -3.0863    4.9914 F   0  0  0  0  0  0  0  0  0  0  0  0
    4.8075    1.4036    2.4040 C   0  0  0  0  0  0  0  0  0  0  0  0
    3.8171    1.6843    3.4074 O   0  0  0  0  0  0  0  0  0  0  0  0
    4.4406    2.4864    4.8077 P   0  0  0  0  0  0  0  0  0  0  0  0
    3.3817    1.8375    5.6879 O   0  0  0  0  0  0  0  0  0  0  0  0
    5.7607    1.5345    4.7968 O   0  0  0  0  0  0  0  0  0  0  0  0
    5.0641    3.2885    6.2079 O   0  0  0  0  0  0  0  0  0  0  0  0
    3.7642    0.0254   -1.3639 H   0  0  0  0  0  0  0  0  0  0  0  0
    3.2601    2.3526   -0.6621 H   0  0  0  0  0  0  0  0  0  0  0  0
    3.6157   -2.1450    4.4572 H   0  0  0  0  0  0  0  0  0  0  0  0
    4.1423   -1.5077    2.9100 H   0  0  0  0  0  0  0  0  0  0  0  0
    5.5683    0.7221    2.7970 H   0  0  0  0  0  0  0  0  0  0  0  0
    5.2820    2.3482    2.1216 H   0  0  0  0  0  0  0  0  0  0  0  0
    5.5277    0.6161    5.0150 H   0  0  0  0  0  0  0  0  0  0  0  0
    4.3492    3.8422    6.5709 H   0  0  0  0  0  0  0  0  0  0  0  0
  1 29  1  0  0  0  0
  2  4  1  0  0  0  0
  2 10  1  0  0  0  0
  2  3  1  6  0  0  0
  2  1  1  0  0  0  0
  4  7  1  0  0  0  0
  4  6  1  0  0  0  0
  4  5  1  1  0  0  0
  6 30  1  0  0  0  0
  7  9  1  0  0  0  0
  7 23  1  0  0  0  0
  7  8  1  6  0  0  0
  9 10  1  0  0  0  0
 10 12  1  0  0  0  0
 10 11  1  6  0  0  0
 12 13  1  0  0  0  0
 12 20  1  0  0  0  0
 13 14  2  0  0  0  0
 13 15  1  0  0  0  0
 15 16  1  0  0  0  0
 15 17  1  0  0  0  0
 17 18  2  0  0  0  0
 17 19  1  0  0  0  0
 19 20  2  0  0  0  0
 19 22  1  0  0  0  0
 20 21  1  0  0  0  0
 21 31  1  0  0  0  0
 21 32  1  0  0  0  0
 23 24  1  0  0  0  0
 23 33  1  0  0  0  0
 23 34  1  0  0  0  0
 24 25  1  0  0  0  0
 25 26  2  0  0  0  0
 25 27  1  0  0  0  0
 25 28  1  0  0  0  0
 27 35  1  0  0  0  0
 28 36  1  0  0  0  0
M  END
$$$$
