FO1
 OpenBabel04121316123D

 43 45  0  0  1  0  0  0  0  0999 V2000
   -0.7252   -3.7371   -3.2280 O   0  0  0  0  0  0  0  0  0  0  0  0
    0.4687   -3.4841   -2.6049 C   0  0  0  0  0  0  0  0  0  0  0  0
    1.4317   -4.5958   -2.6493 C   0  0  2  0  0  0  0  0  0  0  0  0
    1.0148   -5.4034   -2.0494 H   0  0  0  0  0  0  0  0  0  0  0  0
    2.6751   -3.8470   -2.2060 C   0  0  2  0  0  0  0  0  0  0  0  0
    2.4666   -3.5189   -1.1733 H   0  0  0  0  0  0  0  0  0  0  0  0
    3.0618   -2.4847   -3.0265 C   0  0  2  0  0  0  0  0  0  0  0  0
    2.6924   -1.6763   -2.3838 H   0  0  0  0  0  0  0  0  0  0  0  0
    2.5651   -2.1515   -4.5918 C   0  0  0  0  0  0  0  0  0  0  0  0
    1.0364   -1.8124   -5.0072 N   0  0  0  0  0  0  0  0  0  0  0  0
    0.3072   -0.8411   -4.1851 C   0  0  0  0  0  0  0  0  0  0  0  0
    0.9854    0.0336   -3.2855 C   0  0  0  0  0  0  0  0  0  0  0  0
    0.2850    0.8509   -2.3938 C   0  0  0  0  0  0  0  0  0  0  0  0
    0.9285    1.7280   -1.5637 O   0  0  0  0  0  0  0  0  0  0  0  0
   -1.1012    0.8045   -2.3361 C   0  0  0  0  0  0  0  0  0  0  0  0
   -1.8126   -0.0942   -3.1556 C   0  0  0  0  0  0  0  0  0  0  0  0
   -1.1415   -0.8847   -4.1325 C   0  0  0  0  0  0  0  0  0  0  0  0
   -1.9147   -1.9284   -4.9254 C   0  0  0  0  0  0  0  0  0  0  0  0
   -1.2817   -2.8550   -5.7009 C   0  0  0  0  0  0  0  0  0  0  0  0
    0.2682   -2.8343   -5.7450 C   0  0  0  0  0  0  0  0  0  0  0  0
    0.8894   -3.8509   -6.2803 N   0  0  0  0  0  0  0  0  0  0  0  0
    0.2605   -5.0466   -6.5992 C   0  0  0  0  0  0  0  0  0  0  0  0
    0.8550   -6.0378   -6.9697 O   0  0  0  0  0  0  0  0  0  0  0  0
   -1.1072   -5.1384   -6.4745 N   0  0  0  0  0  0  0  0  0  0  0  0
   -1.4857   -6.0537   -6.6878 H   0  0  0  0  0  0  0  0  0  0  0  0
   -1.9444   -4.1760   -6.0147 C   0  0  0  0  0  0  0  0  0  0  0  0
   -3.1481   -4.4181   -5.8388 O   0  0  0  0  0  0  0  0  0  0  0  0
    4.5017   -2.3565   -2.8948 O   0  0  0  0  0  0  0  0  0  0  0  0
    3.7389   -4.7820   -2.1255 O   0  0  0  0  0  0  0  0  0  0  0  0
    1.6587   -5.1191   -3.9544 O   0  0  0  0  0  0  0  0  0  0  0  0
   -0.6239   -2.9754   -3.8032 H   0  0  0  0  0  0  0  0  0  0  0  0
    0.3360   -2.8668   -1.7205 H   0  0  0  0  0  0  0  0  0  0  0  0
    0.9822   -2.8246   -3.2454 H   0  0  0  0  0  0  0  0  0  0  0  0
    2.9222   -2.9915   -5.1917 H   0  0  0  0  0  0  0  0  0  0  0  0
    3.1593   -1.2842   -4.9259 H   0  0  0  0  0  0  0  0  0  0  0  0
    2.0678    0.0836   -3.2382 H   0  0  0  0  0  0  0  0  0  0  0  0
    1.8909    1.6925   -1.6976 H   0  0  0  0  0  0  0  0  0  0  0  0
   -1.6258    1.4913   -1.6696 H   0  0  0  0  0  0  0  0  0  0  0  0
   -2.8927   -0.1596   -2.9928 H   0  0  0  0  0  0  0  0  0  0  0  0
   -2.9322   -2.1549   -4.5696 H   0  0  0  0  0  0  0  0  0  0  0  0
    4.7960   -1.5603   -3.3687 H   0  0  0  0  0  0  0  0  0  0  0  0
    4.4870   -4.2596   -1.7847 H   0  0  0  0  0  0  0  0  0  0  0  0
    2.4178   -5.7319   -3.8798 H   0  0  0  0  0  0  0  0  0  0  0  0
  1  2  1  0  0  0  0
  1 31  1  0  0  0  0
  2 32  1  0  0  0  0
  2 33  1  0  0  0  0
  3 30  1  0  0  0  0
  3  4  1  1  0  0  0
  3  2  1  0  0  0  0
  5 29  1  0  0  0  0
  5  6  1  1  0  0  0
  5  3  1  0  0  0  0
  7  9  1  0  0  0  0
  7 28  1  0  0  0  0
  7  8  1  1  0  0  0
  7  5  1  0  0  0  0
  9 10  1  0  0  0  0
  9 34  1  0  0  0  0
  9 35  1  0  0  0  0
 10 11  1  0  0  0  0
 10 20  1  0  0  0  0
 11 12  2  0  0  0  0
 11 17  1  0  0  0  0
 12 13  1  0  0  0  0
 12 36  1  0  0  0  0
 13 14  1  0  0  0  0
 13 15  2  0  0  0  0
 14 37  1  0  0  0  0
 15 16  1  0  0  0  0
 15 38  1  0  0  0  0
 16 17  2  0  0  0  0
 16 39  1  0  0  0  0
 17 18  1  0  0  0  0
 18 19  2  0  0  0  0
 18 40  1  0  0  0  0
 19 20  1  0  0  0  0
 19 26  1  0  0  0  0
 20 21  2  0  0  0  0
 21 22  1  0  0  0  0
 22 23  2  0  0  0  0
 22 24  1  0  0  0  0
 24 25  1  0  0  0  0
 24 26  1  0  0  0  0
 26 27  2  0  0  0  0
 28 41  1  0  0  0  0
 29 42  1  0  0  0  0
 30 43  1  0  0  0  0
M  END
$$$$
