FOM
 OpenBabel04121316123D

 21 20  0  0  0  0  0  0  0  0999 V2000
    1.1681   -0.0130   -0.4741 O   0  0  0  0  0  0  0  0  0  0  0  0
    2.3733   -0.0213   -0.2047 C   0  0  0  0  0  0  0  0  0  0  0  0
    2.9717   -0.2793    1.0068 N   0  0  0  0  0  0  0  0  0  0  0  0
    2.3305   -0.6125    2.2843 C   0  0  0  0  0  0  0  0  0  0  0  0
    0.8398   -0.6048    2.1184 C   0  0  0  0  0  0  0  0  0  0  0  0
   -0.0118   -0.9631    3.2915 C   0  0  0  0  0  0  0  0  0  0  0  0
   -1.8110   -0.8759    2.9687 P   0  0  0  0  0  0  0  0  0  0  0  0
   -1.7662    0.6434    3.0671 O   0  0  0  0  0  0  0  0  0  0  0  0
   -1.6852   -1.4518    1.4495 O   0  0  0  0  0  0  0  0  0  0  0  0
   -3.5118   -0.7934    2.6635 O   0  0  0  0  0  0  0  0  0  0  0  0
    4.3723   -0.3589    1.0954 O   0  0  0  0  0  0  0  0  0  0  0  0
    3.0941    0.1961   -0.9993 H   0  0  0  0  0  0  0  0  0  0  0  0
    2.6632    0.0992    3.0463 H   0  0  0  0  0  0  0  0  0  0  0  0
    2.6702   -1.6123    2.5847 H   0  0  0  0  0  0  0  0  0  0  0  0
    0.6672   -1.3761    1.3648 H   0  0  0  0  0  0  0  0  0  0  0  0
    0.5031    0.3704    1.7511 H   0  0  0  0  0  0  0  0  0  0  0  0
    0.2287   -0.3400    4.1613 H   0  0  0  0  0  0  0  0  0  0  0  0
    0.1991   -1.9966    3.5919 H   0  0  0  0  0  0  0  0  0  0  0  0
   -1.0182   -1.1459    0.8077 H   0  0  0  0  0  0  0  0  0  0  0  0
   -3.9263   -0.2801    3.3803 H   0  0  0  0  0  0  0  0  0  0  0  0
    4.6946   -0.1178    0.2110 H   0  0  0  0  0  0  0  0  0  0  0  0
  1  2  2  0  0  0  0
  2  3  1  0  0  0  0
  2 12  1  0  0  0  0
  3  4  1  0  0  0  0
  3 11  1  0  0  0  0
  4  5  1  0  0  0  0
  4 13  1  0  0  0  0
  4 14  1  0  0  0  0
  5  6  1  0  0  0  0
  5 15  1  0  0  0  0
  5 16  1  0  0  0  0
  6  7  1  0  0  0  0
  6 17  1  0  0  0  0
  6 18  1  0  0  0  0
  7  8  2  0  0  0  0
  7  9  1  0  0  0  0
  7 10  1  0  0  0  0
  9 19  1  0  0  0  0
 10 20  1  0  0  0  0
 11 21  1  0  0  0  0
M  END
$$$$
