FP2
 OpenBabel04121316123D

 13 13  0  0  0  0  0  0  0  0999 V2000
    1.0703   -0.0188    0.1572 O   0  0  0  0  0  0  0  0  0  0  0  0
    2.4328    0.0290    0.0719 C   0  0  0  0  0  0  0  0  0  0  0  0
    3.1043    1.2514    0.0453 C   0  0  0  0  0  0  0  0  0  0  0  0
    4.4900    1.2679   -0.1387 C   0  0  0  0  0  0  0  0  0  0  0  0
    5.2068    0.0723   -0.2156 C   0  0  0  0  0  0  0  0  0  0  0  0
    4.5377   -1.1481   -0.1034 C   0  0  0  0  0  0  0  0  0  0  0  0
    3.1513   -1.1605    0.0020 C   0  0  0  0  0  0  0  0  0  0  0  0
    2.5135   -2.3424    0.0209 F   0  0  0  0  0  0  0  0  0  0  0  0
    0.7152    0.8816    0.0980 H   0  0  0  0  0  0  0  0  0  0  0  0
    2.5717    2.1893    0.1598 H   0  0  0  0  0  0  0  0  0  0  0  0
    5.0148    2.2179   -0.2215 H   0  0  0  0  0  0  0  0  0  0  0  0
    6.2838    0.0887   -0.3610 H   0  0  0  0  0  0  0  0  0  0  0  0
    5.0840   -2.0846   -0.1096 H   0  0  0  0  0  0  0  0  0  0  0  0
  1  2  1  0  0  0  0
  1  9  1  0  0  0  0
  2  3  2  0  0  0  0
  2  7  1  0  0  0  0
  3  4  1  0  0  0  0
  3 10  1  0  0  0  0
  4  5  2  0  0  0  0
  4 11  1  0  0  0  0
  5  6  1  0  0  0  0
  5 12  1  0  0  0  0
  6  7  2  0  0  0  0
  6 13  1  0  0  0  0
  7  8  1  0  0  0  0
M  END
$$$$
