FPP
 OpenBabel04121316123D

 52 51  0  0  0  0  0  0  0  0999 V2000
    6.6800   -0.1598    3.8559 C   0  0  0  0  0  0  0  0  0  0  0  0
    6.3138    0.1185    5.2952 C   0  0  0  0  0  0  0  0  0  0  0  0
    5.2864    0.9037    5.6819 C   0  0  0  0  0  0  0  0  0  0  0  0
    4.4444    1.5520    4.7006 C   0  0  0  0  0  0  0  0  0  0  0  0
    3.4841    2.4626    5.2328 O   0  0  0  0  0  0  0  0  0  0  0  0
    2.3970    2.9076    4.0488 P   0  0  2  0  0  0  0  0  0  0  0  0
    3.1692    2.1449    2.9502 O   0  0  0  0  0  0  0  0  0  0  0  0
    3.0859    4.3051    3.5508 O   0  0  0  0  0  0  0  0  0  0  0  0
    3.7479    4.6473    2.1137 P   0  0  0  0  0  0  0  0  0  0  0  0
    2.9475    5.5612    1.2481 O   0  0  0  0  0  0  0  0  0  0  0  0
    5.1092    5.3114    2.6271 O   0  0  0  0  0  0  0  0  0  0  0  0
    4.3345    3.4053    1.2901 O   0  0  0  0  0  0  0  0  0  0  0  0
    1.5320    3.7620    5.2796 O   0  0  0  0  0  0  0  0  0  0  0  0
    7.1892   -0.5511    6.3050 C   0  0  0  0  0  0  0  0  0  0  0  0
    6.6921   -0.2059    7.6951 C   0  0  0  0  0  0  0  0  0  0  0  0
    7.5022   -0.7959    8.7618 C   0  0  0  0  0  0  0  0  0  0  0  0
    7.2316   -0.6082   10.0515 C   0  0  0  0  0  0  0  0  0  0  0  0
    8.0846   -1.2276   11.1277 C   0  0  0  0  0  0  0  0  0  0  0  0
    9.2175   -2.0381   10.5150 C   0  0  0  0  0  0  0  0  0  0  0  0
   10.1126   -2.6889   11.4947 C   0  0  0  0  0  0  0  0  0  0  0  0
   11.1511   -3.4330   11.0922 C   0  0  0  0  0  0  0  0  0  0  0  0
   11.4975   -3.6719    9.6404 C   0  0  0  0  0  0  0  0  0  0  0  0
   12.0346   -4.0755   12.1111 C   0  0  0  0  0  0  0  0  0  0  0  0
    6.0705    0.2245   10.5395 C   0  0  0  0  0  0  0  0  0  0  0  0
    6.0075    0.3131    3.1343 H   0  0  0  0  0  0  0  0  0  0  0  0
    6.6470   -1.2354    3.6545 H   0  0  0  0  0  0  0  0  0  0  0  0
    7.6881    0.2098    3.6464 H   0  0  0  0  0  0  0  0  0  0  0  0
    4.9739    1.0854    6.7019 H   0  0  0  0  0  0  0  0  0  0  0  0
    3.9320    0.7079    4.2125 H   0  0  0  0  0  0  0  0  0  0  0  0
    5.0996    2.1216    4.0302 H   0  0  0  0  0  0  0  0  0  0  0  0
    5.2642    4.9787    3.5316 H   0  0  0  0  0  0  0  0  0  0  0  0
    4.2953    3.5401    0.3220 H   0  0  0  0  0  0  0  0  0  0  0  0
    0.9299    4.4150    4.8789 H   0  0  0  0  0  0  0  0  0  0  0  0
    8.2228   -0.2074    6.1731 H   0  0  0  0  0  0  0  0  0  0  0  0
    7.1765   -1.6378    6.1534 H   0  0  0  0  0  0  0  0  0  0  0  0
    5.6670   -0.5808    7.8190 H   0  0  0  0  0  0  0  0  0  0  0  0
    6.7256    0.8833    7.8344 H   0  0  0  0  0  0  0  0  0  0  0  0
    8.3359   -1.3905    8.3908 H   0  0  0  0  0  0  0  0  0  0  0  0
    7.4614   -1.8771   11.7514 H   0  0  0  0  0  0  0  0  0  0  0  0
    8.4978   -0.4354   11.7609 H   0  0  0  0  0  0  0  0  0  0  0  0
    9.8353   -1.3728    9.8934 H   0  0  0  0  0  0  0  0  0  0  0  0
    8.7875   -2.8297    9.8832 H   0  0  0  0  0  0  0  0  0  0  0  0
    9.8940   -2.5389   12.5488 H   0  0  0  0  0  0  0  0  0  0  0  0
   10.8168   -3.1774    8.9379 H   0  0  0  0  0  0  0  0  0  0  0  0
   11.4557   -4.7397    9.4091 H   0  0  0  0  0  0  0  0  0  0  0  0
   12.4980   -3.2904    9.4193 H   0  0  0  0  0  0  0  0  0  0  0  0
   11.7019   -3.8432   13.1293 H   0  0  0  0  0  0  0  0  0  0  0  0
   13.0585   -3.7101   12.0027 H   0  0  0  0  0  0  0  0  0  0  0  0
   12.0149   -5.1613   11.9926 H   0  0  0  0  0  0  0  0  0  0  0  0
    5.4782    0.6563    9.7260 H   0  0  0  0  0  0  0  0  0  0  0  0
    6.4326    1.0603   11.1428 H   0  0  0  0  0  0  0  0  0  0  0  0
    5.3892   -0.3896   11.1331 H   0  0  0  0  0  0  0  0  0  0  0  0
  1  2  1  0  0  0  0
  1 25  1  0  0  0  0
  1 26  1  0  0  0  0
  1 27  1  0  0  0  0
  2  3  2  0  0  0  0
  2 14  1  0  0  0  0
  3  4  1  0  0  0  0
  3 28  1  0  0  0  0
  4  5  1  0  0  0  0
  4 29  1  0  0  0  0
  4 30  1  0  0  0  0
  6  8  1  6  0  0  0
  6 13  1  0  0  0  0
  6  7  2  0  0  0  0
  6  5  1  0  0  0  0
  8  9  1  0  0  0  0
  9 10  2  0  0  0  0
  9 11  1  0  0  0  0
  9 12  1  0  0  0  0
 11 31  1  0  0  0  0
 12 32  1  0  0  0  0
 13 33  1  0  0  0  0
 14 15  1  0  0  0  0
 14 34  1  0  0  0  0
 14 35  1  0  0  0  0
 15 16  1  0  0  0  0
 15 36  1  0  0  0  0
 15 37  1  0  0  0  0
 16 17  2  0  0  0  0
 16 38  1  0  0  0  0
 17 18  1  0  0  0  0
 17 24  1  0  0  0  0
 18 19  1  0  0  0  0
 18 39  1  0  0  0  0
 18 40  1  0  0  0  0
 19 20  1  0  0  0  0
 19 41  1  0  0  0  0
 19 42  1  0  0  0  0
 20 21  2  0  0  0  0
 20 43  1  0  0  0  0
 21 22  1  0  0  0  0
 21 23  1  0  0  0  0
 22 44  1  0  0  0  0
 22 45  1  0  0  0  0
 22 46  1  0  0  0  0
 23 47  1  0  0  0  0
 23 48  1  0  0  0  0
 23 49  1  0  0  0  0
 24 50  1  0  0  0  0
 24 51  1  0  0  0  0
 24 52  1  0  0  0  0
M  END
$$$$
