FPR
 OpenBabel04121316123D

 34 34  0  0  1  0  0  0  0  0999 V2000
    1.0038    0.2745   -0.2611 O   0  0  0  0  0  0  0  0  0  0  0  0
    2.2823    0.2666    0.1659 C   0  0  0  0  0  0  0  0  0  0  0  0
    2.6490   -0.3405    1.1655 O   0  0  0  0  0  0  0  0  0  0  0  0
    3.1412    0.9910   -0.8341 C   0  0  0  0  0  0  0  0  0  0  0  0
    4.6424    0.7744   -0.6547 C   0  0  1  0  0  0  0  0  0  0  0  0
    4.9521    0.9495    0.3795 H   0  0  0  0  0  0  0  0  0  0  0  0
    5.0730   -0.6557   -1.0446 C   0  0  0  0  0  0  0  0  0  0  0  0
    5.8351   -0.8824   -1.9894 O   0  0  0  0  0  0  0  0  0  0  0  0
    4.4912   -1.7852   -0.2286 C   0  0  0  0  0  0  0  0  0  0  0  0
    5.0157   -3.1074   -0.6839 C   0  0  0  0  0  0  0  0  0  0  0  0
    4.3899   -4.2419    0.1078 C   0  0  0  0  0  0  0  0  0  0  0  0
    4.8633   -5.5732   -0.4019 C   0  0  0  0  0  0  0  0  0  0  0  0
    5.6481   -5.6909   -1.5619 C   0  0  0  0  0  0  0  0  0  0  0  0
    5.8643   -6.9243   -2.1494 C   0  0  0  0  0  0  0  0  0  0  0  0
    5.4240   -8.0685   -1.5014 C   0  0  0  0  0  0  0  0  0  0  0  0
    4.7822   -7.9747   -0.2654 C   0  0  0  0  0  0  0  0  0  0  0  0
    4.4492   -6.7294    0.2573 C   0  0  0  0  0  0  0  0  0  0  0  0
    5.3860    1.7134   -1.5227 N   0  0  0  0  0  0  0  0  0  0  0  0
    0.6712   -0.6439   -0.3164 H   0  0  0  0  0  0  0  0  0  0  0  0
    2.8934    2.0487   -0.7104 H   0  0  0  0  0  0  0  0  0  0  0  0
    2.8366    0.6668   -1.8396 H   0  0  0  0  0  0  0  0  0  0  0  0
    3.4165   -1.8261   -0.4118 H   0  0  0  0  0  0  0  0  0  0  0  0
    4.7190   -1.6344    0.8302 H   0  0  0  0  0  0  0  0  0  0  0  0
    6.1073   -3.1257   -0.5889 H   0  0  0  0  0  0  0  0  0  0  0  0
    4.7574   -3.2111   -1.7474 H   0  0  0  0  0  0  0  0  0  0  0  0
    3.2950   -4.2018    0.0030 H   0  0  0  0  0  0  0  0  0  0  0  0
    4.6179   -4.1340    1.1752 H   0  0  0  0  0  0  0  0  0  0  0  0
    6.0846   -4.8258   -2.0557 H   0  0  0  0  0  0  0  0  0  0  0  0
    6.3731   -6.9742   -3.1070 H   0  0  0  0  0  0  0  0  0  0  0  0
    5.5914   -9.0361   -1.9598 H   0  0  0  0  0  0  0  0  0  0  0  0
    4.5207   -8.8742    0.2811 H   0  0  0  0  0  0  0  0  0  0  0  0
    3.8599   -6.6598    1.1689 H   0  0  0  0  0  0  0  0  0  0  0  0
    5.0813    2.6726   -1.3962 H   0  0  0  0  0  0  0  0  0  0  0  0
    5.2350    1.4571   -2.5025 H   0  0  0  0  0  0  0  0  0  0  0  0
  1  2  1  0  0  0  0
  1 19  1  0  0  0  0
  2  3  2  0  0  0  0
  2  4  1  0  0  0  0
  4  5  1  0  0  0  0
  4 20  1  0  0  0  0
  4 21  1  0  0  0  0
  5  6  1  1  0  0  0
  5  7  1  0  0  0  0
  5 18  1  0  0  0  0
  7  8  2  0  0  0  0
  7  9  1  0  0  0  0
  9 10  1  0  0  0  0
  9 22  1  0  0  0  0
  9 23  1  0  0  0  0
 10 11  1  0  0  0  0
 10 24  1  0  0  0  0
 10 25  1  0  0  0  0
 11 12  1  0  0  0  0
 11 26  1  0  0  0  0
 11 27  1  0  0  0  0
 12 13  2  0  0  0  0
 12 17  1  0  0  0  0
 13 14  1  0  0  0  0
 13 28  1  0  0  0  0
 14 15  2  0  0  0  0
 14 29  1  0  0  0  0
 15 16  1  0  0  0  0
 15 30  1  0  0  0  0
 16 17  2  0  0  0  0
 16 31  1  0  0  0  0
 17 32  1  0  0  0  0
 18 33  1  0  0  0  0
 18 34  1  0  0  0  0
M  END
$$$$
