FRJ
 OpenBabel04121316123D

 60 64  0  0  0  0  0  0  0  0999 V2000
    1.0362   -0.0251   -0.0197 C   0  0  0  0  0  0  0  0  0  0  0  0
    2.5550    0.0392    0.0045 C   0  0  0  0  0  0  0  0  0  0  0  0
    3.0456    0.8063   -1.1761 C   0  0  0  0  0  0  0  0  0  0  0  0
    2.8596    2.1697   -1.1694 O   0  0  0  0  0  0  0  0  0  0  0  0
    3.2301    2.6397   -2.4006 C   0  0  0  0  0  0  0  0  0  0  0  0
    3.5788    1.5572   -3.1968 C   0  0  0  0  0  0  0  0  0  0  0  0
    3.6058    0.3841   -2.3732 C   0  0  0  0  0  0  0  0  0  0  0  0
    4.0498   -0.9985   -2.6435 C   0  0  0  0  0  0  0  0  0  0  0  0
    3.8452   -1.9239   -1.8700 O   0  0  0  0  0  0  0  0  0  0  0  0
    4.7678   -1.3410   -3.9067 C   0  0  0  0  0  0  0  0  0  0  0  0
    5.5566   -0.4104   -4.5794 C   0  0  0  0  0  0  0  0  0  0  0  0
    5.8767   -0.6024   -5.9196 C   0  0  0  0  0  0  0  0  0  0  0  0
    6.4595    0.8747   -6.9650 Br  0  0  0  0  0  0  0  0  0  0  0  0
    5.6925   -1.8492   -6.4958 C   0  0  0  0  0  0  0  0  0  0  0  0
    5.1538   -2.8826   -5.7253 C   0  0  0  0  0  0  0  0  0  0  0  0
    4.6409   -2.6218   -4.4491 C   0  0  0  0  0  0  0  0  0  0  0  0
    5.1447   -4.6646   -6.3604 Br  0  0  0  0  0  0  0  0  0  0  0  0
    6.0778   -2.0651   -7.7890 O   0  0  0  0  0  0  0  0  0  0  0  0
    3.8199    1.8257   -4.5472 C   0  0  0  0  0  0  0  0  0  0  0  0
    4.0610    3.1052   -4.9861 C   0  0  0  0  0  0  0  0  0  0  0  0
    3.7166    4.1708   -4.1837 C   0  0  0  0  0  0  0  0  0  0  0  0
    3.2258    3.9679   -2.8708 C   0  0  0  0  0  0  0  0  0  0  0  0
    3.7608    5.7936   -4.9055 S   0  0  0  0  0  0  0  0  0  0  0  0
    2.3789    6.1503   -5.1426 O   0  0  0  0  0  0  0  0  0  0  0  0
    4.6392    6.5873   -4.0755 O   0  0  0  0  0  0  0  0  0  0  0  0
    4.5260    5.5981   -6.4183 N   0  0  0  0  0  0  0  0  0  0  0  0
    4.5669    6.7211   -7.2723 C   0  0  0  0  0  0  0  0  0  0  0  0
    5.3458    7.8052   -6.8958 C   0  0  0  0  0  0  0  0  0  0  0  0
    5.2268    8.9917   -7.5946 C   0  0  0  0  0  0  0  0  0  0  0  0
    4.4291    9.0339   -8.7457 C   0  0  0  0  0  0  0  0  0  0  0  0
    3.7945    7.8933   -9.2281 C   0  0  0  0  0  0  0  0  0  0  0  0
    3.8170    6.7400   -8.4507 C   0  0  0  0  0  0  0  0  0  0  0  0
    4.1818   10.6245   -9.4530 S   0  0  0  0  0  0  0  0  0  0  0  0
    3.4678   11.3747   -8.4490 O   0  0  0  0  0  0  0  0  0  0  0  0
    5.4908   11.0356   -9.9356 O   0  0  0  0  0  0  0  0  0  0  0  0
    3.1782   10.4424  -10.7693 N   0  0  0  0  0  0  0  0  0  0  0  0
    2.9319   11.6199  -11.5073 C   0  0  0  0  0  0  0  0  0  0  0  0
    2.4027   11.5359  -12.7083 N   0  0  0  0  0  0  0  0  0  0  0  0
    2.3365   12.8129  -13.2582 C   0  0  0  0  0  0  0  0  0  0  0  0
    2.7838   13.8339  -12.4507 C   0  0  0  0  0  0  0  0  0  0  0  0
    3.2517   13.2118  -10.9490 S   0  0  0  0  0  0  0  0  0  0  0  0
    0.6653   -0.6716    0.7804 H   0  0  0  0  0  0  0  0  0  0  0  0
    0.6742   -0.4272   -0.9742 H   0  0  0  0  0  0  0  0  0  0  0  0
    0.6062    0.9728    0.1073 H   0  0  0  0  0  0  0  0  0  0  0  0
    2.9247   -0.9899   -0.0168 H   0  0  0  0  0  0  0  0  0  0  0  0
    2.9229    0.4663    0.9412 H   0  0  0  0  0  0  0  0  0  0  0  0
    5.8205    0.5244   -4.0951 H   0  0  0  0  0  0  0  0  0  0  0  0
    4.1662   -3.4121   -3.8685 H   0  0  0  0  0  0  0  0  0  0  0  0
    6.4396   -1.2283   -8.1367 H   0  0  0  0  0  0  0  0  0  0  0  0
    3.8963    1.0464   -5.2872 H   0  0  0  0  0  0  0  0  0  0  0  0
    4.4679    3.1869   -5.9795 H   0  0  0  0  0  0  0  0  0  0  0  0
    2.8666    4.7879   -2.2586 H   0  0  0  0  0  0  0  0  0  0  0  0
    4.5897    4.7062   -6.8862 H   0  0  0  0  0  0  0  0  0  0  0  0
    6.0075    7.7361   -6.0369 H   0  0  0  0  0  0  0  0  0  0  0  0
    5.7266    9.8834   -7.2196 H   0  0  0  0  0  0  0  0  0  0  0  0
    3.2468    7.8824  -10.1602 H   0  0  0  0  0  0  0  0  0  0  0  0
    3.2198    5.8869   -8.7603 H   0  0  0  0  0  0  0  0  0  0  0  0
    2.8952    9.5639  -11.1807 H   0  0  0  0  0  0  0  0  0  0  0  0
    1.9602   12.9551  -14.2641 H   0  0  0  0  0  0  0  0  0  0  0  0
    2.8590   14.8931  -12.6305 H   0  0  0  0  0  0  0  0  0  0  0  0
  1  2  1  0  0  0  0
  1 42  1  0  0  0  0
  1 43  1  0  0  0  0
  1 44  1  0  0  0  0
  2  3  1  0  0  0  0
  2 45  1  0  0  0  0
  2 46  1  0  0  0  0
  3  4  1  0  0  0  0
  3  7  2  0  0  0  0
  4  5  1  0  0  0  0
  5  6  2  0  0  0  0
  5 22  1  0  0  0  0
  6  7  1  0  0  0  0
  6 19  1  0  0  0  0
  7  8  1  0  0  0  0
  8  9  2  0  0  0  0
  8 10  1  0  0  0  0
 10 11  2  0  0  0  0
 10 16  1  0  0  0  0
 11 12  1  0  0  0  0
 11 47  1  0  0  0  0
 12 13  1  0  0  0  0
 12 14  2  0  0  0  0
 14 15  1  0  0  0  0
 14 18  1  0  0  0  0
 15 16  2  0  0  0  0
 15 17  1  0  0  0  0
 16 48  1  0  0  0  0
 18 49  1  0  0  0  0
 19 20  2  0  0  0  0
 19 50  1  0  0  0  0
 20 21  1  0  0  0  0
 20 51  1  0  0  0  0
 21 22  2  0  0  0  0
 21 23  1  0  0  0  0
 22 52  1  0  0  0  0
 23 24  2  0  0  0  0
 23 25  2  0  0  0  0
 23 26  1  0  0  0  0
 26 27  1  0  0  0  0
 26 53  1  0  0  0  0
 27 28  2  0  0  0  0
 27 32  1  0  0  0  0
 28 29  1  0  0  0  0
 28 54  1  0  0  0  0
 29 30  2  0  0  0  0
 29 55  1  0  0  0  0
 30 31  1  0  0  0  0
 30 33  1  0  0  0  0
 31 32  2  0  0  0  0
 31 56  1  0  0  0  0
 32 57  1  0  0  0  0
 33 34  2  0  0  0  0
 33 35  2  0  0  0  0
 33 36  1  0  0  0  0
 36 37  1  0  0  0  0
 36 58  1  0  0  0  0
 37 38  2  0  0  0  0
 37 41  1  0  0  0  0
 38 39  1  0  0  0  0
 39 40  2  0  0  0  0
 39 59  1  0  0  0  0
 40 41  1  0  0  0  0
 40 60  1  0  0  0  0
M  END
$$$$
