FRP
 OpenBabel04121316123D

 82 84  0  0  1  0  0  0  0  0999 V2000
   -0.4153    4.7126    1.2503 C   0  0  0  0  0  0  0  0  0  0  0  0
   -0.1211    6.1287    1.6087 C   0  0  0  0  0  0  0  0  0  0  0  0
   -1.0948    7.2371    1.2411 C   0  0  0  0  0  0  0  0  0  0  0  0
   -0.5582    8.6311    1.3897 N   0  0  0  0  0  0  0  0  0  0  0  0
    0.7148    9.0203    1.9002 C   0  0  0  0  0  0  0  0  0  0  0  0
    1.1857   10.1574    1.9284 O   0  0  0  0  0  0  0  0  0  0  0  0
    1.7299    8.0758    2.3281 C   0  0  0  0  0  0  0  0  0  0  0  0
    1.9303    7.4987    3.5425 C   0  0  0  0  0  0  0  0  0  0  0  0
    2.8587    6.4347    3.6778 C   0  0  0  0  0  0  0  0  0  0  0  0
    3.7098    6.0535    2.6504 C   0  0  0  0  0  0  0  0  0  0  0  0
    3.4795    6.6799    1.4703 C   0  0  0  0  0  0  0  0  0  0  0  0
    2.4956    7.6094    1.3351 C   0  0  0  0  0  0  0  0  0  0  0  0
    4.2822    6.4900    0.3117 C   0  0  0  0  0  0  0  0  0  0  0  0
    5.1710    5.6854    0.3612 O   0  0  0  0  0  0  0  0  0  0  0  0
    3.9981    7.3888   -0.7064 N   0  0  0  0  0  0  0  0  0  0  0  0
    2.8308    8.0988   -1.4919 C   0  0  2  0  0  0  0  0  0  0  0  0
    2.5566    8.9347   -0.8570 H   0  0  0  0  0  0  0  0  0  0  0  0
    1.5995    6.9281   -1.7466 C   0  0  2  0  0  0  0  0  0  0  0  0
    1.9157    5.8724   -1.6628 H   0  0  0  0  0  0  0  0  0  0  0  0
    0.8590    7.1413   -3.0162 C   0  0  0  0  0  0  0  0  0  0  0  0
    1.8092    6.8976   -4.1387 C   0  0  2  0  0  0  0  0  0  0  0  0
    1.5774    6.0804   -4.8085 H   0  0  0  0  0  0  0  0  0  0  0  0
    3.1838    6.3025   -3.3325 C   0  0  0  0  0  0  0  0  0  0  0  0
    3.9922    7.1319   -2.8570 O   0  0  0  0  0  0  0  0  0  0  0  0
    3.7950    5.2918   -2.6693 N   0  0  0  0  0  0  0  0  0  0  0  0
    5.4121    5.4893   -2.2632 C   0  0  0  0  0  0  0  0  0  0  0  0
    6.2540    6.8354   -2.1600 C   0  0  0  0  0  0  0  0  0  0  0  0
    7.6145    6.9243   -2.0859 C   0  0  0  0  0  0  0  0  0  0  0  0
    8.1823    5.6930   -1.9659 C   0  0  0  0  0  0  0  0  0  0  0  0
    7.4402    4.4625   -1.9926 C   0  0  0  0  0  0  0  0  0  0  0  0
    6.0798    4.3379   -2.2383 C   0  0  0  0  0  0  0  0  0  0  0  0
    9.5065    5.6418   -1.8054 F   0  0  0  0  0  0  0  0  0  0  0  0
    1.3503    8.2395   -5.0156 C   0  0  0  0  0  0  0  0  0  0  0  0
    0.5206    6.8687   -0.8654 N   0  0  0  0  0  0  0  0  0  0  0  0
    3.4869    8.9875   -3.0484 C   0  0  0  0  0  0  0  0  0  0  0  0
    4.3373    8.2659   -4.5959 C   0  0  0  0  0  0  0  0  0  0  0  0
    5.1287    6.8941   -4.7510 C   0  0  0  0  0  0  0  0  0  0  0  0
    5.4475    5.9371   -5.7028 C   0  0  0  0  0  0  0  0  0  0  0  0
    4.7627    6.2397   -6.8043 C   0  0  0  0  0  0  0  0  0  0  0  0
    3.9850    7.4706   -6.8509 C   0  0  0  0  0  0  0  0  0  0  0  0
    3.9073    8.5583   -5.8490 C   0  0  0  0  0  0  0  0  0  0  0  0
   -1.5450    9.6856    1.0717 C   0  0  0  0  0  0  0  0  0  0  0  0
   -1.0421   11.1016    1.2989 C   0  0  0  0  0  0  0  0  0  0  0  0
   -2.0501   12.1823    1.0566 C   0  0  0  0  0  0  0  0  0  0  0  0
    0.5071    4.1414    1.4339 H   0  0  0  0  0  0  0  0  0  0  0  0
   -0.6620    4.5894    0.1944 H   0  0  0  0  0  0  0  0  0  0  0  0
   -1.2155    4.3666    1.8886 H   0  0  0  0  0  0  0  0  0  0  0  0
    0.8161    6.2389    1.0985 H   0  0  0  0  0  0  0  0  0  0  0  0
    0.0910    6.1968    2.6668 H   0  0  0  0  0  0  0  0  0  0  0  0
   -1.9881    7.1384    1.8539 H   0  0  0  0  0  0  0  0  0  0  0  0
   -1.4816    7.1422    0.2108 H   0  0  0  0  0  0  0  0  0  0  0  0
    1.2560    7.7979    4.3215 H   0  0  0  0  0  0  0  0  0  0  0  0
    2.8913    5.8687    4.5911 H   0  0  0  0  0  0  0  0  0  0  0  0
    4.4998    5.3116    2.7271 H   0  0  0  0  0  0  0  0  0  0  0  0
    2.0844    7.8083    0.3900 H   0  0  0  0  0  0  0  0  0  0  0  0
    4.4365    6.9771   -1.4747 H   0  0  0  0  0  0  0  0  0  0  0  0
    0.4941    8.1794   -2.9314 H   0  0  0  0  0  0  0  0  0  0  0  0
   -0.0174    6.5079   -3.1875 H   0  0  0  0  0  0  0  0  0  0  0  0
    3.3979    4.3761   -2.6803 H   0  0  0  0  0  0  0  0  0  0  0  0
    5.8399    7.8646   -2.1135 H   0  0  0  0  0  0  0  0  0  0  0  0
    8.1371    7.8830   -2.0771 H   0  0  0  0  0  0  0  0  0  0  0  0
    7.9584    3.5499   -1.7650 H   0  0  0  0  0  0  0  0  0  0  0  0
    5.5117    3.4424   -2.4100 H   0  0  0  0  0  0  0  0  0  0  0  0
    1.6579    8.2504   -6.0575 H   0  0  0  0  0  0  0  0  0  0  0  0
    1.5903    9.2347   -4.6107 H   0  0  0  0  0  0  0  0  0  0  0  0
    0.2572    8.3337   -5.1344 H   0  0  0  0  0  0  0  0  0  0  0  0
   -0.1404    6.1155   -1.0305 H   0  0  0  0  0  0  0  0  0  0  0  0
    0.1870    7.7765   -0.5872 H   0  0  0  0  0  0  0  0  0  0  0  0
    4.2569    9.6071   -2.5997 H   0  0  0  0  0  0  0  0  0  0  0  0
    2.5755    9.5698   -3.2174 H   0  0  0  0  0  0  0  0  0  0  0  0
    5.0304    6.0769   -4.0737 H   0  0  0  0  0  0  0  0  0  0  0  0
    5.8327    4.9348   -5.3892 H   0  0  0  0  0  0  0  0  0  0  0  0
    4.8360    5.5132   -7.5997 H   0  0  0  0  0  0  0  0  0  0  0  0
    3.2894    7.5042   -7.6845 H   0  0  0  0  0  0  0  0  0  0  0  0
    3.3181    9.4565   -5.9976 H   0  0  0  0  0  0  0  0  0  0  0  0
   -2.4183    9.5009    1.7098 H   0  0  0  0  0  0  0  0  0  0  0  0
   -1.8800    9.5693    0.0307 H   0  0  0  0  0  0  0  0  0  0  0  0
   -0.1957   11.2906    0.6269 H   0  0  0  0  0  0  0  0  0  0  0  0
   -0.7203   11.1959    2.3436 H   0  0  0  0  0  0  0  0  0  0  0  0
   -2.3809   12.1618    0.0176 H   0  0  0  0  0  0  0  0  0  0  0  0
   -1.5736   13.1471    1.2602 H   0  0  0  0  0  0  0  0  0  0  0  0
   -2.9013   12.0595    1.7278 H   0  0  0  0  0  0  0  0  0  0  0  0
  1  2  1  0  0  0  0
  1 45  1  0  0  0  0
  1 46  1  0  0  0  0
  1 47  1  0  0  0  0
  2  3  1  0  0  0  0
  2 48  1  0  0  0  0
  2 49  1  0  0  0  0
  3  4  1  0  0  0  0
  3 50  1  0  0  0  0
  3 51  1  0  0  0  0
  4  5  1  0  0  0  0
  4 42  1  0  0  0  0
  5  6  2  0  0  0  0
  5  7  1  0  0  0  0
  7  8  2  0  0  0  0
  7 12  1  0  0  0  0
  8  9  1  0  0  0  0
  8 52  1  0  0  0  0
  9 10  2  0  0  0  0
  9 53  1  0  0  0  0
 10 11  1  0  0  0  0
 10 54  1  0  0  0  0
 11 12  2  0  0  0  0
 11 13  1  0  0  0  0
 12 55  1  0  0  0  0
 13 14  2  0  0  0  0
 13 15  1  0  0  0  0
 15 56  1  0  0  0  0
 16 35  1  0  0  0  0
 16 17  1  1  0  0  0
 16 15  1  0  0  0  0
 18 20  1  0  0  0  0
 18 34  1  0  0  0  0
 18 19  1  6  0  0  0
 18 16  1  0  0  0  0
 20 57  1  0  0  0  0
 20 58  1  0  0  0  0
 21 23  1  0  0  0  0
 21 33  1  0  0  0  0
 21 22  1  6  0  0  0
 21 20  1  0  0  0  0
 23 24  2  0  0  0  0
 23 25  1  0  0  0  0
 25 26  1  0  0  0  0
 25 59  1  0  0  0  0
 26 27  2  0  0  0  0
 26 31  1  0  0  0  0
 27 28  1  0  0  0  0
 27 60  1  0  0  0  0
 28 29  2  0  0  0  0
 28 61  1  0  0  0  0
 29 30  1  0  0  0  0
 29 32  1  0  0  0  0
 30 31  2  0  0  0  0
 30 62  1  0  0  0  0
 31 63  1  0  0  0  0
 33 64  1  0  0  0  0
 33 65  1  0  0  0  0
 33 66  1  0  0  0  0
 34 67  1  0  0  0  0
 34 68  1  0  0  0  0
 35 36  1  0  0  0  0
 35 69  1  0  0  0  0
 35 70  1  0  0  0  0
 36 37  2  0  0  0  0
 36 41  1  0  0  0  0
 37 38  1  0  0  0  0
 37 71  1  0  0  0  0
 38 39  2  0  0  0  0
 38 72  1  0  0  0  0
 39 40  1  0  0  0  0
 39 73  1  0  0  0  0
 40 41  2  0  0  0  0
 40 74  1  0  0  0  0
 41 75  1  0  0  0  0
 42 43  1  0  0  0  0
 42 76  1  0  0  0  0
 42 77  1  0  0  0  0
 43 44  1  0  0  0  0
 43 78  1  0  0  0  0
 43 79  1  0  0  0  0
 44 80  1  0  0  0  0
 44 81  1  0  0  0  0
 44 82  1  0  0  0  0
M  END
$$$$
