FRS
 OpenBabel04121316123D

 51 54  0  0  0  0  0  0  0  0999 V2000
    1.1624   -0.3749    0.0150 O   0  0  0  0  0  0  0  0  0  0  0  0
    2.3780   -0.1285   -0.0234 C   0  0  0  0  0  0  0  0  0  0  0  0
    3.0857    0.9359   -0.5773 N   0  0  0  0  0  0  0  0  0  0  0  0
    2.4772    2.0009   -0.9431 C   0  0  0  0  0  0  0  0  0  0  0  0
    2.8534    3.2214   -1.4690 N   0  0  0  0  0  0  0  0  0  0  0  0
    3.8149    3.4876   -1.6310 H   0  0  0  0  0  0  0  0  0  0  0  0
    1.8013    4.0908   -1.7640 C   0  0  0  0  0  0  0  0  0  0  0  0
    0.5948    3.5784   -1.4747 C   0  0  0  0  0  0  0  0  0  0  0  0
    0.7887    2.0395   -0.7815 S   0  0  0  0  0  0  0  0  0  0  0  0
   -0.8321    3.9769   -1.5735 C   0  0  0  0  0  0  0  0  0  0  0  0
   -1.7637    2.8270   -1.0523 C   0  0  0  0  0  0  0  0  0  0  0  0
   -3.1023    3.2634   -0.9817 N   0  0  0  0  0  0  0  0  0  0  0  0
   -4.0659    2.2946   -0.7016 C   0  0  0  0  0  0  0  0  0  0  0  0
   -3.8821    0.9756   -0.6791 N   0  0  0  0  0  0  0  0  0  0  0  0
   -4.9724    0.2520   -0.3543 C   0  0  0  0  0  0  0  0  0  0  0  0
   -6.2264    0.7174   -0.1440 N   0  0  0  0  0  0  0  0  0  0  0  0
   -6.3576    2.0530   -0.1443 C   0  0  0  0  0  0  0  0  0  0  0  0
   -5.2499    2.8375   -0.3264 C   0  0  0  0  0  0  0  0  0  0  0  0
   -7.6210    2.6582    0.0148 N   0  0  0  0  0  0  0  0  0  0  0  0
   -7.9182    3.9774   -0.0005 C   0  0  0  0  0  0  0  0  0  0  0  0
   -9.1275    4.5482   -0.0194 N   0  0  0  0  0  0  0  0  0  0  0  0
   -8.8208    5.8646   -0.0340 N   0  0  0  0  0  0  0  0  0  0  0  0
   -9.5570    6.5573   -0.0486 H   0  0  0  0  0  0  0  0  0  0  0  0
   -7.4888    6.0705   -0.0197 C   0  0  0  0  0  0  0  0  0  0  0  0
   -6.9099    4.9086    0.0092 N   0  0  0  0  0  0  0  0  0  0  0  0
    3.1089   -1.1241    0.5094 N   0  0  0  0  0  0  0  0  0  0  0  0
    4.4633   -1.1140    0.5217 C   0  0  0  0  0  0  0  0  0  0  0  0
    5.3122   -0.0051    0.5219 C   0  0  0  0  0  0  0  0  0  0  0  0
    6.5779   -0.5036    0.4747 C   0  0  0  0  0  0  0  0  0  0  0  0
    6.5635   -1.8726    0.4602 O   0  0  0  0  0  0  0  0  0  0  0  0
    5.2362   -2.2415    0.4998 C   0  0  0  0  0  0  0  0  0  0  0  0
    4.8218   -3.6595    0.4483 C   0  0  0  0  0  0  0  0  0  0  0  0
    5.2572   -4.3030   -0.6617 F   0  0  0  0  0  0  0  0  0  0  0  0
    5.2367   -4.3606    1.5300 F   0  0  0  0  0  0  0  0  0  0  0  0
    3.4562   -3.7712    0.4337 F   0  0  0  0  0  0  0  0  0  0  0  0
    7.8389    0.2420    0.4595 C   0  0  0  0  0  0  0  0  0  0  0  0
    2.0045    5.0661   -2.1888 H   0  0  0  0  0  0  0  0  0  0  0  0
   -1.0789    4.1847   -2.6181 H   0  0  0  0  0  0  0  0  0  0  0  0
   -0.9927    4.8732   -0.9691 H   0  0  0  0  0  0  0  0  0  0  0  0
   -1.5090    2.5582   -0.0136 H   0  0  0  0  0  0  0  0  0  0  0  0
   -1.6696    1.9275   -1.6826 H   0  0  0  0  0  0  0  0  0  0  0  0
   -3.3868    4.0120   -1.5958 H   0  0  0  0  0  0  0  0  0  0  0  0
   -4.8187   -0.8163   -0.2295 H   0  0  0  0  0  0  0  0  0  0  0  0
   -5.2220    3.9011   -0.2006 H   0  0  0  0  0  0  0  0  0  0  0  0
   -8.3626    1.9748    0.0500 H   0  0  0  0  0  0  0  0  0  0  0  0
   -6.9839    7.0263   -0.0249 H   0  0  0  0  0  0  0  0  0  0  0  0
    2.5632   -1.9614    0.6765 H   0  0  0  0  0  0  0  0  0  0  0  0
    5.0638    1.0471    0.5449 H   0  0  0  0  0  0  0  0  0  0  0  0
    7.6132    1.3187    0.4542 H   0  0  0  0  0  0  0  0  0  0  0  0
    8.4149    0.0220   -0.4387 H   0  0  0  0  0  0  0  0  0  0  0  0
    8.4120    0.0313    1.3619 H   0  0  0  0  0  0  0  0  0  0  0  0
  1  2  2  0  0  0  0
  2  3  1  0  0  0  0
  2 26  1  0  0  0  0
  3  4  2  0  0  0  0
  4  5  1  0  0  0  0
  4  9  1  0  0  0  0
  5  6  1  0  0  0  0
  5  7  1  0  0  0  0
  7  8  2  0  0  0  0
  7 37  1  0  0  0  0
  8  9  1  0  0  0  0
  8 10  1  0  0  0  0
 10 11  1  0  0  0  0
 10 38  1  0  0  0  0
 10 39  1  0  0  0  0
 11 12  1  0  0  0  0
 11 40  1  0  0  0  0
 11 41  1  0  0  0  0
 12 13  1  0  0  0  0
 12 42  1  0  0  0  0
 13 14  2  0  0  0  0
 13 18  1  0  0  0  0
 14 15  1  0  0  0  0
 15 16  2  0  0  0  0
 15 43  1  0  0  0  0
 16 17  1  0  0  0  0
 17 18  2  0  0  0  0
 17 19  1  0  0  0  0
 18 44  1  0  0  0  0
 19 20  1  0  0  0  0
 19 45  1  0  0  0  0
 20 21  2  0  0  0  0
 20 25  1  0  0  0  0
 21 22  1  0  0  0  0
 22 23  1  0  0  0  0
 22 24  1  0  0  0  0
 24 25  2  0  0  0  0
 24 46  1  0  0  0  0
 26 27  1  0  0  0  0
 26 47  1  0  0  0  0
 27 28  1  0  0  0  0
 27 31  2  0  0  0  0
 28 29  2  0  0  0  0
 28 48  1  0  0  0  0
 29 30  1  0  0  0  0
 29 36  1  0  0  0  0
 30 31  1  0  0  0  0
 31 32  1  0  0  0  0
 32 33  1  0  0  0  0
 32 34  1  0  0  0  0
 32 35  1  0  0  0  0
 36 49  1  0  0  0  0
 36 50  1  0  0  0  0
 36 51  1  0  0  0  0
M  END
$$$$
