FRW
 OpenBabel04121316123D

 66 67  0  0  1  0  0  0  0  0999 V2000
    3.9038   -4.5890    0.2576 C   0  0  0  0  0  0  0  0  0  0  0  0
    4.4388   -3.5513   -0.7038 C   0  0  0  0  0  0  0  0  0  0  0  0
    4.8798   -3.6434   -2.1804 C   0  0  1  0  0  0  0  0  0  0  0  0
    4.0143   -3.8303   -2.8157 H   0  0  0  0  0  0  0  0  0  0  0  0
    5.7672   -2.3565   -2.9022 C   0  0  0  0  0  0  0  0  0  0  0  0
    6.9739   -2.4929   -3.1540 O   0  0  0  0  0  0  0  0  0  0  0  0
    5.1940   -1.0576   -3.0082 N   0  0  0  0  0  0  0  0  0  0  0  0
    3.7792   -0.7691   -3.1537 C   0  0  0  0  0  0  0  0  0  0  0  0
    3.7053    0.5054   -3.9487 C   0  0  0  0  0  0  0  0  0  0  0  0
    5.0376    1.2297   -3.7180 C   0  0  0  0  0  0  0  0  0  0  0  0
    6.0201    0.2082   -3.1145 C   0  0  1  0  0  0  0  0  0  0  0  0
    6.8519    0.0228   -3.8087 H   0  0  0  0  0  0  0  0  0  0  0  0
    6.7176    0.8943   -1.8206 C   0  0  0  0  0  0  0  0  0  0  0  0
    7.9377    1.0872   -1.7749 O   0  0  0  0  0  0  0  0  0  0  0  0
    6.0146    1.3690   -0.7172 N   0  0  0  0  0  0  0  0  0  0  0  0
    4.6976    0.9534   -0.3431 C   0  0  2  0  0  0  0  0  0  0  0  0
    4.2397    0.8058   -1.3112 H   0  0  0  0  0  0  0  0  0  0  0  0
    3.6094    1.8239    0.2702 C   0  0  0  0  0  0  0  0  0  0  0  0
    2.6949    1.3535    0.9589 O   0  0  0  0  0  0  0  0  0  0  0  0
    3.5417    3.1841   -0.3232 C   0  0  0  0  0  0  0  0  0  0  0  0
    4.7573    3.7801   -0.3291 F   0  0  0  0  0  0  0  0  0  0  0  0
    3.1188    3.1266   -1.6160 F   0  0  0  0  0  0  0  0  0  0  0  0
    2.6914    3.9990    0.3415 F   0  0  0  0  0  0  0  0  0  0  0  0
    4.7812   -0.3369    0.4133 C   0  0  0  0  0  0  0  0  0  0  0  0
    5.8920   -1.2395   -0.0845 C   0  0  0  0  0  0  0  0  0  0  0  0
    4.9326   -0.4853    1.8917 C   0  0  0  0  0  0  0  0  0  0  0  0
    5.7426   -4.7957   -2.1643 N   0  0  0  0  0  0  0  0  0  0  0  0
    6.0322   -5.3687   -3.3590 C   0  0  0  0  0  0  0  0  0  0  0  0
    5.5970   -4.9828   -4.4165 O   0  0  0  0  0  0  0  0  0  0  0  0
    6.8770   -6.5569   -3.2594 C   0  0  0  0  0  0  0  0  0  0  0  0
    7.9781   -6.6517   -2.4087 C   0  0  0  0  0  0  0  0  0  0  0  0
    8.8887   -7.6742   -2.6443 C   0  0  0  0  0  0  0  0  0  0  0  0
    8.6130   -8.6598   -3.6110 C   0  0  0  0  0  0  0  0  0  0  0  0
    7.3854   -8.6522   -4.2849 C   0  0  0  0  0  0  0  0  0  0  0  0
    6.5466   -7.5630   -4.1554 C   0  0  0  0  0  0  0  0  0  0  0  0
    9.7014   -9.6348   -3.9048 C   0  0  0  0  0  0  0  0  0  0  0  0
   10.7747   -9.5853   -3.3530 O   0  0  0  0  0  0  0  0  0  0  0  0
    9.4182  -10.5565   -4.8534 O   0  0  0  0  0  0  0  0  0  0  0  0
    3.3334   -2.5489   -0.5977 C   0  0  0  0  0  0  0  0  0  0  0  0
    4.5134   -5.4797    0.3445 H   0  0  0  0  0  0  0  0  0  0  0  0
    2.8615   -4.8026    0.0257 H   0  0  0  0  0  0  0  0  0  0  0  0
    3.9165   -4.1153    1.2646 H   0  0  0  0  0  0  0  0  0  0  0  0
    5.4005   -3.4257   -0.2084 H   0  0  0  0  0  0  0  0  0  0  0  0
    3.3189   -0.4669   -2.2187 H   0  0  0  0  0  0  0  0  0  0  0  0
    3.1967   -1.6303   -3.4819 H   0  0  0  0  0  0  0  0  0  0  0  0
    2.8639    1.1220   -3.6035 H   0  0  0  0  0  0  0  0  0  0  0  0
    3.5516    0.2541   -4.9958 H   0  0  0  0  0  0  0  0  0  0  0  0
    4.9079    2.0975   -3.0597 H   0  0  0  0  0  0  0  0  0  0  0  0
    5.4069    1.6310   -4.6647 H   0  0  0  0  0  0  0  0  0  0  0  0
    6.6371    1.5193    0.0733 H   0  0  0  0  0  0  0  0  0  0  0  0
    3.7411   -0.6284    0.3081 H   0  0  0  0  0  0  0  0  0  0  0  0
    6.8930   -0.8871   -0.3025 H   0  0  0  0  0  0  0  0  0  0  0  0
    5.5798   -1.6036   -1.0155 H   0  0  0  0  0  0  0  0  0  0  0  0
    6.0542   -2.0599    0.6006 H   0  0  0  0  0  0  0  0  0  0  0  0
    5.9701   -0.2808    2.1398 H   0  0  0  0  0  0  0  0  0  0  0  0
    4.7150   -1.5429    2.1323 H   0  0  0  0  0  0  0  0  0  0  0  0
    4.2282    0.1118    2.4530 H   0  0  0  0  0  0  0  0  0  0  0  0
    6.1315   -5.1520   -1.3014 H   0  0  0  0  0  0  0  0  0  0  0  0
    8.1889   -5.9104   -1.6412 H   0  0  0  0  0  0  0  0  0  0  0  0
    9.8369   -7.6720   -2.1072 H   0  0  0  0  0  0  0  0  0  0  0  0
    7.0536   -9.4291   -4.9581 H   0  0  0  0  0  0  0  0  0  0  0  0
    5.6520   -7.4640   -4.7675 H   0  0  0  0  0  0  0  0  0  0  0  0
    8.5588  -10.5043   -5.2961 H   0  0  0  0  0  0  0  0  0  0  0  0
    2.4070   -2.7744   -1.1138 H   0  0  0  0  0  0  0  0  0  0  0  0
    3.6704   -1.6850   -1.0965 H   0  0  0  0  0  0  0  0  0  0  0  0
    3.1075   -2.3229    0.4485 H   0  0  0  0  0  0  0  0  0  0  0  0
  1  2  1  0  0  0  0
  1 40  1  0  0  0  0
  1 41  1  0  0  0  0
  1 42  1  0  0  0  0
  2  3  1  0  0  0  0
  2 39  1  0  0  0  0
  2 43  1  0  0  0  0
  3  4  1  6  0  0  0
  3  5  1  0  0  0  0
  3 27  1  0  0  0  0
  5  6  2  0  0  0  0
  5  7  1  0  0  0  0
  7  8  1  0  0  0  0
  7 11  1  0  0  0  0
  8  9  1  0  0  0  0
  8 44  1  0  0  0  0
  8 45  1  0  0  0  0
  9 10  1  0  0  0  0
  9 46  1  0  0  0  0
  9 47  1  0  0  0  0
 10 11  1  0  0  0  0
 10 48  1  0  0  0  0
 10 49  1  0  0  0  0
 11 13  1  0  0  0  0
 11 12  1  6  0  0  0
 13 14  2  0  0  0  0
 13 15  1  0  0  0  0
 15 50  1  0  0  0  0
 16 18  1  0  0  0  0
 16 24  1  0  0  0  0
 16 17  1  6  0  0  0
 16 15  1  0  0  0  0
 18 19  2  0  0  0  0
 18 20  1  0  0  0  0
 20 21  1  0  0  0  0
 20 22  1  0  0  0  0
 20 23  1  0  0  0  0
 24 25  1  0  0  0  0
 24 26  1  0  0  0  0
 24 51  1  0  0  0  0
 25 52  1  0  0  0  0
 25 53  1  0  0  0  0
 25 54  1  0  0  0  0
 26 55  1  0  0  0  0
 26 56  1  0  0  0  0
 26 57  1  0  0  0  0
 27 28  1  0  0  0  0
 27 58  1  0  0  0  0
 28 29  2  0  0  0  0
 28 30  1  0  0  0  0
 30 31  2  0  0  0  0
 30 35  1  0  0  0  0
 31 32  1  0  0  0  0
 31 59  1  0  0  0  0
 32 33  2  0  0  0  0
 32 60  1  0  0  0  0
 33 34  1  0  0  0  0
 33 36  1  0  0  0  0
 34 35  2  0  0  0  0
 34 61  1  0  0  0  0
 35 62  1  0  0  0  0
 36 37  2  0  0  0  0
 36 38  1  0  0  0  0
 38 63  1  0  0  0  0
 39 64  1  0  0  0  0
 39 65  1  0  0  0  0
 39 66  1  0  0  0  0
M  END
$$$$
