FSE
 OpenBabel04121316123D

 31 33  0  0  0  0  0  0  0  0999 V2000
    0.9849   -0.0246   -0.0831 O   0  0  0  0  0  0  0  0  0  0  0  0
    2.3414    0.0489    0.0304 C   0  0  0  0  0  0  0  0  0  0  0  0
    2.9780    1.2853   -0.0330 C   0  0  0  0  0  0  0  0  0  0  0  0
    4.3298    1.3531    0.2484 C   0  0  0  0  0  0  0  0  0  0  0  0
    5.0609    0.1703    0.3394 C   0  0  0  0  0  0  0  0  0  0  0  0
    4.4510   -1.0780    0.2955 C   0  0  0  0  0  0  0  0  0  0  0  0
    3.0595   -1.1353    0.2229 C   0  0  0  0  0  0  0  0  0  0  0  0
    5.1753   -2.2471    0.2975 O   0  0  0  0  0  0  0  0  0  0  0  0
    6.5764   -2.1714    0.2740 C   0  0  0  0  0  0  0  0  0  0  0  0
    7.2588   -1.0018    0.3519 C   0  0  0  0  0  0  0  0  0  0  0  0
    6.5074    0.2628    0.3930 C   0  0  0  0  0  0  0  0  0  0  0  0
    7.0711    1.3569    0.4439 O   0  0  0  0  0  0  0  0  0  0  0  0
    8.6305   -0.8497    0.3993 O   0  0  0  0  0  0  0  0  0  0  0  0
    7.2554   -3.4954    0.1499 C   0  0  0  0  0  0  0  0  0  0  0  0
    8.5815   -3.5832   -0.3254 C   0  0  0  0  0  0  0  0  0  0  0  0
    9.2993   -4.7708   -0.3343 C   0  0  0  0  0  0  0  0  0  0  0  0
    8.6048   -5.9441   -0.1448 C   0  0  0  0  0  0  0  0  0  0  0  0
    7.2615   -5.9101    0.2216 C   0  0  0  0  0  0  0  0  0  0  0  0
    6.6067   -4.7009    0.4556 C   0  0  0  0  0  0  0  0  0  0  0  0
    6.5582   -7.0773    0.3130 O   0  0  0  0  0  0  0  0  0  0  0  0
    9.2021   -7.1484   -0.3781 O   0  0  0  0  0  0  0  0  0  0  0  0
    0.6313    0.8819   -0.0976 H   0  0  0  0  0  0  0  0  0  0  0  0
    2.4556    2.1963   -0.3042 H   0  0  0  0  0  0  0  0  0  0  0  0
    4.8320    2.3122    0.3516 H   0  0  0  0  0  0  0  0  0  0  0  0
    2.5298   -2.0817    0.2839 H   0  0  0  0  0  0  0  0  0  0  0  0
    9.0067   -1.6019    0.8794 H   0  0  0  0  0  0  0  0  0  0  0  0
    9.0991   -2.7221   -0.7385 H   0  0  0  0  0  0  0  0  0  0  0  0
   10.3616   -4.7430   -0.5502 H   0  0  0  0  0  0  0  0  0  0  0  0
    5.5864   -4.7224    0.8309 H   0  0  0  0  0  0  0  0  0  0  0  0
    7.1731   -7.7620   -0.0191 H   0  0  0  0  0  0  0  0  0  0  0  0
   10.0997   -6.9689   -0.7124 H   0  0  0  0  0  0  0  0  0  0  0  0
  1  2  1  0  0  0  0
  1 22  1  0  0  0  0
  2  3  2  0  0  0  0
  2  7  1  0  0  0  0
  3  4  1  0  0  0  0
  3 23  1  0  0  0  0
  4  5  2  0  0  0  0
  4 24  1  0  0  0  0
  5  6  1  0  0  0  0
  5 11  1  0  0  0  0
  6  7  2  0  0  0  0
  6  8  1  0  0  0  0
  7 25  1  0  0  0  0
  8  9  1  0  0  0  0
  9 10  2  0  0  0  0
  9 14  1  0  0  0  0
 10 11  1  0  0  0  0
 10 13  1  0  0  0  0
 11 12  2  0  0  0  0
 13 26  1  0  0  0  0
 14 15  2  0  0  0  0
 14 19  1  0  0  0  0
 15 16  1  0  0  0  0
 15 27  1  0  0  0  0
 16 17  2  0  0  0  0
 16 28  1  0  0  0  0
 17 18  1  0  0  0  0
 17 21  1  0  0  0  0
 18 19  2  0  0  0  0
 18 20  1  0  0  0  0
 19 29  1  0  0  0  0
 20 30  1  0  0  0  0
 21 31  1  0  0  0  0
M  END
$$$$
