FSS
 OpenBabel04121316123D

 60 63  0  0  0  0  0  0  0  0999 V2000
    1.0318    0.0617   -0.0998 C   0  0  0  0  0  0  0  0  0  0  0  0
    2.5577    0.0658    0.0530 C   0  0  0  0  0  0  0  0  0  0  0  0
    3.0694    0.7075    1.2854 N   0  0  0  0  0  0  0  0  0  0  0  0
    2.5901    0.0063    2.4766 C   0  0  0  0  0  0  0  0  0  0  0  0
    1.1956    0.1422    2.5667 O   0  0  0  0  0  0  0  0  0  0  0  0
    0.6176   -0.6496    3.4911 C   0  0  0  0  0  0  0  0  0  0  0  0
    0.8236   -2.0185    3.6730 C   0  0  0  0  0  0  0  0  0  0  0  0
    0.0520   -2.7217    4.6071 C   0  0  0  0  0  0  0  0  0  0  0  0
   -0.8721   -2.0407    5.3972 C   0  0  0  0  0  0  0  0  0  0  0  0
   -0.9746   -0.6517    5.2065 C   0  0  0  0  0  0  0  0  0  0  0  0
   -0.3004    0.0344    4.2349 C   0  0  0  0  0  0  0  0  0  0  0  0
   -1.6142   -2.7021    6.3902 N   0  0  0  0  0  0  0  0  0  0  0  0
   -2.4904   -2.1006    7.2931 C   0  0  0  0  0  0  0  0  0  0  0  0
   -3.4531   -2.8203    7.8734 N   0  0  0  0  0  0  0  0  0  0  0  0
   -4.3042   -2.1284    8.6569 C   0  0  0  0  0  0  0  0  0  0  0  0
   -4.2478   -0.7628    8.8307 C   0  0  0  0  0  0  0  0  0  0  0  0
   -3.2223   -0.1098    8.2044 C   0  0  0  0  0  0  0  0  0  0  0  0
   -2.3276   -0.7911    7.5203 N   0  0  0  0  0  0  0  0  0  0  0  0
   -3.1639    1.3004    8.2366 N   0  0  0  0  0  0  0  0  0  0  0  0
   -2.0180    2.0480    7.7460 C   0  0  0  0  0  0  0  0  0  0  0  0
   -4.2019    1.9814    8.8672 C   0  0  0  0  0  0  0  0  0  0  0  0
   -4.6977    3.0127    8.4487 O   0  0  0  0  0  0  0  0  0  0  0  0
   -4.6156    1.2829   10.0152 N   0  0  0  0  0  0  0  0  0  0  0  0
   -5.2003    0.0125    9.6587 C   0  0  0  0  0  0  0  0  0  0  0  0
   -4.4933    1.8079   11.3577 C   0  0  0  0  0  0  0  0  0  0  0  0
   -4.0608    3.1381   11.6333 C   0  0  0  0  0  0  0  0  0  0  0  0
   -3.3736    4.2799   10.5217 Cl  0  0  0  0  0  0  0  0  0  0  0  0
   -4.1478    3.6810   12.9249 C   0  0  0  0  0  0  0  0  0  0  0  0
   -4.7471    2.9777   13.9500 C   0  0  0  0  0  0  0  0  0  0  0  0
   -4.9990    1.6353   13.7638 C   0  0  0  0  0  0  0  0  0  0  0  0
   -4.7928    1.0353   12.5151 C   0  0  0  0  0  0  0  0  0  0  0  0
   -4.7370   -0.7009   12.6535 Cl  0  0  0  0  0  0  0  0  0  0  0  0
    4.5386    0.7345    1.2869 C   0  0  0  0  0  0  0  0  0  0  0  0
    5.1100    1.4498    2.5124 C   0  0  0  0  0  0  0  0  0  0  0  0
    0.7380   -0.3282   -1.0769 H   0  0  0  0  0  0  0  0  0  0  0  0
    0.6225    1.0715    0.0132 H   0  0  0  0  0  0  0  0  0  0  0  0
    0.5402   -0.6004    0.6176 H   0  0  0  0  0  0  0  0  0  0  0  0
    2.9547    0.6075   -0.8136 H   0  0  0  0  0  0  0  0  0  0  0  0
    2.9191   -0.9678   -0.0175 H   0  0  0  0  0  0  0  0  0  0  0  0
    2.9677    0.4645    3.3940 H   0  0  0  0  0  0  0  0  0  0  0  0
    2.9180   -1.0379    2.4486 H   0  0  0  0  0  0  0  0  0  0  0  0
    1.5526   -2.5609    3.0819 H   0  0  0  0  0  0  0  0  0  0  0  0
    0.1807   -3.7961    4.7004 H   0  0  0  0  0  0  0  0  0  0  0  0
   -1.6074   -0.0083    5.7879 H   0  0  0  0  0  0  0  0  0  0  0  0
   -0.4836    1.0941    4.0873 H   0  0  0  0  0  0  0  0  0  0  0  0
   -1.7427   -3.6984    6.3197 H   0  0  0  0  0  0  0  0  0  0  0  0
   -5.0559   -2.7235    9.1670 H   0  0  0  0  0  0  0  0  0  0  0  0
   -1.2178    1.4132    7.3609 H   0  0  0  0  0  0  0  0  0  0  0  0
   -1.5890    2.6074    8.5879 H   0  0  0  0  0  0  0  0  0  0  0  0
   -2.3170    2.7787    6.9886 H   0  0  0  0  0  0  0  0  0  0  0  0
   -6.1240    0.2040    9.1011 H   0  0  0  0  0  0  0  0  0  0  0  0
   -5.4926   -0.5992   10.4920 H   0  0  0  0  0  0  0  0  0  0  0  0
   -3.7595    4.6778   13.1259 H   0  0  0  0  0  0  0  0  0  0  0  0
   -4.9551    3.4537   14.9010 H   0  0  0  0  0  0  0  0  0  0  0  0
   -5.3138    1.0338   14.6136 H   0  0  0  0  0  0  0  0  0  0  0  0
    4.8905    1.2687    0.3970 H   0  0  0  0  0  0  0  0  0  0  0  0
    4.9427   -0.2845    1.2402 H   0  0  0  0  0  0  0  0  0  0  0  0
    4.7233    2.4720    2.5817 H   0  0  0  0  0  0  0  0  0  0  0  0
    6.2000    1.4871    2.4578 H   0  0  0  0  0  0  0  0  0  0  0  0
    4.8752    0.9332    3.4485 H   0  0  0  0  0  0  0  0  0  0  0  0
  1  2  1  0  0  0  0
  1 35  1  0  0  0  0
  1 36  1  0  0  0  0
  1 37  1  0  0  0  0
  2  3  1  0  0  0  0
  2 38  1  0  0  0  0
  2 39  1  0  0  0  0
  3  4  1  0  0  0  0
  3 33  1  0  0  0  0
  4  5  1  0  0  0  0
  4 40  1  0  0  0  0
  4 41  1  0  0  0  0
  5  6  1  0  0  0  0
  6  7  2  0  0  0  0
  6 11  1  0  0  0  0
  7  8  1  0  0  0  0
  7 42  1  0  0  0  0
  8  9  2  0  0  0  0
  8 43  1  0  0  0  0
  9 10  1  0  0  0  0
  9 12  1  0  0  0  0
 10 11  2  0  0  0  0
 10 44  1  0  0  0  0
 11 45  1  0  0  0  0
 12 13  1  0  0  0  0
 12 46  1  0  0  0  0
 13 14  2  0  0  0  0
 13 18  1  0  0  0  0
 14 15  1  0  0  0  0
 15 16  2  0  0  0  0
 15 47  1  0  0  0  0
 16 17  1  0  0  0  0
 16 24  1  0  0  0  0
 17 18  2  0  0  0  0
 17 19  1  0  0  0  0
 19 20  1  0  0  0  0
 19 21  1  0  0  0  0
 20 48  1  0  0  0  0
 20 49  1  0  0  0  0
 20 50  1  0  0  0  0
 21 22  2  0  0  0  0
 21 23  1  0  0  0  0
 23 24  1  0  0  0  0
 23 25  1  0  0  0  0
 24 51  1  0  0  0  0
 24 52  1  0  0  0  0
 25 26  2  0  0  0  0
 25 31  1  0  0  0  0
 26 27  1  0  0  0  0
 26 28  1  0  0  0  0
 28 29  2  0  0  0  0
 28 53  1  0  0  0  0
 29 30  1  0  0  0  0
 29 54  1  0  0  0  0
 30 31  2  0  0  0  0
 30 55  1  0  0  0  0
 31 32  1  0  0  0  0
 33 34  1  0  0  0  0
 33 56  1  0  0  0  0
 33 57  1  0  0  0  0
 34 58  1  0  0  0  0
 34 59  1  0  0  0  0
 34 60  1  0  0  0  0
M  END
$$$$
