FU5
 OpenBabel04121316123D

 38 39  0  0  0  0  0  0  0  0999 V2000
    0.7089   -0.0675    0.0595 C   0  0  0  0  0  0  0  0  0  0  0  0
    2.1917   -0.0648    0.0994 C   0  0  0  0  0  0  0  0  0  0  0  0
    2.7815    1.1296   -0.0775 N   0  0  0  0  0  0  0  0  0  0  0  0
    3.9952    1.0545   -0.5336 C   0  0  0  0  0  0  0  0  0  0  0  0
    4.6460    2.2270   -0.8757 N   0  0  0  0  0  0  0  0  0  0  0  0
    4.7010   -0.0674   -0.6835 N   0  0  0  0  0  0  0  0  0  0  0  0
    4.2098   -1.2294   -0.2169 C   0  0  0  0  0  0  0  0  0  0  0  0
    2.8836   -1.2597    0.1200 C   0  0  0  0  0  0  0  0  0  0  0  0
    5.1556   -2.3917   -0.1163 C   0  0  0  0  0  0  0  0  0  0  0  0
    6.5197   -2.3517    0.3541 C   0  0  0  0  0  0  0  0  0  0  0  0
    7.3253   -1.3027    0.8153 O   0  0  0  0  0  0  0  0  0  0  0  0
    6.7405   -0.0146    0.8065 C   0  0  0  0  0  0  0  0  0  0  0  0
    7.5302    1.1840    1.3203 C   0  0  0  0  0  0  0  0  0  0  0  0
    6.6815    2.4723    1.4122 C   0  0  0  0  0  0  0  0  0  0  0  0
    7.4860    3.6747    1.8086 C   0  0  0  0  0  0  0  0  0  0  0  0
    8.0108    3.5457    3.0352 F   0  0  0  0  0  0  0  0  0  0  0  0
    8.4847    3.8580    0.9164 F   0  0  0  0  0  0  0  0  0  0  0  0
    6.7118    4.7831    1.7812 F   0  0  0  0  0  0  0  0  0  0  0  0
    7.2487   -3.5557    0.4906 C   0  0  0  0  0  0  0  0  0  0  0  0
    6.6320   -4.7961    0.3885 C   0  0  0  0  0  0  0  0  0  0  0  0
    5.3499   -4.8652   -0.1180 C   0  0  0  0  0  0  0  0  0  0  0  0
    4.6625   -3.6920   -0.4479 C   0  0  0  0  0  0  0  0  0  0  0  0
    3.2043   -3.9732   -1.3636 Cl  0  0  0  0  0  0  0  0  0  0  0  0
    0.3290    0.9576    0.0299 H   0  0  0  0  0  0  0  0  0  0  0  0
    0.3174   -0.5891    0.9315 H   0  0  0  0  0  0  0  0  0  0  0  0
    0.3987   -0.5721   -0.8626 H   0  0  0  0  0  0  0  0  0  0  0  0
    4.3857    2.9744   -0.2452 H   0  0  0  0  0  0  0  0  0  0  0  0
    5.6213    1.9939   -0.9761 H   0  0  0  0  0  0  0  0  0  0  0  0
    2.3427   -2.1768    0.3238 H   0  0  0  0  0  0  0  0  0  0  0  0
    5.8302   -0.0699    1.4095 H   0  0  0  0  0  0  0  0  0  0  0  0
    6.6639    0.2093   -0.2532 H   0  0  0  0  0  0  0  0  0  0  0  0
    8.3462    1.3610    0.6113 H   0  0  0  0  0  0  0  0  0  0  0  0
    7.9626    0.9557    2.2923 H   0  0  0  0  0  0  0  0  0  0  0  0
    5.7863    2.3418    2.0359 H   0  0  0  0  0  0  0  0  0  0  0  0
    6.3480    2.7913    0.4371 H   0  0  0  0  0  0  0  0  0  0  0  0
    8.3132   -3.5215    0.7209 H   0  0  0  0  0  0  0  0  0  0  0  0
    7.1570   -5.7020    0.6777 H   0  0  0  0  0  0  0  0  0  0  0  0
    4.8931   -5.8368   -0.2931 H   0  0  0  0  0  0  0  0  0  0  0  0
  1  2  1  0  0  0  0
  1 24  1  0  0  0  0
  1 25  1  0  0  0  0
  1 26  1  0  0  0  0
  2  3  2  0  0  0  0
  2  8  1  0  0  0  0
  3  4  1  0  0  0  0
  4  5  1  0  0  0  0
  4  6  2  0  0  0  0
  5 27  1  0  0  0  0
  5 28  1  0  0  0  0
  6  7  1  0  0  0  0
  7  8  2  0  0  0  0
  7  9  1  0  0  0  0
  8 29  1  0  0  0  0
  9 10  2  0  0  0  0
  9 22  1  0  0  0  0
 10 11  1  0  0  0  0
 10 19  1  0  0  0  0
 11 12  1  0  0  0  0
 12 13  1  0  0  0  0
 12 30  1  0  0  0  0
 12 31  1  0  0  0  0
 13 14  1  0  0  0  0
 13 32  1  0  0  0  0
 13 33  1  0  0  0  0
 14 15  1  0  0  0  0
 14 34  1  0  0  0  0
 14 35  1  0  0  0  0
 15 16  1  0  0  0  0
 15 17  1  0  0  0  0
 15 18  1  0  0  0  0
 19 20  2  0  0  0  0
 19 36  1  0  0  0  0
 20 21  1  0  0  0  0
 20 37  1  0  0  0  0
 21 22  2  0  0  0  0
 21 38  1  0  0  0  0
 22 23  1  0  0  0  0
M  END
$$$$
