FU7
 OpenBabel04121316123D

 55 58  0  0  0  0  0  0  0  0999 V2000
    1.7281    0.6903   -0.8295 N   0  0  0  0  0  0  0  0  0  0  0  0
    2.9275    0.5165   -0.1871 C   0  0  0  0  0  0  0  0  0  0  0  0
    3.4530    1.6354    0.2239 N   0  0  0  0  0  0  0  0  0  0  0  0
    4.7476    1.5024    0.2589 C   0  0  0  0  0  0  0  0  0  0  0  0
    5.6685    2.6700    0.1426 C   0  0  0  0  0  0  0  0  0  0  0  0
    6.8987    2.0276   -0.2691 N   0  0  0  0  0  0  0  0  0  0  0  0
    6.8369    0.6316   -0.0176 C   0  0  0  0  0  0  0  0  0  0  0  0
    5.4378    0.2943    0.1544 C   0  0  0  0  0  0  0  0  0  0  0  0
    4.7998   -0.8978    0.0779 C   0  0  0  0  0  0  0  0  0  0  0  0
    3.5198   -0.6998   -0.2147 N   0  0  0  0  0  0  0  0  0  0  0  0
    5.3679   -2.3284    0.0629 C   0  0  0  0  0  0  0  0  0  0  0  0
    6.8017   -2.5981    0.0733 C   0  0  0  0  0  0  0  0  0  0  0  0
    8.1816   -1.6281    0.5048 Cl  0  0  0  0  0  0  0  0  0  0  0  0
    7.3725   -3.8591   -0.1062 C   0  0  0  0  0  0  0  0  0  0  0  0
    6.5963   -4.9729   -0.1019 C   0  0  0  0  0  0  0  0  0  0  0  0
    5.2219   -4.8304   -0.0139 C   0  0  0  0  0  0  0  0  0  0  0  0
    4.5723   -3.5524    0.0374 C   0  0  0  0  0  0  0  0  0  0  0  0
    3.1906   -3.8133    0.1062 O   0  0  0  0  0  0  0  0  0  0  0  0
    2.2680   -2.7238    0.1435 C   0  0  0  0  0  0  0  0  0  0  0  0
    0.7539   -2.9800    0.2622 C   0  0  0  0  0  0  0  0  0  0  0  0
   -0.1172   -1.7975    0.4429 N   0  0  0  0  0  0  0  0  0  0  0  0
   -1.4739   -1.7095    0.2227 C   0  0  0  0  0  0  0  0  0  0  0  0
   -1.8180   -0.3753    0.2719 C   0  0  0  0  0  0  0  0  0  0  0  0
   -0.6409    0.2646    0.6426 C   0  0  0  0  0  0  0  0  0  0  0  0
    0.3570   -0.6051    0.8680 N   0  0  0  0  0  0  0  0  0  0  0  0
    7.3979   -6.4883   -0.1003 Cl  0  0  0  0  0  0  0  0  0  0  0  0
    7.9222    2.6197   -0.9150 C   0  0  0  0  0  0  0  0  0  0  0  0
    7.8982    3.8281   -1.2051 O   0  0  0  0  0  0  0  0  0  0  0  0
    8.9883    1.8177   -1.2282 N   0  0  0  0  0  0  0  0  0  0  0  0
   10.1548    2.3742   -1.8834 C   0  0  0  0  0  0  0  0  0  0  0  0
   11.2849    1.3786   -2.1506 C   0  0  0  0  0  0  0  0  0  0  0  0
   11.6900    0.8101   -0.9849 F   0  0  0  0  0  0  0  0  0  0  0  0
   10.8374    0.3630   -2.9340 F   0  0  0  0  0  0  0  0  0  0  0  0
   12.4687    2.0445   -2.8203 C   0  0  0  0  0  0  0  0  0  0  0  0
    1.3273    1.4077   -0.2345 H   0  0  0  0  0  0  0  0  0  0  0  0
    1.2498   -0.1908   -0.6752 H   0  0  0  0  0  0  0  0  0  0  0  0
    5.7764    3.0904    1.1430 H   0  0  0  0  0  0  0  0  0  0  0  0
    5.3175    3.3939   -0.5951 H   0  0  0  0  0  0  0  0  0  0  0  0
    7.3055    0.4956    0.9539 H   0  0  0  0  0  0  0  0  0  0  0  0
    7.1999    0.1085   -0.9046 H   0  0  0  0  0  0  0  0  0  0  0  0
    8.4584   -3.9623   -0.1495 H   0  0  0  0  0  0  0  0  0  0  0  0
    4.6296   -5.7420    0.0236 H   0  0  0  0  0  0  0  0  0  0  0  0
    2.3688   -2.2638   -0.8425 H   0  0  0  0  0  0  0  0  0  0  0  0
    2.5323   -2.1582    1.0388 H   0  0  0  0  0  0  0  0  0  0  0  0
    0.5604   -3.6330    1.1105 H   0  0  0  0  0  0  0  0  0  0  0  0
    0.4251   -3.4668   -0.6633 H   0  0  0  0  0  0  0  0  0  0  0  0
   -2.0688   -2.5846    0.0291 H   0  0  0  0  0  0  0  0  0  0  0  0
   -2.7654    0.1098    0.0814 H   0  0  0  0  0  0  0  0  0  0  0  0
   -0.4674    1.3373    0.7013 H   0  0  0  0  0  0  0  0  0  0  0  0
    9.0236    0.8347   -0.9844 H   0  0  0  0  0  0  0  0  0  0  0  0
   10.5139    3.1795   -1.2350 H   0  0  0  0  0  0  0  0  0  0  0  0
    9.8060    2.8071   -2.8263 H   0  0  0  0  0  0  0  0  0  0  0  0
   12.8793    2.8382   -2.1879 H   0  0  0  0  0  0  0  0  0  0  0  0
   12.1816    2.4716   -3.7863 H   0  0  0  0  0  0  0  0  0  0  0  0
   13.2659    1.3174   -3.0011 H   0  0  0  0  0  0  0  0  0  0  0  0
  1  2  1  0  0  0  0
  1 35  1  0  0  0  0
  1 36  1  0  0  0  0
  2  3  2  0  0  0  0
  2 10  1  0  0  0  0
  3  4  1  0  0  0  0
  4  5  1  0  0  0  0
  4  8  2  0  0  0  0
  5  6  1  0  0  0  0
  5 37  1  0  0  0  0
  5 38  1  0  0  0  0
  6  7  1  0  0  0  0
  6 27  1  0  0  0  0
  7  8  1  0  0  0  0
  7 39  1  0  0  0  0
  7 40  1  0  0  0  0
  8  9  1  0  0  0  0
  9 10  2  0  0  0  0
  9 11  1  0  0  0  0
 11 12  2  0  0  0  0
 11 17  1  0  0  0  0
 12 13  1  0  0  0  0
 12 14  1  0  0  0  0
 14 15  2  0  0  0  0
 14 41  1  0  0  0  0
 15 16  1  0  0  0  0
 15 26  1  0  0  0  0
 16 17  2  0  0  0  0
 16 42  1  0  0  0  0
 17 18  1  0  0  0  0
 18 19  1  0  0  0  0
 19 20  1  0  0  0  0
 19 43  1  0  0  0  0
 19 44  1  0  0  0  0
 20 21  1  0  0  0  0
 20 45  1  0  0  0  0
 20 46  1  0  0  0  0
 21 22  1  0  0  0  0
 21 25  1  0  0  0  0
 22 23  2  0  0  0  0
 22 47  1  0  0  0  0
 23 24  1  0  0  0  0
 23 48  1  0  0  0  0
 24 25  2  0  0  0  0
 24 49  1  0  0  0  0
 27 28  2  0  0  0  0
 27 29  1  0  0  0  0
 29 30  1  0  0  0  0
 29 50  1  0  0  0  0
 30 31  1  0  0  0  0
 30 51  1  0  0  0  0
 30 52  1  0  0  0  0
 31 32  1  0  0  0  0
 31 33  1  0  0  0  0
 31 34  1  0  0  0  0
 34 53  1  0  0  0  0
 34 54  1  0  0  0  0
 34 55  1  0  0  0  0
M  END
$$$$
