FXI
 OpenBabel04121316123D

 67 70  0  0  0  0  0  0  0  0999 V2000
    1.0828    0.0872   -0.1397 C   0  0  0  0  0  0  0  0  0  0  0  0
    2.6072    0.1587   -0.2558 C   0  0  0  0  0  0  0  0  0  0  0  0
    3.1990   -0.5442    0.9328 C   0  0  0  0  0  0  0  0  0  0  0  0
    4.6963   -0.6393    1.0802 C   0  0  0  0  0  0  0  0  0  0  0  0
    5.1268   -1.4891    2.2025 N   0  0  0  0  0  0  0  0  0  0  0  0
    4.1869   -1.7551    3.3322 C   0  0  0  0  0  0  0  0  0  0  0  0
    2.6356   -1.9136    3.2953 C   0  0  0  0  0  0  0  0  0  0  0  0
    3.4914   -3.1162    3.2007 C   0  0  0  0  0  0  0  0  0  0  0  0
    4.6463   -1.0179    4.5818 C   0  0  0  0  0  0  0  0  0  0  0  0
    5.4265   -0.0785    4.4369 O   0  0  0  0  0  0  0  0  0  0  0  0
    4.2901   -1.4814    5.8309 N   0  0  0  0  0  0  0  0  0  0  0  0
    5.0276   -0.9588    6.9112 C   0  0  0  0  0  0  0  0  0  0  0  0
    5.1548    0.4101    7.1220 C   0  0  0  0  0  0  0  0  0  0  0  0
    6.1254    0.9076    8.0029 C   0  0  0  0  0  0  0  0  0  0  0  0
    6.8474    0.0438    8.8293 C   0  0  0  0  0  0  0  0  0  0  0  0
    6.3612   -1.2409    8.8527 C   0  0  0  0  0  0  0  0  0  0  0  0
    5.6888   -1.7907    7.7667 C   0  0  0  0  0  0  0  0  0  0  0  0
    5.8324   -3.0921    7.4604 F   0  0  0  0  0  0  0  0  0  0  0  0
    7.9900    0.4061    9.6986 C   0  0  0  0  0  0  0  0  0  0  0  0
    8.0877    1.7807   10.0593 C   0  0  0  0  0  0  0  0  0  0  0  0
    9.1439    2.3072   10.7963 C   0  0  0  0  0  0  0  0  0  0  0  0
   10.0790    1.4460   11.3352 C   0  0  0  0  0  0  0  0  0  0  0  0
    9.9709    0.0696   11.1007 C   0  0  0  0  0  0  0  0  0  0  0  0
    8.9945   -0.4713   10.2166 C   0  0  0  0  0  0  0  0  0  0  0  0
    9.3074   -2.2707    9.8973 S   0  0  0  0  0  0  0  0  0  0  0  0
   10.6497   -2.3477    9.4018 O   0  0  0  0  0  0  0  0  0  0  0  0
    8.9471   -2.9277   11.1661 O   0  0  0  0  0  0  0  0  0  0  0  0
    8.3315   -3.0831    8.6720 C   0  0  0  0  0  0  0  0  0  0  0  0
    6.5434   -1.5015    2.3929 C   0  0  0  0  0  0  0  0  0  0  0  0
    7.3068   -0.9652    1.5875 O   0  0  0  0  0  0  0  0  0  0  0  0
    6.9994   -2.1983    3.5076 N   0  0  0  0  0  0  0  0  0  0  0  0
    8.3488   -2.2171    3.8955 C   0  0  0  0  0  0  0  0  0  0  0  0
    9.0918   -1.0425    4.0325 C   0  0  0  0  0  0  0  0  0  0  0  0
   10.4816   -1.1171    4.1311 C   0  0  0  0  0  0  0  0  0  0  0  0
   11.1000   -2.3650    4.1900 C   0  0  0  0  0  0  0  0  0  0  0  0
   10.3375   -3.5320    4.2410 C   0  0  0  0  0  0  0  0  0  0  0  0
    8.9544   -3.4585    4.0795 C   0  0  0  0  0  0  0  0  0  0  0  0
   12.8161   -2.4748    4.1387 Cl  0  0  0  0  0  0  0  0  0  0  0  0
    0.6172    0.5598   -1.0053 H   0  0  0  0  0  0  0  0  0  0  0  0
    0.7255    0.5925    0.7666 H   0  0  0  0  0  0  0  0  0  0  0  0
    0.7322   -0.9519   -0.0850 H   0  0  0  0  0  0  0  0  0  0  0  0
    2.9399    1.1982   -0.2775 H   0  0  0  0  0  0  0  0  0  0  0  0
    2.9345   -0.3502   -1.1654 H   0  0  0  0  0  0  0  0  0  0  0  0
    2.8439   -1.5751    0.8438 H   0  0  0  0  0  0  0  0  0  0  0  0
    2.8092   -0.0295    1.8208 H   0  0  0  0  0  0  0  0  0  0  0  0
    5.1315    0.3592    1.2032 H   0  0  0  0  0  0  0  0  0  0  0  0
    5.1200   -1.0853    0.1738 H   0  0  0  0  0  0  0  0  0  0  0  0
    1.9483   -1.7740    2.4716 H   0  0  0  0  0  0  0  0  0  0  0  0
    2.0778   -1.6629    4.1921 H   0  0  0  0  0  0  0  0  0  0  0  0
    3.5521   -3.5755    2.2060 H   0  0  0  0  0  0  0  0  0  0  0  0
    3.3697   -3.8587    3.9697 H   0  0  0  0  0  0  0  0  0  0  0  0
    3.8515   -2.3884    5.9296 H   0  0  0  0  0  0  0  0  0  0  0  0
    4.5307    1.0970    6.5620 H   0  0  0  0  0  0  0  0  0  0  0  0
    6.2587    1.9850    8.0359 H   0  0  0  0  0  0  0  0  0  0  0  0
    6.6087   -1.8224    9.7249 H   0  0  0  0  0  0  0  0  0  0  0  0
    7.3152    2.4905    9.7682 H   0  0  0  0  0  0  0  0  0  0  0  0
    9.2086    3.3817   10.9577 H   0  0  0  0  0  0  0  0  0  0  0  0
   10.8892    1.8489   11.9389 H   0  0  0  0  0  0  0  0  0  0  0  0
   10.6732   -0.5884   11.6155 H   0  0  0  0  0  0  0  0  0  0  0  0
    8.3101   -2.4670    7.7717 H   0  0  0  0  0  0  0  0  0  0  0  0
    7.3649   -3.3509    9.1009 H   0  0  0  0  0  0  0  0  0  0  0  0
    8.6963   -4.0713    8.3912 H   0  0  0  0  0  0  0  0  0  0  0  0
    6.3621   -2.6463    4.1404 H   0  0  0  0  0  0  0  0  0  0  0  0
    8.5976   -0.0728    4.0450 H   0  0  0  0  0  0  0  0  0  0  0  0
   11.0730   -0.2057    4.1178 H   0  0  0  0  0  0  0  0  0  0  0  0
   10.8165   -4.5012    4.3424 H   0  0  0  0  0  0  0  0  0  0  0  0
    8.3751   -4.3717    3.9839 H   0  0  0  0  0  0  0  0  0  0  0  0
  1  2  1  0  0  0  0
  1 39  1  0  0  0  0
  1 40  1  0  0  0  0
  1 41  1  0  0  0  0
  2  3  1  0  0  0  0
  2 42  1  0  0  0  0
  2 43  1  0  0  0  0
  3  4  1  0  0  0  0
  3 44  1  0  0  0  0
  3 45  1  0  0  0  0
  4  5  1  0  0  0  0
  4 46  1  0  0  0  0
  4 47  1  0  0  0  0
  5  6  1  0  0  0  0
  5 29  1  0  0  0  0
  6  7  1  0  0  0  0
  6  8  1  0  0  0  0
  6  9  1  0  0  0  0
  7  8  1  0  0  0  0
  7 48  1  0  0  0  0
  7 49  1  0  0  0  0
  8 50  1  0  0  0  0
  8 51  1  0  0  0  0
  9 10  2  0  0  0  0
  9 11  1  0  0  0  0
 11 12  1  0  0  0  0
 11 52  1  0  0  0  0
 12 13  2  0  0  0  0
 12 17  1  0  0  0  0
 13 14  1  0  0  0  0
 13 53  1  0  0  0  0
 14 15  2  0  0  0  0
 14 54  1  0  0  0  0
 15 16  1  0  0  0  0
 15 19  1  0  0  0  0
 16 17  2  0  0  0  0
 16 55  1  0  0  0  0
 17 18  1  0  0  0  0
 19 20  2  0  0  0  0
 19 24  1  0  0  0  0
 20 21  1  0  0  0  0
 20 56  1  0  0  0  0
 21 22  2  0  0  0  0
 21 57  1  0  0  0  0
 22 23  1  0  0  0  0
 22 58  1  0  0  0  0
 23 24  2  0  0  0  0
 23 59  1  0  0  0  0
 24 25  1  0  0  0  0
 25 26  2  0  0  0  0
 25 27  2  0  0  0  0
 25 28  1  0  0  0  0
 28 60  1  0  0  0  0
 28 61  1  0  0  0  0
 28 62  1  0  0  0  0
 29 30  2  0  0  0  0
 29 31  1  0  0  0  0
 31 32  1  0  0  0  0
 31 63  1  0  0  0  0
 32 33  2  0  0  0  0
 32 37  1  0  0  0  0
 33 34  1  0  0  0  0
 33 64  1  0  0  0  0
 34 35  2  0  0  0  0
 34 65  1  0  0  0  0
 35 36  1  0  0  0  0
 35 38  1  0  0  0  0
 36 37  2  0  0  0  0
 36 66  1  0  0  0  0
 37 67  1  0  0  0  0
M  END
$$$$
