FYQ
 OpenBabel04121316123D

 69 69  0  0  1  0  0  0  0  0999 V2000
    6.5984   -0.5661   -6.7650 C   0  0  0  0  0  0  0  0  0  0  0  0
    7.2233   -1.6121   -5.9119 N   0  0  0  0  0  0  0  0  0  0  0  0
    8.2443   -2.6011   -6.0707 C   0  0  0  0  0  0  0  0  0  0  0  0
    8.8821   -2.8184   -7.0884 O   0  0  0  0  0  0  0  0  0  0  0  0
    8.5997   -3.5408   -4.9176 C   0  0  0  0  0  0  0  0  0  0  0  0
    8.2333   -2.8363   -3.6589 C   0  0  2  0  0  0  0  0  0  0  0  0
    8.3892   -3.5037   -2.8007 H   0  0  0  0  0  0  0  0  0  0  0  0
    6.7254   -2.4338   -3.6099 C   0  0  0  0  0  0  0  0  0  0  0  0
    6.4379   -1.2780   -3.2734 O   0  0  0  0  0  0  0  0  0  0  0  0
    5.6989   -3.1626   -4.1659 N   0  0  0  0  0  0  0  0  0  0  0  0
    5.6595   -4.4748   -4.8283 C   0  0  2  0  0  0  0  0  0  0  0  0
    6.5492   -4.6116   -5.4063 H   0  0  0  0  0  0  0  0  0  0  0  0
    4.5538   -4.8114   -5.9121 C   0  0  0  0  0  0  0  0  0  0  0  0
    4.0198   -5.9249   -5.9292 O   0  0  0  0  0  0  0  0  0  0  0  0
    4.2623   -4.0332   -6.9990 N   0  0  0  0  0  0  0  0  0  0  0  0
    4.9558   -2.8822   -7.5024 C   0  0  2  0  0  0  0  0  0  0  0  0
    4.8132   -2.2013   -6.6432 H   0  0  0  0  0  0  0  0  0  0  0  0
    4.4382   -2.1458   -8.7402 C   0  0  0  0  0  0  0  0  0  0  0  0
    5.1591   -1.5605   -9.5456 O   0  0  0  0  0  0  0  0  0  0  0  0
    3.1042   -1.9615   -8.7894 N   0  0  0  0  0  0  0  0  0  0  0  0
    6.3862   -3.1796   -7.8476 C   0  0  0  0  0  0  0  0  0  0  0  0
    6.9237   -3.9630   -8.9663 C   0  0  0  0  0  0  0  0  0  0  0  0
    6.2206   -4.7659   -9.6112 O   0  0  0  0  0  0  0  0  0  0  0  0
    8.2663   -3.7760   -9.1810 N   0  0  0  0  0  0  0  0  0  0  0  0
    5.7804   -5.5358   -3.7523 C   0  0  0  0  0  0  0  0  0  0  0  0
    4.4932   -5.5353   -2.9601 C   0  0  0  0  0  0  0  0  0  0  0  0
    4.5315   -6.5881   -1.9069 C   0  0  0  0  0  0  0  0  0  0  0  0
    5.4909   -7.3082   -1.6745 O   0  0  0  0  0  0  0  0  0  0  0  0
    3.3766   -6.6607   -1.1957 N   0  0  0  0  0  0  0  0  0  0  0  0
    9.3079   -1.6073   -3.6003 C   0  0  0  0  0  0  0  0  0  0  0  0
    9.5410   -0.5774   -4.7807 C   0  0  0  0  0  0  0  0  0  0  0  0
    8.7839    0.6043   -4.9183 C   0  0  0  0  0  0  0  0  0  0  0  0
    8.5684    1.2256   -6.2051 C   0  0  0  0  0  0  0  0  0  0  0  0
    9.1709    0.7123   -7.3689 C   0  0  0  0  0  0  0  0  0  0  0  0
   10.1491   -0.2591   -7.1587 C   0  0  0  0  0  0  0  0  0  0  0  0
   10.3085   -0.9165   -5.9094 C   0  0  0  0  0  0  0  0  0  0  0  0
    8.5415    0.8795   -8.6331 O   0  0  0  0  0  0  0  0  0  0  0  0
    9.2816    0.4455  -10.0102 P   0  0  0  0  0  0  0  0  0  0  0  0
   10.3614    1.3912  -10.4002 O   0  0  0  0  0  0  0  0  0  0  0  0
    9.6974   -1.0715   -9.7220 O   0  0  0  0  0  0  0  0  0  0  0  0
    8.3402    0.1278  -11.2678 O   0  0  0  0  0  0  0  0  0  0  0  0
    6.2615    0.2710   -6.1488 H   0  0  0  0  0  0  0  0  0  0  0  0
    5.6755   -0.7826   -7.2623 H   0  0  0  0  0  0  0  0  0  0  0  0
    7.2163   -0.3744   -7.6104 H   0  0  0  0  0  0  0  0  0  0  0  0
    7.2034   -1.1721   -5.0071 H   0  0  0  0  0  0  0  0  0  0  0  0
    9.6820   -3.7382   -4.9538 H   0  0  0  0  0  0  0  0  0  0  0  0
    8.2420   -4.5686   -5.0228 H   0  0  0  0  0  0  0  0  0  0  0  0
    4.7998   -2.7044   -4.0643 H   0  0  0  0  0  0  0  0  0  0  0  0
    3.8360   -4.5775   -7.7347 H   0  0  0  0  0  0  0  0  0  0  0  0
    2.4916   -2.2565   -8.0457 H   0  0  0  0  0  0  0  0  0  0  0  0
    2.7619   -1.4941   -9.6167 H   0  0  0  0  0  0  0  0  0  0  0  0
    6.7322   -3.7101   -6.9843 H   0  0  0  0  0  0  0  0  0  0  0  0
    6.9098   -2.2527   -8.0587 H   0  0  0  0  0  0  0  0  0  0  0  0
    8.8409   -3.3468   -8.4391 H   0  0  0  0  0  0  0  0  0  0  0  0
    8.7897   -4.4421   -9.7214 H   0  0  0  0  0  0  0  0  0  0  0  0
    6.6330   -5.3247   -3.0876 H   0  0  0  0  0  0  0  0  0  0  0  0
    5.9895   -6.5157   -4.2000 H   0  0  0  0  0  0  0  0  0  0  0  0
    3.6373   -5.7295   -3.6117 H   0  0  0  0  0  0  0  0  0  0  0  0
    4.3326   -4.5587   -2.4888 H   0  0  0  0  0  0  0  0  0  0  0  0
    2.5632   -6.1012   -1.4124 H   0  0  0  0  0  0  0  0  0  0  0  0
    3.3188   -7.3789   -0.4901 H   0  0  0  0  0  0  0  0  0  0  0  0
   10.2813   -2.1086   -3.4813 H   0  0  0  0  0  0  0  0  0  0  0  0
    9.1051   -1.0443   -2.6933 H   0  0  0  0  0  0  0  0  0  0  0  0
    8.1610    0.9179   -4.0818 H   0  0  0  0  0  0  0  0  0  0  0  0
    7.7223    1.9148   -6.2932 H   0  0  0  0  0  0  0  0  0  0  0  0
   10.6974   -0.7247   -7.9668 H   0  0  0  0  0  0  0  0  0  0  0  0
   10.8183   -1.8849   -5.9741 H   0  0  0  0  0  0  0  0  0  0  0  0
    8.9541   -1.4949   -9.2378 H   0  0  0  0  0  0  0  0  0  0  0  0
    8.9460    0.0682  -12.0477 H   0  0  0  0  0  0  0  0  0  0  0  0
  1  2  1  0  0  0  0
  1 42  1  0  0  0  0
  1 43  1  0  0  0  0
  1 44  1  0  0  0  0
  2  3  1  0  0  0  0
  2 45  1  0  0  0  0
  3  4  2  0  0  0  0
  3  5  1  0  0  0  0
  5 46  1  0  0  0  0
  5 47  1  0  0  0  0
  6  8  1  0  0  0  0
  6 30  1  0  0  0  0
  6  7  1  1  0  0  0
  6  5  1  0  0  0  0
  8  9  2  0  0  0  0
  8 10  1  0  0  0  0
 10 48  1  0  0  0  0
 11 13  1  0  0  0  0
 11 25  1  0  0  0  0
 11 12  1  6  0  0  0
 11 10  1  0  0  0  0
 13 14  2  0  0  0  0
 13 15  1  0  0  0  0
 15 49  1  0  0  0  0
 16 18  1  0  0  0  0
 16 21  1  0  0  0  0
 16 17  1  1  0  0  0
 16 15  1  0  0  0  0
 18 19  2  0  0  0  0
 18 20  1  0  0  0  0
 20 50  1  0  0  0  0
 20 51  1  0  0  0  0
 21 22  1  0  0  0  0
 21 52  1  0  0  0  0
 21 53  1  0  0  0  0
 22 23  2  0  0  0  0
 22 24  1  0  0  0  0
 24 54  1  0  0  0  0
 24 55  1  0  0  0  0
 25 26  1  0  0  0  0
 25 56  1  0  0  0  0
 25 57  1  0  0  0  0
 26 27  1  0  0  0  0
 26 58  1  0  0  0  0
 26 59  1  0  0  0  0
 27 28  2  0  0  0  0
 27 29  1  0  0  0  0
 29 60  1  0  0  0  0
 29 61  1  0  0  0  0
 30 31  1  0  0  0  0
 30 62  1  0  0  0  0
 30 63  1  0  0  0  0
 31 32  2  0  0  0  0
 31 36  1  0  0  0  0
 32 33  1  0  0  0  0
 32 64  1  0  0  0  0
 33 34  2  0  0  0  0
 33 65  1  0  0  0  0
 34 35  1  0  0  0  0
 34 37  1  0  0  0  0
 35 36  2  0  0  0  0
 35 66  1  0  0  0  0
 36 67  1  0  0  0  0
 37 38  1  0  0  0  0
 38 39  2  0  0  0  0
 38 40  1  0  0  0  0
 38 41  1  0  0  0  0
 40 68  1  0  0  0  0
 41 69  1  0  0  0  0
M  END
$$$$
