FYX
 OpenBabel04121316123D

 27 29  0  0  0  0  0  0  0  0999 V2000
    0.9861    0.0972    0.0752 N   0  0  0  0  0  0  0  0  0  0  0  0
    2.1440    0.1150    0.1077 C   0  0  0  0  0  0  0  0  0  0  0  0
    3.5841    0.0611    0.1062 C   0  0  0  0  0  0  0  0  0  0  0  0
    4.2385    1.2468    0.0584 N   0  0  0  0  0  0  0  0  0  0  0  0
    5.5844    1.1988   -0.0548 C   0  0  0  0  0  0  0  0  0  0  0  0
    6.2968    0.0310   -0.2349 C   0  0  0  0  0  0  0  0  0  0  0  0
    5.6050   -1.1733   -0.1670 C   0  0  0  0  0  0  0  0  0  0  0  0
    4.2310   -1.1610    0.0879 C   0  0  0  0  0  0  0  0  0  0  0  0
    6.2939   -2.4289   -0.3850 C   0  0  0  0  0  0  0  0  0  0  0  0
    7.5528   -2.5456   -0.8352 N   0  0  0  0  0  0  0  0  0  0  0  0
    7.6969   -3.8785   -0.8983 N   0  0  0  0  0  0  0  0  0  0  0  0
    8.5580   -4.2754   -1.2572 H   0  0  0  0  0  0  0  0  0  0  0  0
    6.5674   -4.5212   -0.4785 C   0  0  0  0  0  0  0  0  0  0  0  0
    5.6577   -3.6217   -0.1838 N   0  0  0  0  0  0  0  0  0  0  0  0
    6.3787   -5.9537   -0.4539 C   0  0  0  0  0  0  0  0  0  0  0  0
    7.3930   -6.8258   -0.0698 C   0  0  0  0  0  0  0  0  0  0  0  0
    7.1523   -8.1810   -0.1891 C   0  0  0  0  0  0  0  0  0  0  0  0
    5.9512   -8.7007   -0.5183 N   0  0  0  0  0  0  0  0  0  0  0  0
    4.9506   -7.8290   -0.7635 C   0  0  0  0  0  0  0  0  0  0  0  0
    5.1292   -6.4634   -0.8035 C   0  0  0  0  0  0  0  0  0  0  0  0
    6.0991    2.1525    0.0106 H   0  0  0  0  0  0  0  0  0  0  0  0
    7.3688    0.0510   -0.4043 H   0  0  0  0  0  0  0  0  0  0  0  0
    3.6769   -2.0845    0.2343 H   0  0  0  0  0  0  0  0  0  0  0  0
    8.3363   -6.4739    0.3322 H   0  0  0  0  0  0  0  0  0  0  0  0
    7.9410   -8.9061   -0.0119 H   0  0  0  0  0  0  0  0  0  0  0  0
    3.9688   -8.2649   -0.9186 H   0  0  0  0  0  0  0  0  0  0  0  0
    4.3120   -5.8031   -1.0799 H   0  0  0  0  0  0  0  0  0  0  0  0
  1  2  3  0  0  0  0
  2  3  1  0  0  0  0
  3  4  2  0  0  0  0
  3  8  1  0  0  0  0
  4  5  1  0  0  0  0
  5  6  2  0  0  0  0
  5 21  1  0  0  0  0
  6  7  1  0  0  0  0
  6 22  1  0  0  0  0
  7  8  2  0  0  0  0
  7  9  1  0  0  0  0
  8 23  1  0  0  0  0
  9 10  2  0  0  0  0
  9 14  1  0  0  0  0
 10 11  1  0  0  0  0
 11 12  1  0  0  0  0
 11 13  1  0  0  0  0
 13 14  2  0  0  0  0
 13 15  1  0  0  0  0
 15 16  2  0  0  0  0
 15 20  1  0  0  0  0
 16 17  1  0  0  0  0
 16 24  1  0  0  0  0
 17 18  2  0  0  0  0
 17 25  1  0  0  0  0
 18 19  1  0  0  0  0
 19 20  2  0  0  0  0
 19 26  1  0  0  0  0
 20 27  1  0  0  0  0
M  END
$$$$
