G11
 OpenBabel04121316123D

 49 52  0  0  0  0  0  0  0  0999 V2000
    1.0146   -0.0408   -0.1147 O   0  0  0  0  0  0  0  0  0  0  0  0
    2.2376   -0.0793   -0.0260 C   0  0  0  0  0  0  0  0  0  0  0  0
    2.9245    0.8304    0.8817 C   0  0  0  0  0  0  0  0  0  0  0  0
    2.5868    2.1654    0.8206 C   0  0  0  0  0  0  0  0  0  0  0  0
    3.2248    3.0430    1.6756 C   0  0  0  0  0  0  0  0  0  0  0  0
    4.2716    2.6066    2.4980 C   0  0  0  0  0  0  0  0  0  0  0  0
    4.5840    1.2900    2.5572 N   0  0  0  0  0  0  0  0  0  0  0  0
    3.8778    0.4251    1.7944 C   0  0  0  0  0  0  0  0  0  0  0  0
    5.1071    3.5617    3.2854 C   0  0  0  0  0  0  0  0  0  0  0  0
    4.7332    4.9262    3.3093 C   0  0  0  0  0  0  0  0  0  0  0  0
    5.5413    5.9450    3.8207 C   0  0  0  0  0  0  0  0  0  0  0  0
    6.6780    5.5770    4.5263 C   0  0  0  0  0  0  0  0  0  0  0  0
    7.0161    4.2295    4.6540 C   0  0  0  0  0  0  0  0  0  0  0  0
    6.2968    3.2273    3.9715 C   0  0  0  0  0  0  0  0  0  0  0  0
    6.8791    1.8377    3.9623 C   0  0  0  0  0  0  0  0  0  0  0  0
    5.2566    7.4094    3.6121 C   0  0  0  0  0  0  0  0  0  0  0  0
    6.0150    8.2384    4.0834 O   0  0  0  0  0  0  0  0  0  0  0  0
    4.1394    7.7123    2.8464 N   0  0  0  0  0  0  0  0  0  0  0  0
    3.5689    8.9930    2.5813 C   0  0  0  0  0  0  0  0  0  0  0  0
    3.5390   10.0390    3.6644 C   0  0  0  0  0  0  0  0  0  0  0  0
    4.2072   10.3241    2.3513 C   0  0  0  0  0  0  0  0  0  0  0  0
    2.9815   -0.8883   -0.8283 N   0  0  0  0  0  0  0  0  0  0  0  0
    4.4205   -0.8962   -0.9703 C   0  0  0  0  0  0  0  0  0  0  0  0
    4.8822   -1.8708   -1.9962 C   0  0  0  0  0  0  0  0  0  0  0  0
    4.9398   -3.3352   -1.6285 C   0  0  0  0  0  0  0  0  0  0  0  0
    3.9838   -2.8720   -2.6888 C   0  0  0  0  0  0  0  0  0  0  0  0
    1.8364    2.5246    0.1230 H   0  0  0  0  0  0  0  0  0  0  0  0
    2.8729    4.0628    1.6515 H   0  0  0  0  0  0  0  0  0  0  0  0
    4.1174   -0.6229    1.9481 H   0  0  0  0  0  0  0  0  0  0  0  0
    3.7736    5.1936    2.9014 H   0  0  0  0  0  0  0  0  0  0  0  0
    7.3108    6.3392    4.9734 H   0  0  0  0  0  0  0  0  0  0  0  0
    7.8765    3.9677    5.2664 H   0  0  0  0  0  0  0  0  0  0  0  0
    7.7971    1.7773    4.5549 H   0  0  0  0  0  0  0  0  0  0  0  0
    7.1450    1.5544    2.9368 H   0  0  0  0  0  0  0  0  0  0  0  0
    6.1764    1.1181    4.3902 H   0  0  0  0  0  0  0  0  0  0  0  0
    3.5520    6.9563    2.5397 H   0  0  0  0  0  0  0  0  0  0  0  0
    2.7231    8.8680    1.9058 H   0  0  0  0  0  0  0  0  0  0  0  0
    4.2161    9.9767    4.5115 H   0  0  0  0  0  0  0  0  0  0  0  0
    2.5754   10.4594    3.9145 H   0  0  0  0  0  0  0  0  0  0  0  0
    5.2824   10.4341    2.3417 H   0  0  0  0  0  0  0  0  0  0  0  0
    3.6905   11.0005    1.6752 H   0  0  0  0  0  0  0  0  0  0  0  0
    2.4114   -1.3458   -1.5250 H   0  0  0  0  0  0  0  0  0  0  0  0
    4.8617   -1.1730   -0.0096 H   0  0  0  0  0  0  0  0  0  0  0  0
    4.7589    0.1190   -1.2096 H   0  0  0  0  0  0  0  0  0  0  0  0
    5.7267   -1.4702   -2.5482 H   0  0  0  0  0  0  0  0  0  0  0  0
    4.5232   -3.6436   -0.6737 H   0  0  0  0  0  0  0  0  0  0  0  0
    5.8086   -3.9083   -1.9276 H   0  0  0  0  0  0  0  0  0  0  0  0
    2.9302   -2.9532   -2.4531 H   0  0  0  0  0  0  0  0  0  0  0  0
    4.1926   -3.0784   -3.7311 H   0  0  0  0  0  0  0  0  0  0  0  0
  1  2  2  0  0  0  0
  2  3  1  0  0  0  0
  2 22  1  0  0  0  0
  3  4  2  0  0  0  0
  3  8  1  0  0  0  0
  4  5  1  0  0  0  0
  4 27  1  0  0  0  0
  5  6  2  0  0  0  0
  5 28  1  0  0  0  0
  6  7  1  0  0  0  0
  6  9  1  0  0  0  0
  7  8  2  0  0  0  0
  8 29  1  0  0  0  0
  9 10  2  0  0  0  0
  9 14  1  0  0  0  0
 10 11  1  0  0  0  0
 10 30  1  0  0  0  0
 11 12  2  0  0  0  0
 11 16  1  0  0  0  0
 12 13  1  0  0  0  0
 12 31  1  0  0  0  0
 13 14  2  0  0  0  0
 13 32  1  0  0  0  0
 14 15  1  0  0  0  0
 15 33  1  0  0  0  0
 15 34  1  0  0  0  0
 15 35  1  0  0  0  0
 16 17  2  0  0  0  0
 16 18  1  0  0  0  0
 18 19  1  0  0  0  0
 18 36  1  0  0  0  0
 19 20  1  0  0  0  0
 19 21  1  0  0  0  0
 19 37  1  0  0  0  0
 20 21  1  0  0  0  0
 20 38  1  0  0  0  0
 20 39  1  0  0  0  0
 21 40  1  0  0  0  0
 21 41  1  0  0  0  0
 22 23  1  0  0  0  0
 22 42  1  0  0  0  0
 23 24  1  0  0  0  0
 23 43  1  0  0  0  0
 23 44  1  0  0  0  0
 24 25  1  0  0  0  0
 24 26  1  0  0  0  0
 24 45  1  0  0  0  0
 25 26  1  0  0  0  0
 25 46  1  0  0  0  0
 25 47  1  0  0  0  0
 26 48  1  0  0  0  0
 26 49  1  0  0  0  0
M  END
$$$$
