G1P
 OpenBabel04121316123D

 29 29  0  0  1  0  0  0  0  0999 V2000
    1.0846    0.2280   -0.0460 O   0  0  0  0  0  0  0  0  0  0  0  0
    2.5051    0.1361   -0.1215 C   0  0  0  0  0  0  0  0  0  0  0  0
    2.9690   -0.8272   -1.2461 C   0  0  1  0  0  0  0  0  0  0  0  0
    3.5079   -0.2229   -1.9856 H   0  0  0  0  0  0  0  0  0  0  0  0
    3.9791   -1.7396   -0.7313 O   0  0  0  0  0  0  0  0  0  0  0  0
    3.4208   -2.7721    0.0951 C   0  0  2  0  0  0  0  0  0  0  0  0
    2.9377   -2.2535    0.9290 H   0  0  0  0  0  0  0  0  0  0  0  0
    4.4610   -3.5702    0.7038 O   0  0  0  0  0  0  0  0  0  0  0  0
    3.7706   -4.7114    1.8056 P   0  0  0  0  0  0  0  0  0  0  0  0
    2.3454   -4.1911    1.7823 O   0  0  0  0  0  0  0  0  0  0  0  0
    4.0990   -5.8521    0.7056 O   0  0  0  0  0  0  0  0  0  0  0  0
    3.0802   -5.8526    2.9074 O   0  0  0  0  0  0  0  0  0  0  0  0
    2.3960   -3.6331   -0.7234 C   0  0  1  0  0  0  0  0  0  0  0  0
    1.9165   -4.4511   -0.1890 H   0  0  0  0  0  0  0  0  0  0  0  0
    1.2532   -2.7238   -1.1605 C   0  0  2  0  0  0  0  0  0  0  0  0
    0.5604   -3.3100   -1.7765 H   0  0  0  0  0  0  0  0  0  0  0  0
    1.8186   -1.5645   -1.9913 C   0  0  2  0  0  0  0  0  0  0  0  0
    1.0202   -0.8632   -2.2510 H   0  0  0  0  0  0  0  0  0  0  0  0
    2.3176   -2.0496   -3.2502 O   0  0  0  0  0  0  0  0  0  0  0  0
    0.4843   -2.3334   -0.0202 O   0  0  0  0  0  0  0  0  0  0  0  0
    3.0544   -4.3116   -1.7987 O   0  0  0  0  0  0  0  0  0  0  0  0
    0.8429    0.7423    0.7377 H   0  0  0  0  0  0  0  0  0  0  0  0
    2.8568   -0.1812    0.8637 H   0  0  0  0  0  0  0  0  0  0  0  0
    2.9059    1.1395   -0.2929 H   0  0  0  0  0  0  0  0  0  0  0  0
    5.0780   -5.9433    0.6775 H   0  0  0  0  0  0  0  0  0  0  0  0
    2.1236   -5.6363    2.8647 H   0  0  0  0  0  0  0  0  0  0  0  0
    1.8811   -2.9040   -3.4403 H   0  0  0  0  0  0  0  0  0  0  0  0
    0.8578   -1.4987    0.3609 H   0  0  0  0  0  0  0  0  0  0  0  0
    3.7181   -4.8734   -1.3514 H   0  0  0  0  0  0  0  0  0  0  0  0
  1  2  1  0  0  0  0
  1 22  1  0  0  0  0
  2  3  1  0  0  0  0
  2 23  1  0  0  0  0
  2 24  1  0  0  0  0
  3  4  1  6  0  0  0
  3  5  1  0  0  0  0
  3 17  1  0  0  0  0
  5  6  1  0  0  0  0
  6  7  1  1  0  0  0
  6  8  1  0  0  0  0
  6 13  1  0  0  0  0
  8  9  1  0  0  0  0
  9 10  2  0  0  0  0
  9 11  1  0  0  0  0
  9 12  1  0  0  0  0
 11 25  1  0  0  0  0
 12 26  1  0  0  0  0
 13 14  1  1  0  0  0
 13 15  1  0  0  0  0
 13 21  1  0  0  0  0
 15 17  1  0  0  0  0
 15 20  1  0  0  0  0
 15 16  1  6  0  0  0
 17 18  1  6  0  0  0
 17 19  1  0  0  0  0
 19 27  1  0  0  0  0
 20 28  1  0  0  0  0
 21 29  1  0  0  0  0
M  END
$$$$
