G24
 OpenBabel04121316123D

 52 54  0  0  0  0  0  0  0  0999 V2000
    0.9884   -0.0333    0.0201 O   0  0  0  0  0  0  0  0  0  0  0  0
    2.3307   -0.1431    0.0515 C   0  0  0  0  0  0  0  0  0  0  0  0
    2.8988   -1.2400   -0.1325 O   0  0  0  0  0  0  0  0  0  0  0  0
    3.0006    1.1838    0.2957 C   0  0  0  0  0  0  0  0  0  0  0  0
    4.4010    1.0476    0.1622 O   0  0  0  0  0  0  0  0  0  0  0  0
    5.1148    2.1956    0.2467 C   0  0  0  0  0  0  0  0  0  0  0  0
    4.6828    3.4794    0.4271 C   0  0  0  0  0  0  0  0  0  0  0  0
    5.6159    4.5158    0.6976 C   0  0  0  0  0  0  0  0  0  0  0  0
    5.1482    5.9133    0.5147 C   0  0  0  0  0  0  0  0  0  0  0  0
    6.9775    4.2743    0.9100 C   0  0  0  0  0  0  0  0  0  0  0  0
    7.3741    3.0912    0.3143 C   0  0  0  0  0  0  0  0  0  0  0  0
    6.4554    2.0628    0.0168 C   0  0  0  0  0  0  0  0  0  0  0  0
    8.8231    2.8966    0.2199 C   0  0  0  0  0  0  0  0  0  0  0  0
    8.0083    5.3422    1.4117 C   0  0  0  0  0  0  0  0  0  0  0  0
    9.4329    4.9578    2.0502 C   0  0  0  0  0  0  0  0  0  0  0  0
   10.5423    5.7483    1.7309 C   0  0  0  0  0  0  0  0  0  0  0  0
   11.8282    5.1878    1.8418 C   0  0  0  0  0  0  0  0  0  0  0  0
   11.9872    3.7853    1.9466 C   0  0  0  0  0  0  0  0  0  0  0  0
   10.9008    2.9474    2.2466 C   0  0  0  0  0  0  0  0  0  0  0  0
    9.7230    3.6822    2.6540 C   0  0  0  0  0  0  0  0  0  0  0  0
   11.0346    1.3337    1.8449 C   0  0  0  0  0  0  0  0  0  0  0  0
    9.8910    0.2521    1.7309 C   0  0  0  0  0  0  0  0  0  0  0  0
    9.9673   -1.1415    1.6578 C   0  0  0  0  0  0  0  0  0  0  0  0
    8.7999   -1.9255    1.2653 C   0  0  0  0  0  0  0  0  0  0  0  0
    7.5383   -1.3389    1.2190 C   0  0  0  0  0  0  0  0  0  0  0  0
    7.5248   -0.1044    1.7450 C   0  0  0  0  0  0  0  0  0  0  0  0
    8.6371    0.5740    1.3216 C   0  0  0  0  0  0  0  0  0  0  0  0
   13.2176    3.2197    1.7496 O   0  0  0  0  0  0  0  0  0  0  0  0
    0.6401   -0.0193    0.9341 H   0  0  0  0  0  0  0  0  0  0  0  0
    2.7448    1.5279    1.3061 H   0  0  0  0  0  0  0  0  0  0  0  0
    2.6397    1.8695   -0.4754 H   0  0  0  0  0  0  0  0  0  0  0  0
    3.6403    3.7205    0.2650 H   0  0  0  0  0  0  0  0  0  0  0  0
    4.0971    5.9213    0.2185 H   0  0  0  0  0  0  0  0  0  0  0  0
    5.7270    6.3566   -0.3049 H   0  0  0  0  0  0  0  0  0  0  0  0
    5.2856    6.4555    1.4447 H   0  0  0  0  0  0  0  0  0  0  0  0
    6.7569    1.0827   -0.3365 H   0  0  0  0  0  0  0  0  0  0  0  0
    9.3827    3.8051    0.0931 H   0  0  0  0  0  0  0  0  0  0  0  0
    9.3343    2.2000   -0.4258 H   0  0  0  0  0  0  0  0  0  0  0  0
    8.9186    2.5360    1.2233 H   0  0  0  0  0  0  0  0  0  0  0  0
    7.5131    6.0283    2.1012 H   0  0  0  0  0  0  0  0  0  0  0  0
    8.2211    5.8970    0.4793 H   0  0  0  0  0  0  0  0  0  0  0  0
   10.4185    6.7657    1.3560 H   0  0  0  0  0  0  0  0  0  0  0  0
   12.6894    5.8469    1.7725 H   0  0  0  0  0  0  0  0  0  0  0  0
    8.8684    3.1666    3.0827 H   0  0  0  0  0  0  0  0  0  0  0  0
   11.7593    0.9211    2.5450 H   0  0  0  0  0  0  0  0  0  0  0  0
   11.5263    1.3360    0.8458 H   0  0  0  0  0  0  0  0  0  0  0  0
   10.9005   -1.6505    1.8501 H   0  0  0  0  0  0  0  0  0  0  0  0
    8.8631   -2.9740    1.0030 H   0  0  0  0  0  0  0  0  0  0  0  0
    6.6172   -1.7478    0.8162 H   0  0  0  0  0  0  0  0  0  0  0  0
    6.6124    0.4511    1.9151 H   0  0  0  0  0  0  0  0  0  0  0  0
    8.6230    0.5976    0.1877 H   0  0  0  0  0  0  0  0  0  0  0  0
   13.8952    3.9145    1.7959 H   0  0  0  0  0  0  0  0  0  0  0  0
  1  2  1  0  0  0  0
  1 29  1  0  0  0  0
  2  3  2  0  0  0  0
  2  4  1  0  0  0  0
  4  5  1  0  0  0  0
  4 30  1  0  0  0  0
  4 31  1  0  0  0  0
  5  6  1  0  0  0  0
  6  7  2  0  0  0  0
  6 12  1  0  0  0  0
  7  8  1  0  0  0  0
  7 32  1  0  0  0  0
  8  9  1  0  0  0  0
  8 10  2  0  0  0  0
  9 33  1  0  0  0  0
  9 34  1  0  0  0  0
  9 35  1  0  0  0  0
 10 11  1  0  0  0  0
 10 14  1  0  0  0  0
 11 12  2  0  0  0  0
 11 13  1  0  0  0  0
 12 36  1  0  0  0  0
 13 37  1  0  0  0  0
 13 38  1  0  0  0  0
 13 39  1  0  0  0  0
 14 15  1  0  0  0  0
 14 40  1  0  0  0  0
 14 41  1  0  0  0  0
 15 16  2  0  0  0  0
 15 20  1  0  0  0  0
 16 17  1  0  0  0  0
 16 42  1  0  0  0  0
 17 18  2  0  0  0  0
 17 43  1  0  0  0  0
 18 19  1  0  0  0  0
 18 28  1  0  0  0  0
 19 20  2  0  0  0  0
 19 21  1  0  0  0  0
 20 44  1  0  0  0  0
 21 22  1  0  0  0  0
 21 45  1  0  0  0  0
 21 46  1  0  0  0  0
 22 23  2  0  0  0  0
 22 27  1  0  0  0  0
 23 24  1  0  0  0  0
 23 47  1  0  0  0  0
 24 25  2  0  0  0  0
 24 48  1  0  0  0  0
 25 26  1  0  0  0  0
 25 49  1  0  0  0  0
 26 27  2  0  0  0  0
 26 50  1  0  0  0  0
 27 51  1  0  0  0  0
 28 52  1  0  0  0  0
M  END
$$$$
