G2G
 OpenBabel04121316123D

 82 87  0  0  0  0  0  0  0  0999 V2000
    0.8777    0.0356    0.1658 O   0  0  0  0  0  0  0  0  0  0  0  0
    2.1088   -0.0236    0.1220 C   0  0  0  0  0  0  0  0  0  0  0  0
    2.7439   -0.1950   -1.1074 N   0  0  0  0  0  0  0  0  0  0  0  0
    2.0482   -0.1678   -2.2424 C   0  0  0  0  0  0  0  0  0  0  0  0
    1.8086   -1.3508   -2.9766 C   0  0  0  0  0  0  0  0  0  0  0  0
    1.1669   -0.8804   -4.1670 C   0  0  0  0  0  0  0  0  0  0  0  0
    1.1238    0.5324   -4.1255 N   0  0  0  0  0  0  0  0  0  0  0  0
    0.7752    1.1630   -4.8546 H   0  0  0  0  0  0  0  0  0  0  0  0
    1.6936    0.9536   -2.9795 N   0  3  0  0  0  0  0  0  0  0  0  0
    1.9124    2.3388   -2.6560 C   0  0  0  0  0  0  0  0  0  0  0  0
    0.8920    3.2075   -2.9801 C   0  0  0  0  0  0  0  0  0  0  0  0
    1.1066    4.5590   -2.7852 C   0  0  0  0  0  0  0  0  0  0  0  0
    2.2876    5.0079   -2.1766 C   0  0  0  0  0  0  0  0  0  0  0  0
    3.2431    4.0910   -1.7220 C   0  0  0  0  0  0  0  0  0  0  0  0
    3.0866    2.7455   -2.0254 C   0  0  0  0  0  0  0  0  0  0  0  0
    2.5451    6.4780   -2.0584 C   0  0  0  0  0  0  0  0  0  0  0  0
    0.6109   -1.7514   -5.2203 C   0  0  0  0  0  0  0  0  0  0  0  0
   -0.8939   -1.4845   -5.3062 C   0  0  0  0  0  0  0  0  0  0  0  0
    1.2968   -1.4332   -6.5490 C   0  0  0  0  0  0  0  0  0  0  0  0
    0.8467   -3.2322   -4.8629 C   0  0  0  0  0  0  0  0  0  0  0  0
    2.9287   -0.0084    1.1925 N   0  0  0  0  0  0  0  0  0  0  0  0
    4.3428   -0.0180    1.2652 C   0  0  0  0  0  0  0  0  0  0  0  0
    5.1305    0.1214    0.1208 C   0  0  0  0  0  0  0  0  0  0  0  0
    6.4834   -0.0369    0.1224 C   0  0  0  0  0  0  0  0  0  0  0  0
    7.1329   -0.1326    1.3303 C   0  0  0  0  0  0  0  0  0  0  0  0
    6.4188   -0.0886    2.5324 C   0  0  0  0  0  0  0  0  0  0  0  0
    5.0003   -0.0811    2.5183 C   0  0  0  0  0  0  0  0  0  0  0  0
    4.3476   -0.0686    3.7673 C   0  0  0  0  0  0  0  0  0  0  0  0
    5.0615    0.1941    4.9365 C   0  0  0  0  0  0  0  0  0  0  0  0
    6.4391    0.3344    4.9016 C   0  0  0  0  0  0  0  0  0  0  0  0
    7.1166    0.0328    3.7381 C   0  0  0  0  0  0  0  0  0  0  0  0
    8.5623   -0.0906    1.2400 C   0  0  0  0  0  0  0  0  0  0  0  0
    9.1914    1.1321    1.0936 C   0  0  0  0  0  0  0  0  0  0  0  0
   10.5382    1.1245    0.8594 C   0  0  0  0  0  0  0  0  0  0  0  0
   11.2133   -0.0693    0.6681 C   0  0  0  0  0  0  0  0  0  0  0  0
   10.6107   -1.2727    0.8542 N   0  0  0  0  0  0  0  0  0  0  0  0
    9.3080   -1.2562    1.1797 C   0  0  0  0  0  0  0  0  0  0  0  0
   12.6499   -0.0691    0.1900 C   0  0  0  0  0  0  0  0  0  0  0  0
   13.4784    1.0916    0.5037 N   0  0  0  0  0  0  0  0  0  0  0  0
   13.5134    2.4064   -0.1464 C   0  0  0  0  0  0  0  0  0  0  0  0
   13.0380    3.6088    0.7227 C   0  0  0  0  0  0  0  0  0  0  0  0
   13.5234    3.5446    2.0696 O   0  0  0  0  0  0  0  0  0  0  0  0
   13.2231    2.2876    2.6758 C   0  0  0  0  0  0  0  0  0  0  0  0
   13.8540    1.1319    1.9071 C   0  0  0  0  0  0  0  0  0  0  0  0
    3.6030   -0.7006   -1.1961 H   0  0  0  0  0  0  0  0  0  0  0  0
    2.0499   -2.3551   -2.6640 H   0  0  0  0  0  0  0  0  0  0  0  0
   -0.0633    2.8437   -3.3366 H   0  0  0  0  0  0  0  0  0  0  0  0
    0.3476    5.2675   -3.1074 H   0  0  0  0  0  0  0  0  0  0  0  0
    4.1198    4.4334   -1.1714 H   0  0  0  0  0  0  0  0  0  0  0  0
    3.9035    2.0736   -1.8088 H   0  0  0  0  0  0  0  0  0  0  0  0
    1.7292    7.0493   -2.5117 H   0  0  0  0  0  0  0  0  0  0  0  0
    3.4640    6.7282   -2.5988 H   0  0  0  0  0  0  0  0  0  0  0  0
    2.6357    6.7666   -1.0093 H   0  0  0  0  0  0  0  0  0  0  0  0
   -1.0992   -0.4384   -5.5632 H   0  0  0  0  0  0  0  0  0  0  0  0
   -1.3843   -1.6824   -4.3443 H   0  0  0  0  0  0  0  0  0  0  0  0
   -1.3582   -2.1202   -6.0641 H   0  0  0  0  0  0  0  0  0  0  0  0
    1.1440   -0.3868   -6.8377 H   0  0  0  0  0  0  0  0  0  0  0  0
    0.9018   -2.0675   -7.3476 H   0  0  0  0  0  0  0  0  0  0  0  0
    2.3796   -1.5983   -6.4850 H   0  0  0  0  0  0  0  0  0  0  0  0
    0.3812   -3.4868   -3.9004 H   0  0  0  0  0  0  0  0  0  0  0  0
    1.9194   -3.4521   -4.7721 H   0  0  0  0  0  0  0  0  0  0  0  0
    0.4311   -3.9007   -5.6186 H   0  0  0  0  0  0  0  0  0  0  0  0
    2.4111    0.0193    2.0634 H   0  0  0  0  0  0  0  0  0  0  0  0
    4.8062    0.4504   -0.8462 H   0  0  0  0  0  0  0  0  0  0  0  0
    7.0328    0.0322   -0.8156 H   0  0  0  0  0  0  0  0  0  0  0  0
    3.2746   -0.1938    3.8609 H   0  0  0  0  0  0  0  0  0  0  0  0
    4.5405    0.2934    5.8832 H   0  0  0  0  0  0  0  0  0  0  0  0
    6.9974    0.6612    5.7729 H   0  0  0  0  0  0  0  0  0  0  0  0
    8.2025   -0.0399    3.7744 H   0  0  0  0  0  0  0  0  0  0  0  0
    8.6540    2.0764    1.1377 H   0  0  0  0  0  0  0  0  0  0  0  0
   11.0431    2.0623    0.8313 H   0  0  0  0  0  0  0  0  0  0  0  0
    8.8393   -2.2183    1.3696 H   0  0  0  0  0  0  0  0  0  0  0  0
   12.6991   -0.3709   -0.8621 H   0  0  0  0  0  0  0  0  0  0  0  0
   13.1075   -0.9208    0.7175 H   0  0  0  0  0  0  0  0  0  0  0  0
   13.0511    2.4540   -1.1415 H   0  0  0  0  0  0  0  0  0  0  0  0
   14.5809    2.6035   -0.3221 H   0  0  0  0  0  0  0  0  0  0  0  0
   11.9502    3.7071    0.7448 H   0  0  0  0  0  0  0  0  0  0  0  0
   13.3945    4.5552    0.2998 H   0  0  0  0  0  0  0  0  0  0  0  0
   12.1376    2.1789    2.7722 H   0  0  0  0  0  0  0  0  0  0  0  0
   13.6250    2.2778    3.6916 H   0  0  0  0  0  0  0  0  0  0  0  0
   13.5867    0.2031    2.4219 H   0  0  0  0  0  0  0  0  0  0  0  0
   14.9438    1.2033    1.9163 H   0  0  0  0  0  0  0  0  0  0  0  0
  1  2  2  0  0  0  0
  2  3  1  0  0  0  0
  2 21  1  0  0  0  0
  3  4  1  0  0  0  0
  3 45  1  0  0  0  0
  4  5  1  0  0  0  0
  4  9  2  0  0  0  0
  5  6  2  0  0  0  0
  5 46  1  0  0  0  0
  6  7  1  0  0  0  0
  6 17  1  0  0  0  0
  7  8  1  0  0  0  0
  7  9  1  0  0  0  0
  9 10  1  0  0  0  0
 10 11  2  0  0  0  0
 10 15  1  0  0  0  0
 11 12  1  0  0  0  0
 11 47  1  0  0  0  0
 12 13  2  0  0  0  0
 12 48  1  0  0  0  0
 13 14  1  0  0  0  0
 13 16  1  0  0  0  0
 14 15  2  0  0  0  0
 14 49  1  0  0  0  0
 15 50  1  0  0  0  0
 16 51  1  0  0  0  0
 16 52  1  0  0  0  0
 16 53  1  0  0  0  0
 17 18  1  0  0  0  0
 17 19  1  0  0  0  0
 17 20  1  0  0  0  0
 18 54  1  0  0  0  0
 18 55  1  0  0  0  0
 18 56  1  0  0  0  0
 19 57  1  0  0  0  0
 19 58  1  0  0  0  0
 19 59  1  0  0  0  0
 20 60  1  0  0  0  0
 20 61  1  0  0  0  0
 20 62  1  0  0  0  0
 21 22  1  0  0  0  0
 21 63  1  0  0  0  0
 22 23  2  0  0  0  0
 22 27  1  0  0  0  0
 23 24  1  0  0  0  0
 23 64  1  0  0  0  0
 24 25  2  0  0  0  0
 24 65  1  0  0  0  0
 25 26  1  0  0  0  0
 25 32  1  0  0  0  0
 26 27  2  0  0  0  0
 26 31  1  0  0  0  0
 27 28  1  0  0  0  0
 28 29  2  0  0  0  0
 28 66  1  0  0  0  0
 29 30  1  0  0  0  0
 29 67  1  0  0  0  0
 30 31  2  0  0  0  0
 30 68  1  0  0  0  0
 31 69  1  0  0  0  0
 32 33  2  0  0  0  0
 32 37  1  0  0  0  0
 33 34  1  0  0  0  0
 33 70  1  0  0  0  0
 34 35  2  0  0  0  0
 34 71  1  0  0  0  0
 35 36  1  0  0  0  0
 35 38  1  0  0  0  0
 36 37  2  0  0  0  0
 37 72  1  0  0  0  0
 38 39  1  0  0  0  0
 38 73  1  0  0  0  0
 38 74  1  0  0  0  0
 39 40  1  0  0  0  0
 39 44  1  0  0  0  0
 40 41  1  0  0  0  0
 40 75  1  0  0  0  0
 40 76  1  0  0  0  0
 41 42  1  0  0  0  0
 41 77  1  0  0  0  0
 41 78  1  0  0  0  0
 42 43  1  0  0  0  0
 43 44  1  0  0  0  0
 43 79  1  0  0  0  0
 43 80  1  0  0  0  0
 44 81  1  0  0  0  0
 44 82  1  0  0  0  0
M  CHG  1   9   1
M  END
$$$$
