G2I
 OpenBabel04121316123D

 65 67  0  0  1  0  0  0  0  0999 V2000
    9.7252    5.6673   -2.8499 O   0  0  0  0  0  0  0  0  0  0  0  0
    8.3772    5.7224   -2.4123 C   0  0  0  0  0  0  0  0  0  0  0  0
    7.4619    4.7034   -3.1869 C   0  0  1  0  0  0  0  0  0  0  0  0
    6.7088    5.3247   -3.6847 H   0  0  0  0  0  0  0  0  0  0  0  0
    8.2492    4.1105   -4.2424 O   0  0  0  0  0  0  0  0  0  0  0  0
    9.0685    2.9704   -3.9031 C   0  0  1  0  0  0  0  0  0  0  0  0
    9.3806    2.6013   -4.8914 H   0  0  0  0  0  0  0  0  0  0  0  0
   10.2635    3.2113   -3.1919 O   0  0  0  0  0  0  0  0  0  0  0  0
   10.5600    2.5601   -1.9382 C   0  0  1  0  0  0  0  0  0  0  0  0
    9.7392    2.3396   -1.3179 H   0  0  0  0  0  0  0  0  0  0  0  0
   11.0967    1.1459   -2.0398 C   0  0  2  0  0  0  0  0  0  0  0  0
   10.4392    0.4728   -2.5874 H   0  0  0  0  0  0  0  0  0  0  0  0
   11.1896    0.5300   -0.7589 O   0  0  0  0  0  0  0  0  0  0  0  0
   12.3772    1.2518   -2.8097 C   0  0  0  0  0  0  0  0  0  0  0  0
   13.3041    2.2225   -2.1946 N   0  0  0  0  0  0  0  0  0  0  0  0
   12.7284    3.5760   -2.0441 C   0  0  0  0  0  0  0  0  0  0  0  0
   11.4481    3.5688   -1.2170 C   0  0  2  0  0  0  0  0  0  0  0  0
   10.9800    4.5530   -1.2999 H   0  0  0  0  0  0  0  0  0  0  0  0
   11.6399    3.4229    0.2921 C   0  0  0  0  0  0  0  0  0  0  0  0
   10.4052    3.4390    1.0000 O   0  0  0  0  0  0  0  0  0  0  0  0
    8.2252    1.9502   -3.2216 C   0  0  1  0  0  0  0  0  0  0  0  0
    8.7774    1.0675   -2.9459 H   0  0  0  0  0  0  0  0  0  0  0  0
    7.5622    2.5596   -1.9343 C   0  0  2  0  0  0  0  0  0  0  0  0
    7.2226    1.6455   -1.4755 H   0  0  0  0  0  0  0  0  0  0  0  0
    6.6220    3.6602   -2.3140 C   0  0  2  0  0  0  0  0  0  0  0  0
    6.2590    4.2009   -1.4304 H   0  0  0  0  0  0  0  0  0  0  0  0
    5.4684    3.1375   -2.9540 O   0  0  0  0  0  0  0  0  0  0  0  0
    4.8069    2.0009   -2.3215 C   0  0  2  0  0  0  0  0  0  0  0  0
    3.8119    2.3836   -2.0939 H   0  0  0  0  0  0  0  0  0  0  0  0
    5.3192    1.5267   -1.0626 O   0  0  0  0  0  0  0  0  0  0  0  0
    4.7609    0.3072   -0.5538 C   0  0  2  0  0  0  0  0  0  0  0  0
    3.7409    0.5474   -0.2425 H   0  0  0  0  0  0  0  0  0  0  0  0
    5.5171   -0.1713    0.7135 C   0  0  0  0  0  0  0  0  0  0  0  0
    4.8687   -1.2720    1.3509 O   0  0  0  0  0  0  0  0  0  0  0  0
    4.7071   -0.8212   -1.6021 C   0  0  2  0  0  0  0  0  0  0  0  0
    5.7215   -1.1687   -1.8504 H   0  0  0  0  0  0  0  0  0  0  0  0
    3.9960   -0.3179   -2.8537 C   0  0  1  0  0  0  0  0  0  0  0  0
    2.9537   -0.0673   -2.6417 H   0  0  0  0  0  0  0  0  0  0  0  0
    4.7196    0.8898   -3.3902 C   0  0  1  0  0  0  0  0  0  0  0  0
    5.6915    0.4900   -3.6469 H   0  0  0  0  0  0  0  0  0  0  0  0
    4.1192    1.3554   -4.6026 O   0  0  0  0  0  0  0  0  0  0  0  0
    3.9731   -1.3575   -3.8394 O   0  0  0  0  0  0  0  0  0  0  0  0
    3.9679   -1.9662   -1.1614 O   0  0  0  0  0  0  0  0  0  0  0  0
    8.1858    3.1786   -0.7936 O   0  0  0  0  0  0  0  0  0  0  0  0
    7.3314    1.4467   -4.2086 O   0  0  0  0  0  0  0  0  0  0  0  0
   10.3087    6.2117   -2.2672 H   0  0  0  0  0  0  0  0  0  0  0  0
    8.0541    6.7440   -2.6185 H   0  0  0  0  0  0  0  0  0  0  0  0
    8.3352    5.6127   -1.3259 H   0  0  0  0  0  0  0  0  0  0  0  0
   11.9561    0.9132   -0.3009 H   0  0  0  0  0  0  0  0  0  0  0  0
   12.1211    1.5505   -3.8359 H   0  0  0  0  0  0  0  0  0  0  0  0
   12.8234    0.2572   -2.8499 H   0  0  0  0  0  0  0  0  0  0  0  0
   14.0883    2.3019   -2.8401 H   0  0  0  0  0  0  0  0  0  0  0  0
   12.5162    4.0010   -3.0380 H   0  0  0  0  0  0  0  0  0  0  0  0
   13.4551    4.2503   -1.5864 H   0  0  0  0  0  0  0  0  0  0  0  0
   12.2336    4.2610    0.6697 H   0  0  0  0  0  0  0  0  0  0  0  0
   12.1698    2.5199    0.5775 H   0  0  0  0  0  0  0  0  0  0  0  0
    9.9631    4.2965    0.8852 H   0  0  0  0  0  0  0  0  0  0  0  0
    5.5969    0.6332    1.4507 H   0  0  0  0  0  0  0  0  0  0  0  0
    6.5420   -0.4844    0.4788 H   0  0  0  0  0  0  0  0  0  0  0  0
    3.9212   -1.0791    1.4254 H   0  0  0  0  0  0  0  0  0  0  0  0
    3.3433    1.8836   -4.3677 H   0  0  0  0  0  0  0  0  0  0  0  0
    3.7207   -2.1737   -3.3710 H   0  0  0  0  0  0  0  0  0  0  0  0
    3.1318   -1.6576   -0.7769 H   0  0  0  0  0  0  0  0  0  0  0  0
    8.8255    3.8400   -1.0977 H   0  0  0  0  0  0  0  0  0  0  0  0
    7.8312    1.0072   -4.9212 H   0  0  0  0  0  0  0  0  0  0  0  0
  1  2  1  0  0  0  0
  1 46  1  0  0  0  0
  2  3  1  0  0  0  0
  2 47  1  0  0  0  0
  2 48  1  0  0  0  0
  3  4  1  6  0  0  0
  3  5  1  0  0  0  0
  3 25  1  0  0  0  0
  5  6  1  0  0  0  0
  6 21  1  0  0  0  0
  6  8  1  0  0  0  0
  6  7  1  6  0  0  0
  8  9  1  0  0  0  0
  9 10  1  1  0  0  0
  9 11  1  0  0  0  0
  9 17  1  0  0  0  0
 11 14  1  0  0  0  0
 11 13  1  0  0  0  0
 11 12  1  6  0  0  0
 13 49  1  0  0  0  0
 14 15  1  0  0  0  0
 14 50  1  0  0  0  0
 14 51  1  0  0  0  0
 15 16  1  0  0  0  0
 15 52  1  0  0  0  0
 16 17  1  0  0  0  0
 16 53  1  0  0  0  0
 16 54  1  0  0  0  0
 17 18  1  6  0  0  0
 17 19  1  0  0  0  0
 19 20  1  0  0  0  0
 19 55  1  0  0  0  0
 19 56  1  0  0  0  0
 20 57  1  0  0  0  0
 21 22  1  1  0  0  0
 21 23  1  0  0  0  0
 21 45  1  0  0  0  0
 23 25  1  0  0  0  0
 23 44  1  0  0  0  0
 23 24  1  1  0  0  0
 25 26  1  1  0  0  0
 25 27  1  0  0  0  0
 28 30  1  0  0  0  0
 28 39  1  0  0  0  0
 28 29  1  1  0  0  0
 28 27  1  0  0  0  0
 30 31  1  0  0  0  0
 31 32  1  1  0  0  0
 31 33  1  0  0  0  0
 31 35  1  0  0  0  0
 33 34  1  0  0  0  0
 33 58  1  0  0  0  0
 33 59  1  0  0  0  0
 34 60  1  0  0  0  0
 35 37  1  0  0  0  0
 35 43  1  0  0  0  0
 35 36  1  6  0  0  0
 37 38  1  1  0  0  0
 37 39  1  0  0  0  0
 37 42  1  0  0  0  0
 39 41  1  0  0  0  0
 39 40  1  6  0  0  0
 41 61  1  0  0  0  0
 42 62  1  0  0  0  0
 43 63  1  0  0  0  0
 44 64  1  0  0  0  0
 45 65  1  0  0  0  0
M  END
$$$$
