G3D
 OpenBabel04121316123D

 48 50  0  0  1  0  0  0  0  0999 V2000
    2.9419    0.0726   -1.4125 O   0  0  0  0  0  0  0  0  0  0  0  0
    2.5127   -0.0045   -0.0467 C   0  0  2  0  0  0  0  0  0  0  0  0
    1.4222    0.1031   -0.0562 H   0  0  0  0  0  0  0  0  0  0  0  0
    3.1607    1.0881    0.7762 C   0  0  2  0  0  0  0  0  0  0  0  0
    2.5393    1.0699    1.6684 H   0  0  0  0  0  0  0  0  0  0  0  0
    3.0069    2.3249    0.2345 O   0  0  0  0  0  0  0  0  0  0  0  0
    3.0013    3.8856   -0.5120 P   0  0  0  0  0  0  0  0  0  0  0  0
    1.6940    4.2584    0.1940 O   0  0  0  0  0  0  0  0  0  0  0  0
    4.3004    4.2514    0.3843 O   0  0  0  0  0  0  0  0  0  0  0  0
    2.9958    5.4463   -1.2584 O   0  0  0  0  0  0  0  0  0  0  0  0
    4.4614    0.5320    1.2773 C   0  0  2  0  0  0  0  0  0  0  0  0
    5.1827    0.6046    0.4577 H   0  0  0  0  0  0  0  0  0  0  0  0
    4.1762   -0.8827    1.4741 O   0  0  0  0  0  0  0  0  0  0  0  0
    3.0002   -1.2717    0.6683 C   0  0  1  0  0  0  0  0  0  0  0  0
    3.3278   -2.0402   -0.0413 H   0  0  0  0  0  0  0  0  0  0  0  0
    1.9962   -1.9056    1.5205 N   0  0  0  0  0  0  0  0  0  0  0  0
    2.1822   -2.3127    2.8210 C   0  0  0  0  0  0  0  0  0  0  0  0
    1.0951   -2.8392    3.3454 N   0  0  0  0  0  0  0  0  0  0  0  0
    0.1729   -2.7946    2.3349 C   0  0  0  0  0  0  0  0  0  0  0  0
    0.7086   -2.2611    1.1799 C   0  0  0  0  0  0  0  0  0  0  0  0
    0.0831   -2.0889   -0.0151 N   0  0  0  0  0  0  0  0  0  0  0  0
   -1.1736   -2.4580   -0.0138 C   0  0  0  0  0  0  0  0  0  0  0  0
   -1.9381   -2.3362   -1.1242 N   0  0  0  0  0  0  0  0  0  0  0  0
   -1.8129   -2.9898    1.0896 N   0  0  0  0  0  0  0  0  0  0  0  0
   -2.7804   -3.2586    1.0379 H   0  0  0  0  0  0  0  0  0  0  0  0
   -1.2103   -3.2059    2.3140 C   0  0  0  0  0  0  0  0  0  0  0  0
   -1.8322   -3.7013    3.2623 O   0  0  0  0  0  0  0  0  0  0  0  0
    5.1692    1.1790    2.5268 C   0  0  0  0  0  0  0  0  0  0  0  0
    4.4869    1.3332    3.7910 O   0  0  0  0  0  0  0  0  0  0  0  0
    4.6399    2.7625    4.5920 P   0  0  1  0  0  0  0  0  0  0  0  0
    5.6620    3.6985    4.0292 O   0  0  0  0  0  0  0  0  0  0  0  0
    3.1329    3.3431    4.8427 O   0  0  0  0  0  0  0  0  0  0  0  0
    2.0680    2.9097    3.5500 P   0  0  0  0  0  0  0  0  0  0  0  0
    3.1198    3.3320    2.5396 O   0  0  0  0  0  0  0  0  0  0  0  0
    2.0768    1.3707    4.0483 O   0  0  0  0  0  0  0  0  0  0  0  0
    1.0031    2.4763    2.2573 O   0  0  0  0  0  0  0  0  0  0  0  0
    5.1039    2.3386    6.0692 O   0  0  0  0  0  0  0  0  0  0  0  0
    3.9099    0.0137   -1.4304 H   0  0  0  0  0  0  0  0  0  0  0  0
    4.0854    4.0355    1.3215 H   0  0  0  0  0  0  0  0  0  0  0  0
    2.0947    5.5928   -1.5979 H   0  0  0  0  0  0  0  0  0  0  0  0
    3.1260   -2.1991    3.3389 H   0  0  0  0  0  0  0  0  0  0  0  0
   -1.5204   -1.9373   -1.9553 H   0  0  0  0  0  0  0  0  0  0  0  0
   -2.9099   -2.6048   -1.1683 H   0  0  0  0  0  0  0  0  0  0  0  0
    6.0178    0.5375    2.7737 H   0  0  0  0  0  0  0  0  0  0  0  0
    5.5436    2.1502    2.2031 H   0  0  0  0  0  0  0  0  0  0  0  0
    2.9316    0.9051    3.9457 H   0  0  0  0  0  0  0  0  0  0  0  0
    0.7472    3.2921    1.7698 H   0  0  0  0  0  0  0  0  0  0  0  0
    5.9307    2.8145    6.2896 H   0  0  0  0  0  0  0  0  0  0  0  0
  1 38  1  0  0  0  0
  2  4  1  0  0  0  0
  2 14  1  0  0  0  0
  2  3  1  1  0  0  0
  2  1  1  0  0  0  0
  4 11  1  0  0  0  0
  4  6  1  0  0  0  0
  4  5  1  1  0  0  0
  6  7  1  0  0  0  0
  7  8  2  0  0  0  0
  7  9  1  0  0  0  0
  7 10  1  0  0  0  0
  9 39  1  0  0  0  0
 10 40  1  0  0  0  0
 11 13  1  0  0  0  0
 11 28  1  0  0  0  0
 11 12  1  6  0  0  0
 13 14  1  0  0  0  0
 14 16  1  0  0  0  0
 14 15  1  6  0  0  0
 16 17  1  0  0  0  0
 16 20  1  0  0  0  0
 17 18  2  0  0  0  0
 17 41  1  0  0  0  0
 18 19  1  0  0  0  0
 19 20  2  0  0  0  0
 19 26  1  0  0  0  0
 20 21  1  0  0  0  0
 21 22  2  0  0  0  0
 22 23  1  0  0  0  0
 22 24  1  0  0  0  0
 23 42  1  0  0  0  0
 23 43  1  0  0  0  0
 24 25  1  0  0  0  0
 24 26  1  0  0  0  0
 26 27  2  0  0  0  0
 28 29  1  0  0  0  0
 28 44  1  0  0  0  0
 28 45  1  0  0  0  0
 30 29  1  6  0  0  0
 30 31  2  0  0  0  0
 30 32  1  0  0  0  0
 30 37  1  0  0  0  0
 32 33  1  0  0  0  0
 33 34  2  0  0  0  0
 33 35  1  0  0  0  0
 33 36  1  0  0  0  0
 35 46  1  0  0  0  0
 36 47  1  0  0  0  0
 37 48  1  0  0  0  0
M  END
$$$$
