G3I
 OpenBabel04121316123D

 86 89  0  0  1  0  0  0  0  0999 V2000
   -8.3998    4.6210   -0.0085 O   0  0  0  0  0  0  0  0  0  0  0  0
   -8.7127    3.6389   -0.9827 C   0  0  0  0  0  0  0  0  0  0  0  0
   -8.2679    2.2033   -0.6036 C   0  0  1  0  0  0  0  0  0  0  0  0
   -8.4610    2.0634    0.4688 H   0  0  0  0  0  0  0  0  0  0  0  0
   -9.0826    1.2394   -1.3006 O   0  0  0  0  0  0  0  0  0  0  0  0
   -8.7766    1.0715   -2.6914 C   0  0  1  0  0  0  0  0  0  0  0  0
   -9.4920    0.3261   -3.0483 H   0  0  0  0  0  0  0  0  0  0  0  0
   -8.9561    2.3090   -3.4007 O   0  0  0  0  0  0  0  0  0  0  0  0
   -8.3399    2.3802   -4.7167 C   0  0  1  0  0  0  0  0  0  0  0  0
   -7.2741    2.1789   -4.7087 H   0  0  0  0  0  0  0  0  0  0  0  0
   -8.9377    1.3219   -5.6168 C   0  0  2  0  0  0  0  0  0  0  0  0
   -8.9334    0.3462   -5.1236 H   0  0  0  0  0  0  0  0  0  0  0  0
   -8.1586    1.1289   -6.7846 O   0  0  0  0  0  0  0  0  0  0  0  0
  -10.3731    1.7311   -5.8778 C   0  0  0  0  0  0  0  0  0  0  0  0
  -10.4622    3.1032   -6.4110 N   0  0  0  0  0  0  0  0  0  0  0  0
   -9.9250    4.1024   -5.4747 C   0  0  0  0  0  0  0  0  0  0  0  0
   -8.4562    3.8415   -5.1778 C   0  0  2  0  0  0  0  0  0  0  0  0
   -8.1638    4.5095   -4.3517 H   0  0  0  0  0  0  0  0  0  0  0  0
   -7.5196    4.1751   -6.3460 C   0  0  0  0  0  0  0  0  0  0  0  0
   -6.1668    3.8325   -6.0625 O   0  0  0  0  0  0  0  0  0  0  0  0
   -7.3568    0.5717   -2.8882 C   0  0  1  0  0  0  0  0  0  0  0  0
   -7.0960    0.4305   -3.9372 H   0  0  0  0  0  0  0  0  0  0  0  0
   -6.4699    1.6723   -2.3361 C   0  0  2  0  0  0  0  0  0  0  0  0
   -5.5176    1.2014   -2.5451 H   0  0  0  0  0  0  0  0  0  0  0  0
   -6.7682    1.9675   -0.8591 C   0  0  2  0  0  0  0  0  0  0  0  0
   -6.2683    2.8604   -0.4738 H   0  0  0  0  0  0  0  0  0  0  0  0
   -6.2574    0.8828   -0.1101 O   0  0  0  0  0  0  0  0  0  0  0  0
   -4.8897    0.6529   -0.4486 C   0  0  2  0  0  0  0  0  0  0  0  0
   -4.8289   -0.0934   -1.2529 H   0  0  0  0  0  0  0  0  0  0  0  0
   -4.4227    0.0221    0.6751 O   0  0  0  0  0  0  0  0  0  0  0  0
   -3.0675   -0.2655    0.6105 C   0  0  2  0  0  0  0  0  0  0  0  0
   -2.8754   -1.0774   -0.1111 H   0  0  0  0  0  0  0  0  0  0  0  0
   -3.0201   -0.5749    2.0572 C   0  0  0  0  0  0  0  0  0  0  0  0
   -1.8031   -0.8083    2.3532 O   0  0  0  0  0  0  0  0  0  0  0  0
   -2.0539    0.8720    0.3659 C   0  0  2  0  0  0  0  0  0  0  0  0
   -2.0969    1.6194    1.1706 H   0  0  0  0  0  0  0  0  0  0  0  0
   -2.5484    1.5510   -0.8870 C   0  0  1  0  0  0  0  0  0  0  0  0
   -2.4491    0.9001   -1.7673 H   0  0  0  0  0  0  0  0  0  0  0  0
   -3.9964    1.9338   -0.6863 C   0  0  1  0  0  0  0  0  0  0  0  0
   -4.1254    2.5762    0.1905 H   0  0  0  0  0  0  0  0  0  0  0  0
   -4.2645    2.7617   -1.8084 O   0  0  0  0  0  0  0  0  0  0  0  0
   -1.7896    2.7291   -1.1710 O   0  0  0  0  0  0  0  0  0  0  0  0
   -0.6728    0.4949    0.1215 O   0  0  0  0  0  0  0  0  0  0  0  0
    0.0032   -0.5352    0.9493 C   0  0  2  0  0  0  0  0  0  0  0  0
    0.9839   -0.6019    0.4650 H   0  0  0  0  0  0  0  0  0  0  0  0
   -0.7186   -1.9968    0.6522 O   0  0  0  0  0  0  0  0  0  0  0  0
   -1.2967   -3.0861    1.7415 C   0  0  2  0  0  0  0  0  0  0  0  0
   -0.6532   -3.9430    1.5479 H   0  0  0  0  0  0  0  0  0  0  0  0
   -2.8157   -3.6742    1.3961 C   0  0  0  0  0  0  0  0  0  0  0  0
   -3.0543   -4.8983    2.0955 O   0  0  0  0  0  0  0  0  0  0  0  0
   -1.1529   -2.6161    3.3586 C   0  0  2  0  0  0  0  0  0  0  0  0
   -2.1074   -2.1911    3.7622 H   0  0  0  0  0  0  0  0  0  0  0  0
    0.0656   -1.4939    3.5920 C   0  0  1  0  0  0  0  0  0  0  0  0
    0.9916   -2.0365    3.4474 H   0  0  0  0  0  0  0  0  0  0  0  0
    0.1930   -0.1126    2.6022 C   0  0  1  0  0  0  0  0  0  0  0  0
   -0.5662    0.6555    2.9146 H   0  0  0  0  0  0  0  0  0  0  0  0
    1.3739    0.6649    2.8185 O   0  0  0  0  0  0  0  0  0  0  0  0
    0.0573   -1.1083    4.9887 O   0  0  0  0  0  0  0  0  0  0  0  0
   -1.0440   -3.7254    4.2514 O   0  0  0  0  0  0  0  0  0  0  0  0
   -6.3630    2.9098   -3.0337 O   0  0  0  0  0  0  0  0  0  0  0  0
   -7.0771   -0.6976   -2.3013 O   0  0  0  0  0  0  0  0  0  0  0  0
   -8.4760    5.4792   -0.4680 H   0  0  0  0  0  0  0  0  0  0  0  0
   -8.2232    4.0096   -1.8717 H   0  0  0  0  0  0  0  0  0  0  0  0
   -9.7828    3.6657   -1.2022 H   0  0  0  0  0  0  0  0  0  0  0  0
   -8.3579    1.8683   -7.3808 H   0  0  0  0  0  0  0  0  0  0  0  0
  -10.9445    1.6537   -4.9425 H   0  0  0  0  0  0  0  0  0  0  0  0
  -10.7981    1.0281   -6.5944 H   0  0  0  0  0  0  0  0  0  0  0  0
  -11.4502    3.3087   -6.5553 H   0  0  0  0  0  0  0  0  0  0  0  0
  -10.4983    4.0952   -4.5357 H   0  0  0  0  0  0  0  0  0  0  0  0
  -10.0385    5.1070   -5.8942 H   0  0  0  0  0  0  0  0  0  0  0  0
   -7.5518    5.2406   -6.5863 H   0  0  0  0  0  0  0  0  0  0  0  0
   -7.7998    3.6485   -7.2553 H   0  0  0  0  0  0  0  0  0  0  0  0
   -5.8612    4.3337   -5.2843 H   0  0  0  0  0  0  0  0  0  0  0  0
   -3.6174   -1.4251    2.3592 H   0  0  0  0  0  0  0  0  0  0  0  0
   -3.1831    0.2524    2.7205 H   0  0  0  0  0  0  0  0  0  0  0  0
   -1.4460   -1.3340    1.5821 H   0  0  0  0  0  0  0  0  0  0  0  0
   -3.9573    2.3132   -2.6189 H   0  0  0  0  0  0  0  0  0  0  0  0
   -0.8577    2.4611   -1.1306 H   0  0  0  0  0  0  0  0  0  0  0  0
   -3.0081   -3.8539    0.3269 H   0  0  0  0  0  0  0  0  0  0  0  0
   -3.6816   -3.0722    1.6908 H   0  0  0  0  0  0  0  0  0  0  0  0
   -2.1994   -5.3186    2.2613 H   0  0  0  0  0  0  0  0  0  0  0  0
    2.1166    0.0574    2.7384 H   0  0  0  0  0  0  0  0  0  0  0  0
   -0.1459   -1.9108    5.5115 H   0  0  0  0  0  0  0  0  0  0  0  0
   -0.4690   -4.3750    3.8335 H   0  0  0  0  0  0  0  0  0  0  0  0
   -7.2363    3.3135   -3.0347 H   0  0  0  0  0  0  0  0  0  0  0  0
   -7.6499   -1.3564   -2.7278 H   0  0  0  0  0  0  0  0  0  0  0  0
  1  2  1  0  0  0  0
  1 62  1  0  0  0  0
  2  3  1  0  0  0  0
  2 63  1  0  0  0  0
  2 64  1  0  0  0  0
  3  4  1  1  0  0  0
  3  5  1  0  0  0  0
  3 25  1  0  0  0  0
  5  6  1  0  0  0  0
  6 21  1  0  0  0  0
  6  8  1  0  0  0  0
  6  7  1  6  0  0  0
  8  9  1  0  0  0  0
  9 10  1  1  0  0  0
  9 11  1  0  0  0  0
  9 17  1  0  0  0  0
 11 14  1  0  0  0  0
 11 13  1  0  0  0  0
 11 12  1  1  0  0  0
 13 65  1  0  0  0  0
 14 15  1  0  0  0  0
 14 66  1  0  0  0  0
 14 67  1  0  0  0  0
 15 16  1  0  0  0  0
 15 68  1  0  0  0  0
 16 17  1  0  0  0  0
 16 69  1  0  0  0  0
 16 70  1  0  0  0  0
 17 18  1  1  0  0  0
 17 19  1  0  0  0  0
 19 20  1  0  0  0  0
 19 71  1  0  0  0  0
 19 72  1  0  0  0  0
 20 73  1  0  0  0  0
 21 22  1  6  0  0  0
 21 23  1  0  0  0  0
 21 61  1  0  0  0  0
 23 25  1  0  0  0  0
 23 60  1  0  0  0  0
 23 24  1  6  0  0  0
 25 26  1  1  0  0  0
 25 27  1  0  0  0  0
 28 30  1  0  0  0  0
 28 39  1  0  0  0  0
 28 29  1  6  0  0  0
 28 27  1  0  0  0  0
 30 31  1  0  0  0  0
 31 32  1  6  0  0  0
 31 33  1  0  0  0  0
 31 35  1  0  0  0  0
 33 34  1  0  0  0  0
 33 74  1  0  0  0  0
 33 75  1  0  0  0  0
 34 76  1  0  0  0  0
 35 37  1  0  0  0  0
 35 43  1  0  0  0  0
 35 36  1  1  0  0  0
 37 38  1  6  0  0  0
 37 39  1  0  0  0  0
 37 42  1  0  0  0  0
 39 41  1  0  0  0  0
 39 40  1  1  0  0  0
 41 77  1  0  0  0  0
 42 78  1  0  0  0  0
 44 46  1  0  0  0  0
 44 55  1  0  0  0  0
 44 45  1  6  0  0  0
 44 43  1  0  0  0  0
 46 47  1  0  0  0  0
 47 48  1  6  0  0  0
 47 49  1  0  0  0  0
 47 51  1  0  0  0  0
 49 50  1  0  0  0  0
 49 79  1  0  0  0  0
 49 80  1  0  0  0  0
 50 81  1  0  0  0  0
 51 53  1  0  0  0  0
 51 59  1  0  0  0  0
 51 52  1  1  0  0  0
 53 54  1  6  0  0  0
 53 55  1  0  0  0  0
 53 58  1  0  0  0  0
 55 57  1  0  0  0  0
 55 56  1  1  0  0  0
 57 82  1  0  0  0  0
 58 83  1  0  0  0  0
 59 84  1  0  0  0  0
 60 85  1  0  0  0  0
 61 86  1  0  0  0  0
M  END
$$$$
