G3P
 OpenBabel04121316123D

 19 18  0  0  1  0  0  0  0  0999 V2000
    2.2824   -0.0532   -2.8665 O   0  0  0  0  0  0  0  0  0  0  0  0
    2.5512    1.2387   -2.3311 C   0  0  0  0  0  0  0  0  0  0  0  0
    3.0009    1.1461   -0.8697 C   0  0  2  0  0  0  0  0  0  0  0  0
    2.6098    0.2422   -0.3902 H   0  0  0  0  0  0  0  0  0  0  0  0
    2.5343    2.3851   -0.1237 C   0  0  0  0  0  0  0  0  0  0  0  0
    1.0960    2.4922   -0.1081 O   0  0  0  0  0  0  0  0  0  0  0  0
    0.5193    3.9310    0.6601 P   0  0  0  0  0  0  0  0  0  0  0  0
    1.4868    3.8065    1.8348 O   0  0  0  0  0  0  0  0  0  0  0  0
    1.2433    4.8031   -0.5134 O   0  0  0  0  0  0  0  0  0  0  0  0
   -0.0574    5.3699    1.4283 O   0  0  0  0  0  0  0  0  0  0  0  0
    4.4358    1.0879   -0.8198 O   0  0  0  0  0  0  0  0  0  0  0  0
    1.9948    0.0886   -3.7840 H   0  0  0  0  0  0  0  0  0  0  0  0
    1.6291    1.8188   -2.4317 H   0  0  0  0  0  0  0  0  0  0  0  0
    3.3295    1.7049   -2.9437 H   0  0  0  0  0  0  0  0  0  0  0  0
    2.9750    3.2701   -0.5980 H   0  0  0  0  0  0  0  0  0  0  0  0
    2.9290    2.3410    0.8964 H   0  0  0  0  0  0  0  0  0  0  0  0
    0.9798    4.4775   -1.3766 H   0  0  0  0  0  0  0  0  0  0  0  0
    0.3481    5.3286    2.3190 H   0  0  0  0  0  0  0  0  0  0  0  0
    4.7062    1.1581    0.1138 H   0  0  0  0  0  0  0  0  0  0  0  0
  1  2  1  0  0  0  0
  1 12  1  0  0  0  0
  2 13  1  0  0  0  0
  2 14  1  0  0  0  0
  3  5  1  0  0  0  0
  3 11  1  0  0  0  0
  3  4  1  1  0  0  0
  3  2  1  0  0  0  0
  5  6  1  0  0  0  0
  5 15  1  0  0  0  0
  5 16  1  0  0  0  0
  6  7  1  0  0  0  0
  7  8  2  0  0  0  0
  7  9  1  0  0  0  0
  7 10  1  0  0  0  0
  9 17  1  0  0  0  0
 10 18  1  0  0  0  0
 11 19  1  0  0  0  0
M  END
$$$$
