G3X
 OpenBabel04121316123D

 63 67  0  0  1  0  0  0  0  0999 V2000
    6.2353    6.2744    6.8095 C   0  0  0  0  0  0  0  0  0  0  0  0
    5.4691    5.1687    7.2519 O   0  0  0  0  0  0  0  0  0  0  0  0
    4.8077    4.5203    6.2447 C   0  0  0  0  0  0  0  0  0  0  0  0
    4.7885    3.1240    6.3829 C   0  0  0  0  0  0  0  0  0  0  0  0
    4.0959    2.3316    5.4621 C   0  0  0  0  0  0  0  0  0  0  0  0
    3.2754    2.9122    4.4825 C   0  0  0  0  0  0  0  0  0  0  0  0
    3.2729    4.3230    4.3906 C   0  0  0  0  0  0  0  0  0  0  0  0
    4.1102    5.1033    5.1865 C   0  0  0  0  0  0  0  0  0  0  0  0
    4.1483    6.4334    4.7821 O   0  0  0  0  0  0  0  0  0  0  0  0
    3.0931    6.6206    3.7883 C   0  0  2  0  0  0  0  0  0  0  0  0
    2.4511    7.4245    4.1788 H   0  0  0  0  0  0  0  0  0  0  0  0
    2.3307    5.2421    3.7238 C   0  0  1  0  0  0  0  0  0  0  0  0
    2.2442    5.4447    2.2896 C   0  0  0  0  0  0  0  0  0  0  0  0
    1.5350    6.5052    1.8885 C   0  0  0  0  0  0  0  0  0  0  0  0
    2.3682    7.0623    0.8728 C   0  0  1  0  0  0  0  0  0  0  0  0
    2.0012    8.0241    0.5243 H   0  0  0  0  0  0  0  0  0  0  0  0
    3.6562    7.1555    2.0958 C   0  0  0  0  0  0  0  0  0  0  0  0
    2.0858    6.0371   -0.1329 O   0  0  0  0  0  0  0  0  0  0  0  0
    0.9174    4.6932    3.7280 C   0  0  0  0  0  0  0  0  0  0  0  0
    0.9644    3.5426    2.6763 C   0  0  0  0  0  0  0  0  0  0  0  0
    1.1131    2.2513    3.2716 N   0  0  0  0  0  0  0  0  0  0  0  0
    2.5548    1.9803    3.5155 C   0  0  0  0  0  0  0  0  0  0  0  0
    0.5700    1.3293    2.2714 C   0  0  0  0  0  0  0  0  0  0  0  0
   -0.8172    1.8375    1.8178 C   0  0  0  0  0  0  0  0  0  0  0  0
   -1.4258    0.8483    0.9031 C   0  0  0  0  0  0  0  0  0  0  0  0
   -2.7801    1.2127    0.4856 N   0  0  0  0  0  0  0  0  0  0  0  0
   -2.9440    2.4659   -0.2862 C   0  0  0  0  0  0  0  0  0  0  0  0
   -2.3309    2.4340   -1.6893 C   0  0  0  0  0  0  0  0  0  0  0  0
   -2.8316    1.2122   -2.4545 C   0  0  0  0  0  0  0  0  0  0  0  0
   -2.5987   -0.0546   -1.6429 C   0  0  0  0  0  0  0  0  0  0  0  0
   -3.2758    0.0629   -0.2741 C   0  0  0  0  0  0  0  0  0  0  0  0
    6.7621    6.6874    7.6739 H   0  0  0  0  0  0  0  0  0  0  0  0
    5.6090    7.0751    6.4167 H   0  0  0  0  0  0  0  0  0  0  0  0
    6.9769    5.9427    6.0769 H   0  0  0  0  0  0  0  0  0  0  0  0
    5.3446    2.6430    7.1854 H   0  0  0  0  0  0  0  0  0  0  0  0
    4.1846    1.2472    5.5366 H   0  0  0  0  0  0  0  0  0  0  0  0
    3.0168    4.9140    1.6951 H   0  0  0  0  0  0  0  0  0  0  0  0
    0.9462    7.1933    2.5145 H   0  0  0  0  0  0  0  0  0  0  0  0
    4.0229    8.1804    2.1588 H   0  0  0  0  0  0  0  0  0  0  0  0
    4.4857    6.4838    1.8177 H   0  0  0  0  0  0  0  0  0  0  0  0
    1.4804    5.3253    0.2142 H   0  0  0  0  0  0  0  0  0  0  0  0
    0.1402    5.3982    3.3792 H   0  0  0  0  0  0  0  0  0  0  0  0
    0.5087    4.3590    4.6811 H   0  0  0  0  0  0  0  0  0  0  0  0
    1.7370    3.4984    1.8780 H   0  0  0  0  0  0  0  0  0  0  0  0
    0.1459    3.8372    2.0266 H   0  0  0  0  0  0  0  0  0  0  0  0
    3.1556    1.9784    2.5897 H   0  0  0  0  0  0  0  0  0  0  0  0
    2.6197    0.9589    3.9095 H   0  0  0  0  0  0  0  0  0  0  0  0
    0.4928    0.3383    2.7216 H   0  0  0  0  0  0  0  0  0  0  0  0
    1.2293    1.2500    1.3905 H   0  0  0  0  0  0  0  0  0  0  0  0
   -0.7572    2.7172    1.1719 H   0  0  0  0  0  0  0  0  0  0  0  0
   -1.4432    2.0885    2.6826 H   0  0  0  0  0  0  0  0  0  0  0  0
   -1.4454   -0.0977    1.4509 H   0  0  0  0  0  0  0  0  0  0  0  0
   -0.7394    0.7403    0.0567 H   0  0  0  0  0  0  0  0  0  0  0  0
   -2.5816    3.3498    0.2554 H   0  0  0  0  0  0  0  0  0  0  0  0
   -4.0228    2.6495   -0.3967 H   0  0  0  0  0  0  0  0  0  0  0  0
   -1.2365    2.4206   -1.6210 H   0  0  0  0  0  0  0  0  0  0  0  0
   -2.5996    3.3438   -2.2415 H   0  0  0  0  0  0  0  0  0  0  0  0
   -2.3305    1.1417   -3.4241 H   0  0  0  0  0  0  0  0  0  0  0  0
   -3.9065    1.3173   -2.6438 H   0  0  0  0  0  0  0  0  0  0  0  0
   -1.5172   -0.2171   -1.5456 H   0  0  0  0  0  0  0  0  0  0  0  0
   -2.9846   -0.9329   -2.1629 H   0  0  0  0  0  0  0  0  0  0  0  0
   -3.0984   -0.8516    0.3061 H   0  0  0  0  0  0  0  0  0  0  0  0
   -4.3607    0.1473   -0.3753 H   0  0  0  0  0  0  0  0  0  0  0  0
  1  2  1  0  0  0  0
  1 32  1  0  0  0  0
  1 33  1  0  0  0  0
  1 34  1  0  0  0  0
  2  3  1  0  0  0  0
  3  4  2  0  0  0  0
  3  8  1  0  0  0  0
  4  5  1  0  0  0  0
  4 35  1  0  0  0  0
  5  6  2  0  0  0  0
  5 36  1  0  0  0  0
  6  7  1  0  0  0  0
  6 22  1  0  0  0  0
  7  8  2  0  0  0  0
  8  9  1  0  0  0  0
  9 10  1  0  0  0  0
 10 11  1  1  0  0  0
 10 12  1  0  0  0  0
 10 17  1  0  0  0  0
 12  7  1  1  0  0  0
 12 13  1  0  0  0  0
 12 19  1  0  0  0  0
 13 14  2  0  0  0  0
 13 37  1  0  0  0  0
 14 15  1  0  0  0  0
 14 38  1  0  0  0  0
 15 17  1  0  0  0  0
 15 18  1  0  0  0  0
 15 16  1  6  0  0  0
 17 39  1  0  0  0  0
 17 40  1  0  0  0  0
 18 41  1  0  0  0  0
 19 20  1  0  0  0  0
 19 42  1  0  0  0  0
 19 43  1  0  0  0  0
 20 21  1  0  0  0  0
 20 44  1  0  0  0  0
 20 45  1  0  0  0  0
 21 22  1  0  0  0  0
 21 23  1  0  0  0  0
 22 46  1  0  0  0  0
 22 47  1  0  0  0  0
 23 24  1  0  0  0  0
 23 48  1  0  0  0  0
 23 49  1  0  0  0  0
 24 25  1  0  0  0  0
 24 50  1  0  0  0  0
 24 51  1  0  0  0  0
 25 26  1  0  0  0  0
 25 52  1  0  0  0  0
 25 53  1  0  0  0  0
 26 27  1  0  0  0  0
 26 31  1  0  0  0  0
 27 28  1  0  0  0  0
 27 54  1  0  0  0  0
 27 55  1  0  0  0  0
 28 29  1  0  0  0  0
 28 56  1  0  0  0  0
 28 57  1  0  0  0  0
 29 30  1  0  0  0  0
 29 58  1  0  0  0  0
 29 59  1  0  0  0  0
 30 31  1  0  0  0  0
 30 60  1  0  0  0  0
 30 61  1  0  0  0  0
 31 62  1  0  0  0  0
 31 63  1  0  0  0  0
M  END
$$$$
