G4G
 OpenBabel04121316123D

 78 82  0  0  1  0  0  0  0  0999 V2000
    1.3687    0.0318    0.1890 N   0  0  0  0  0  0  0  0  0  0  0  0
    2.7404    0.1838    0.2035 C   0  0  0  0  0  0  0  0  0  0  0  0
    3.2460    1.0453    0.9092 O   0  0  0  0  0  0  0  0  0  0  0  0
    3.5921   -0.7170   -0.6755 C   0  0  0  0  0  0  0  0  0  0  0  0
    4.2472   -0.2061   -1.8134 C   0  0  0  0  0  0  0  0  0  0  0  0
    4.7237   -1.0773   -2.8445 C   0  0  0  0  0  0  0  0  0  0  0  0
    4.7393   -2.4755   -2.6631 C   0  0  0  0  0  0  0  0  0  0  0  0
    4.2829   -2.9660   -1.4205 C   0  0  0  0  0  0  0  0  0  0  0  0
    3.5709   -2.1107   -0.5214 C   0  0  0  0  0  0  0  0  0  0  0  0
    5.0209   -3.6131   -4.1522 S   0  0  0  0  0  0  0  0  0  0  0  0
    4.4580   -3.0291   -5.3548 O   0  0  0  0  0  0  0  0  0  0  0  0
    6.4407   -3.8792   -4.1669 O   0  0  0  0  0  0  0  0  0  0  0  0
    4.1643   -5.1495   -3.9157 N   0  0  0  0  0  0  0  0  0  0  0  0
    2.6675   -5.2905   -3.6419 C   0  0  1  0  0  0  0  0  0  0  0  0
    2.1102   -5.4835   -4.5677 H   0  0  0  0  0  0  0  0  0  0  0  0
    2.5020   -6.4491   -2.5234 C   0  0  0  0  0  0  0  0  0  0  0  0
    1.1543   -6.3101   -2.0636 N   0  0  0  0  0  0  0  0  0  0  0  0
    1.1311   -4.9024   -1.9840 C   0  0  0  0  0  0  0  0  0  0  0  0
    1.9331   -4.1499   -2.9662 C   0  0  2  0  0  0  0  0  0  0  0  0
    2.6477   -3.5885   -2.4493 H   0  0  0  0  0  0  0  0  0  0  0  0
    1.0990   -3.1046   -3.6759 N   0  0  0  0  0  0  0  0  0  0  0  0
    0.4651   -1.7944   -2.7213 S   0  0  0  0  0  0  0  0  0  0  0  0
    1.5608   -1.1229   -2.1446 O   0  0  0  0  0  0  0  0  0  0  0  0
   -0.4437   -1.0094   -3.5614 O   0  0  0  0  0  0  0  0  0  0  0  0
   -0.5136   -2.3078   -1.3502 C   0  0  0  0  0  0  0  0  0  0  0  0
   -0.3482   -3.4395   -0.6031 C   0  0  0  0  0  0  0  0  0  0  0  0
   -1.4237   -4.1617   -0.1944 C   0  0  0  0  0  0  0  0  0  0  0  0
   -2.3987   -3.3634    0.3089 C   0  0  0  0  0  0  0  0  0  0  0  0
   -2.2815   -1.9647    0.1580 C   0  0  0  0  0  0  0  0  0  0  0  0
   -1.4180   -1.4469   -0.8013 C   0  0  0  0  0  0  0  0  0  0  0  0
   -3.4227   -4.0619    1.0878 C   0  0  0  0  0  0  0  0  0  0  0  0
   -3.4644   -5.2814    1.1724 O   0  0  0  0  0  0  0  0  0  0  0  0
   -4.3241   -3.2570    1.6894 N   0  0  0  0  0  0  0  0  0  0  0  0
    2.0382   -2.5310   -4.6442 C   0  0  0  0  0  0  0  0  0  0  0  0
    1.7166   -1.3852   -5.4993 C   0  0  0  0  0  0  0  0  0  0  0  0
    1.1273   -1.6919   -6.7090 C   0  0  0  0  0  0  0  0  0  0  0  0
    0.9778   -0.6841   -7.6257 C   0  0  0  0  0  0  0  0  0  0  0  0
    1.2846    0.6330   -7.2672 C   0  0  0  0  0  0  0  0  0  0  0  0
    1.7825    0.9502   -6.0051 C   0  0  0  0  0  0  0  0  0  0  0  0
    2.0849   -0.0776   -5.1447 C   0  0  0  0  0  0  0  0  0  0  0  0
    4.4675   -6.0808   -5.1028 C   0  0  0  0  0  0  0  0  0  0  0  0
    4.1585   -7.5647   -4.9058 C   0  0  0  0  0  0  0  0  0  0  0  0
    5.1745   -8.5106   -4.9518 C   0  0  0  0  0  0  0  0  0  0  0  0
    4.8700   -9.8691   -4.7993 C   0  0  0  0  0  0  0  0  0  0  0  0
    3.6244  -10.2746   -4.3292 C   0  0  0  0  0  0  0  0  0  0  0  0
    2.6405   -9.3329   -4.1771 C   0  0  0  0  0  0  0  0  0  0  0  0
    2.8595   -8.0640   -4.7152 C   0  0  0  0  0  0  0  0  0  0  0  0
    0.7961    0.7317    0.6502 H   0  0  0  0  0  0  0  0  0  0  0  0
    0.9602   -0.3810   -0.6363 H   0  0  0  0  0  0  0  0  0  0  0  0
    4.2435    0.8694   -1.9823 H   0  0  0  0  0  0  0  0  0  0  0  0
    4.9641   -0.6481   -3.8192 H   0  0  0  0  0  0  0  0  0  0  0  0
    4.2147   -4.0402   -1.2546 H   0  0  0  0  0  0  0  0  0  0  0  0
    2.8575   -2.5412    0.1863 H   0  0  0  0  0  0  0  0  0  0  0  0
    3.2629   -6.3742   -1.7410 H   0  0  0  0  0  0  0  0  0  0  0  0
    2.4572   -7.4917   -2.7407 H   0  0  0  0  0  0  0  0  0  0  0  0
    0.9854   -6.7295   -1.1479 H   0  0  0  0  0  0  0  0  0  0  0  0
    1.6667   -4.7067   -1.0474 H   0  0  0  0  0  0  0  0  0  0  0  0
    0.1066   -4.6827   -2.2147 H   0  0  0  0  0  0  0  0  0  0  0  0
    0.5888   -3.7694   -0.2102 H   0  0  0  0  0  0  0  0  0  0  0  0
   -1.3686   -5.2362   -0.0236 H   0  0  0  0  0  0  0  0  0  0  0  0
   -2.8403   -1.2660    0.7568 H   0  0  0  0  0  0  0  0  0  0  0  0
   -1.3945   -0.3923   -1.0558 H   0  0  0  0  0  0  0  0  0  0  0  0
   -4.3156   -2.2571    1.5842 H   0  0  0  0  0  0  0  0  0  0  0  0
   -5.0940   -3.7027    2.1579 H   0  0  0  0  0  0  0  0  0  0  0  0
    2.3125   -3.3605   -5.2971 H   0  0  0  0  0  0  0  0  0  0  0  0
    2.8893   -2.1731   -4.0898 H   0  0  0  0  0  0  0  0  0  0  0  0
    0.8493   -2.7223   -6.9164 H   0  0  0  0  0  0  0  0  0  0  0  0
    0.6080   -0.9360   -8.6096 H   0  0  0  0  0  0  0  0  0  0  0  0
    1.1216    1.4248   -7.9846 H   0  0  0  0  0  0  0  0  0  0  0  0
    1.9355    1.9764   -5.6884 H   0  0  0  0  0  0  0  0  0  0  0  0
    2.5730    0.1460   -4.1986 H   0  0  0  0  0  0  0  0  0  0  0  0
    5.5281   -5.9801   -5.3520 H   0  0  0  0  0  0  0  0  0  0  0  0
    3.8894   -5.7447   -5.9728 H   0  0  0  0  0  0  0  0  0  0  0  0
    6.1956   -8.2059   -5.1624 H   0  0  0  0  0  0  0  0  0  0  0  0
    5.6162  -10.6176   -5.0337 H   0  0  0  0  0  0  0  0  0  0  0  0
    3.3983  -11.3126   -4.1162 H   0  0  0  0  0  0  0  0  0  0  0  0
    1.7199   -9.5545   -3.6338 H   0  0  0  0  0  0  0  0  0  0  0  0
    1.9836   -7.4242   -4.7601 H   0  0  0  0  0  0  0  0  0  0  0  0
  1  2  1  0  0  0  0
  1 48  1  0  0  0  0
  1 49  1  0  0  0  0
  2  3  2  0  0  0  0
  2  4  1  0  0  0  0
  4  5  2  0  0  0  0
  4  9  1  0  0  0  0
  5  6  1  0  0  0  0
  5 50  1  0  0  0  0
  6  7  2  0  0  0  0
  6 51  1  0  0  0  0
  7  8  1  0  0  0  0
  7 10  1  0  0  0  0
  8  9  2  0  0  0  0
  8 52  1  0  0  0  0
  9 53  1  0  0  0  0
 10 11  2  0  0  0  0
 10 12  2  0  0  0  0
 10 13  1  0  0  0  0
 13 14  1  0  0  0  0
 13 41  1  0  0  0  0
 14 15  1  6  0  0  0
 14 16  1  0  0  0  0
 14 19  1  0  0  0  0
 16 17  1  0  0  0  0
 16 54  1  0  0  0  0
 16 55  1  0  0  0  0
 17 18  1  0  0  0  0
 17 56  1  0  0  0  0
 18 19  1  0  0  0  0
 18 57  1  0  0  0  0
 18 58  1  0  0  0  0
 19 20  1  1  0  0  0
 19 21  1  0  0  0  0
 21 22  1  0  0  0  0
 21 34  1  0  0  0  0
 22 23  2  0  0  0  0
 22 24  2  0  0  0  0
 22 25  1  0  0  0  0
 25 26  2  0  0  0  0
 25 30  1  0  0  0  0
 26 27  1  0  0  0  0
 26 59  1  0  0  0  0
 27 28  2  0  0  0  0
 27 60  1  0  0  0  0
 28 29  1  0  0  0  0
 28 31  1  0  0  0  0
 29 30  2  0  0  0  0
 29 61  1  0  0  0  0
 30 62  1  0  0  0  0
 31 32  2  0  0  0  0
 31 33  1  0  0  0  0
 33 63  1  0  0  0  0
 33 64  1  0  0  0  0
 34 35  1  0  0  0  0
 34 65  1  0  0  0  0
 34 66  1  0  0  0  0
 35 36  2  0  0  0  0
 35 40  1  0  0  0  0
 36 37  1  0  0  0  0
 36 67  1  0  0  0  0
 37 38  2  0  0  0  0
 37 68  1  0  0  0  0
 38 39  1  0  0  0  0
 38 69  1  0  0  0  0
 39 40  2  0  0  0  0
 39 70  1  0  0  0  0
 40 71  1  0  0  0  0
 41 42  1  0  0  0  0
 41 72  1  0  0  0  0
 41 73  1  0  0  0  0
 42 43  2  0  0  0  0
 42 47  1  0  0  0  0
 43 44  1  0  0  0  0
 43 74  1  0  0  0  0
 44 45  2  0  0  0  0
 44 75  1  0  0  0  0
 45 46  1  0  0  0  0
 45 76  1  0  0  0  0
 46 47  2  0  0  0  0
 46 77  1  0  0  0  0
 47 78  1  0  0  0  0
M  END
$$$$
