G4M
 OpenBabel04121316123D

 89 93  0  0  1  0  0  0  0  0999 V2000
    2.3297    0.6172    1.4380 O   0  0  0  0  0  0  0  0  0  0  0  0
    1.8901    0.5272    0.0613 C   0  0  2  0  0  0  0  0  0  0  0  0
    0.8398    0.7713    0.2123 H   0  0  0  0  0  0  0  0  0  0  0  0
    2.1013   -1.0028   -0.5938 C   0  0  2  0  0  0  0  0  0  0  0  0
    2.9267   -0.6291   -1.0219 H   0  0  0  0  0  0  0  0  0  0  0  0
    2.2694   -1.5068   -2.0619 O   0  0  0  0  0  0  0  0  0  0  0  0
    2.8459   -0.3385   -3.0440 C   0  0  1  0  0  0  0  0  0  0  0  0
    2.4226   -0.6777   -3.9998 H   0  0  0  0  0  0  0  0  0  0  0  0
    2.2884    1.0126   -2.5241 C   0  0  2  0  0  0  0  0  0  0  0  0
    2.7159    1.7575   -3.1969 H   0  0  0  0  0  0  0  0  0  0  0  0
    2.5883    1.5438   -1.0500 C   0  0  2  0  0  0  0  0  0  0  0  0
    2.1313    2.5111   -0.8825 H   0  0  0  0  0  0  0  0  0  0  0  0
    3.9705    1.9508   -0.8602 O   0  0  0  0  0  0  0  0  0  0  0  0
    0.8447    0.9541   -2.6961 N   0  0  0  0  0  0  0  0  0  0  0  0
    0.1746   -0.2287   -2.1627 C   0  0  0  0  0  0  0  0  0  0  0  0
   -1.2606   -0.3338   -1.9619 C   0  0  0  0  0  0  0  0  0  0  0  0
   -1.7907   -1.3598   -1.1405 C   0  0  0  0  0  0  0  0  0  0  0  0
   -3.1584   -1.4992   -1.2083 C   0  0  0  0  0  0  0  0  0  0  0  0
   -3.9436   -0.7119   -1.9851 N   0  0  0  0  0  0  0  0  0  0  0  0
   -3.3485    0.2932   -2.6877 C   0  0  0  0  0  0  0  0  0  0  0  0
   -2.0184    0.5480   -2.6633 C   0  0  0  0  0  0  0  0  0  0  0  0
   -1.4065    1.6052   -3.2582 O   0  0  0  0  0  0  0  0  0  0  0  0
   -4.1377    1.1705   -3.5831 C   0  0  0  0  0  0  0  0  0  0  0  0
   -0.9850   -2.2802   -0.2397 C   0  0  0  0  0  0  0  0  0  0  0  0
    0.4275   -1.9449   -0.1553 O   0  0  0  0  0  0  0  0  0  0  0  0
    1.3083   -3.0033    0.8920 P   0  0  0  0  0  0  0  0  0  0  0  0
    0.9260   -4.2302    0.0650 O   0  0  0  0  0  0  0  0  0  0  0  0
    0.3317   -2.5194    2.1055 O   0  0  0  0  0  0  0  0  0  0  0  0
    2.1890   -4.0617    1.9394 O   0  0  0  0  0  0  0  0  0  0  0  0
    4.4360   -0.1205   -3.4347 C   0  0  0  0  0  0  0  0  0  0  0  0
    2.3945   -2.3075    0.5622 O   0  0  0  0  0  0  0  0  0  0  0  0
    2.9154   -1.9537    2.1736 P   0  0  1  0  0  0  0  0  0  0  0  0
    3.8431   -3.1980    2.4190 O   0  0  0  0  0  0  0  0  0  0  0  0
    4.4120   -1.3440    1.5559 O   0  0  0  0  0  0  0  0  0  0  0  0
    4.4197   -1.4743   -0.1692 P   0  0  1  0  0  0  0  0  0  0  0  0
    4.0506   -0.0324    0.0112 O   0  0  0  0  0  0  0  0  0  0  0  0
    6.0306   -0.8286   -0.1416 O   0  0  0  0  0  0  0  0  0  0  0  0
    6.1923    0.1789    0.9980 C   0  0  0  0  0  0  0  0  0  0  0  0
    7.1504    1.3734    0.9254 C   0  0  1  0  0  0  0  0  0  0  0  0
    7.5928    1.4333   -0.0689 H   0  0  0  0  0  0  0  0  0  0  0  0
    6.6366    2.7113    1.2663 O   0  0  0  0  0  0  0  0  0  0  0  0
    7.8246    3.4615    1.7085 C   0  0  2  0  0  0  0  0  0  0  0  0
    8.3853    3.7701    0.8183 H   0  0  0  0  0  0  0  0  0  0  0  0
    8.5867    2.4602    2.5698 C   0  0  1  0  0  0  0  0  0  0  0  0
    8.3017    2.5734    3.6254 H   0  0  0  0  0  0  0  0  0  0  0  0
    8.0956    1.1110    2.0837 C   0  0  2  0  0  0  0  0  0  0  0  0
    7.5526    0.6696    2.9363 H   0  0  0  0  0  0  0  0  0  0  0  0
    9.0800    0.1882    1.6636 O   0  0  0  0  0  0  0  0  0  0  0  0
   10.0008    2.5531    2.4776 O   0  0  0  0  0  0  0  0  0  0  0  0
    7.4943    4.6945    2.4324 N   0  0  0  0  0  0  0  0  0  0  0  0
    6.2487    5.2740    2.4728 C   0  0  0  0  0  0  0  0  0  0  0  0
    6.2238    6.3784    3.1900 N   0  0  0  0  0  0  0  0  0  0  0  0
    7.5128    6.5333    3.6183 C   0  0  0  0  0  0  0  0  0  0  0  0
    8.3366    5.5265    3.1612 C   0  0  0  0  0  0  0  0  0  0  0  0
    9.6775    5.3910    3.4069 N   0  0  0  0  0  0  0  0  0  0  0  0
   10.1732    6.3470    4.1649 C   0  0  0  0  0  0  0  0  0  0  0  0
   11.4847    6.3743    4.5118 N   0  0  0  0  0  0  0  0  0  0  0  0
    9.4314    7.3907    4.6758 N   0  0  0  0  0  0  0  0  0  0  0  0
    9.8533    8.0951    5.2578 H   0  0  0  0  0  0  0  0  0  0  0  0
    8.0664    7.5862    4.4606 C   0  0  0  0  0  0  0  0  0  0  0  0
    7.4719    8.5173    4.9358 O   0  0  0  0  0  0  0  0  0  0  0  0
    4.4274   -1.6047   -1.8942 O   0  0  0  0  0  0  0  0  0  0  0  0
    3.4363   -1.5999    3.7849 O   0  0  0  0  0  0  0  0  0  0  0  0
    3.3108    0.7130    1.3404 H   0  0  0  0  0  0  0  0  0  0  0  0
    4.4942    1.9305   -1.6784 H   0  0  0  0  0  0  0  0  0  0  0  0
    0.4352    1.7605   -2.2261 H   0  0  0  0  0  0  0  0  0  0  0  0
    0.3211   -0.1485   -1.1255 H   0  0  0  0  0  0  0  0  0  0  0  0
    0.4165   -1.1802   -2.6312 H   0  0  0  0  0  0  0  0  0  0  0  0
   -3.6743   -2.2775   -0.6507 H   0  0  0  0  0  0  0  0  0  0  0  0
   -1.9049    2.0120   -3.9729 H   0  0  0  0  0  0  0  0  0  0  0  0
   -5.1810    0.8882   -3.5599 H   0  0  0  0  0  0  0  0  0  0  0  0
   -3.7385    1.0698   -4.6015 H   0  0  0  0  0  0  0  0  0  0  0  0
   -4.0027    2.2069   -3.2539 H   0  0  0  0  0  0  0  0  0  0  0  0
   -1.0906   -3.3208   -0.5604 H   0  0  0  0  0  0  0  0  0  0  0  0
   -1.4087   -2.2000    0.7707 H   0  0  0  0  0  0  0  0  0  0  0  0
    0.3296   -1.5329    2.1340 H   0  0  0  0  0  0  0  0  0  0  0  0
    2.7075   -4.6804    1.3886 H   0  0  0  0  0  0  0  0  0  0  0  0
    4.9238   -1.0416   -3.8177 H   0  0  0  0  0  0  0  0  0  0  0  0
    5.0264    0.2121   -2.5616 H   0  0  0  0  0  0  0  0  0  0  0  0
    4.6414    0.6482   -4.1779 H   0  0  0  0  0  0  0  0  0  0  0  0
    6.5049   -0.5188    1.7741 H   0  0  0  0  0  0  0  0  0  0  0  0
    5.2820    0.6442    1.4144 H   0  0  0  0  0  0  0  0  0  0  0  0
    9.7521    0.1805    2.3626 H   0  0  0  0  0  0  0  0  0  0  0  0
   10.2230    3.4699    2.7386 H   0  0  0  0  0  0  0  0  0  0  0  0
    5.3958    4.8450    1.9634 H   0  0  0  0  0  0  0  0  0  0  0  0
   12.1088    5.6602    4.1610 H   0  0  0  0  0  0  0  0  0  0  0  0
   11.8948    7.1052    5.0781 H   0  0  0  0  0  0  0  0  0  0  0  0
    3.9236   -2.4081   -2.1496 H   0  0  0  0  0  0  0  0  0  0  0  0
    2.9876   -2.2277    4.3820 H   0  0  0  0  0  0  0  0  0  0  0  0
  1 64  1  0  0  0  0
  2  4  1  0  0  0  0
  2 11  1  0  0  0  0
  2  3  1  6  0  0  0
  2  1  1  0  0  0  0
  4  5  1  1  0  0  0
  4  6  1  0  0  0  0
  4 31  1  0  0  0  0
  6  7  1  0  0  0  0
  7  8  1  6  0  0  0
  7  9  1  0  0  0  0
  7 30  1  0  0  0  0
  9 11  1  0  0  0  0
  9 14  1  0  0  0  0
  9 10  1  6  0  0  0
 11 12  1  1  0  0  0
 11 13  1  0  0  0  0
 13 65  1  0  0  0  0
 14 15  1  0  0  0  0
 14 66  1  0  0  0  0
 15 16  1  0  0  0  0
 15 67  1  0  0  0  0
 15 68  1  0  0  0  0
 16 17  2  0  0  0  0
 16 21  1  0  0  0  0
 17 18  1  0  0  0  0
 17 24  1  0  0  0  0
 18 19  2  0  0  0  0
 18 69  1  0  0  0  0
 19 20  1  0  0  0  0
 20 21  2  0  0  0  0
 20 23  1  0  0  0  0
 21 22  1  0  0  0  0
 22 70  1  0  0  0  0
 23 71  1  0  0  0  0
 23 72  1  0  0  0  0
 23 73  1  0  0  0  0
 24 25  1  0  0  0  0
 24 74  1  0  0  0  0
 24 75  1  0  0  0  0
 25 26  1  0  0  0  0
 26 27  2  0  0  0  0
 26 28  1  0  0  0  0
 26 29  1  0  0  0  0
 28 76  1  0  0  0  0
 29 77  1  0  0  0  0
 30 78  1  0  0  0  0
 30 79  1  0  0  0  0
 30 80  1  0  0  0  0
 32 31  1  6  0  0  0
 32 33  2  0  0  0  0
 32 34  1  0  0  0  0
 32 63  1  0  0  0  0
 35 34  1  1  0  0  0
 35 36  2  0  0  0  0
 35 37  1  0  0  0  0
 35 62  1  0  0  0  0
 37 38  1  0  0  0  0
 38 39  1  0  0  0  0
 38 81  1  0  0  0  0
 38 82  1  0  0  0  0
 39 40  1  6  0  0  0
 39 41  1  0  0  0  0
 39 46  1  0  0  0  0
 41 42  1  0  0  0  0
 42 44  1  0  0  0  0
 42 50  1  0  0  0  0
 42 43  1  6  0  0  0
 44 45  1  1  0  0  0
 44 46  1  0  0  0  0
 44 49  1  0  0  0  0
 46 47  1  1  0  0  0
 46 48  1  0  0  0  0
 48 83  1  0  0  0  0
 49 84  1  0  0  0  0
 50 51  1  0  0  0  0
 50 54  1  0  0  0  0
 51 52  2  0  0  0  0
 51 85  1  0  0  0  0
 52 53  1  0  0  0  0
 53 54  2  0  0  0  0
 53 60  1  0  0  0  0
 54 55  1  0  0  0  0
 55 56  2  0  0  0  0
 56 57  1  0  0  0  0
 56 58  1  0  0  0  0
 57 86  1  0  0  0  0
 57 87  1  0  0  0  0
 58 59  1  0  0  0  0
 58 60  1  0  0  0  0
 60 61  2  0  0  0  0
 62 88  1  0  0  0  0
 63 89  1  0  0  0  0
M  END
$$$$
