G5P
 OpenBabel04121316123D

 87 92  0  0  1  0  0  0  0  0999 V2000
    3.5792  -17.9563   -2.8752 N   0  0  0  0  0  0  0  0  0  0  0  0
    2.4517  -18.6466   -2.8157 C   0  0  0  0  0  0  0  0  0  0  0  0
    2.3892  -19.4741   -1.7757 N   0  0  0  0  0  0  0  0  0  0  0  0
    3.2488  -19.5039   -1.2487 H   0  0  0  0  0  0  0  0  0  0  0  0
    1.6803  -20.5584   -2.1159 C   0  0  0  0  0  0  0  0  0  0  0  0
    2.1862  -21.6956   -1.8757 O   0  0  0  0  0  0  0  0  0  0  0  0
    0.4578  -20.2752   -2.8911 C   0  0  0  0  0  0  0  0  0  0  0  0
    0.3796  -19.0356   -3.4874 C   0  0  0  0  0  0  0  0  0  0  0  0
    1.5207  -18.3399   -3.6523 N   0  0  0  0  0  0  0  0  0  0  0  0
   -0.9278  -18.8537   -3.9538 N   0  0  0  0  0  0  0  0  0  0  0  0
   -1.2974  -20.1851   -4.1029 C   0  0  0  0  0  0  0  0  0  0  0  0
   -0.5275  -21.0348   -3.4367 N   0  0  0  0  0  0  0  0  0  0  0  0
   -1.7783  -17.7299   -4.4809 C   0  0  2  0  0  0  0  0  0  0  0  0
   -2.3659  -18.1850   -5.2899 H   0  0  0  0  0  0  0  0  0  0  0  0
   -0.9852  -16.6933   -5.0547 O   0  0  0  0  0  0  0  0  0  0  0  0
   -0.8347  -15.6849   -4.0021 C   0  0  1  0  0  0  0  0  0  0  0  0
   -0.5677  -14.8144   -4.5699 H   0  0  0  0  0  0  0  0  0  0  0  0
   -2.1238  -15.4858   -3.3074 C   0  0  2  0  0  0  0  0  0  0  0  0
   -1.9581  -15.3277   -2.2337 H   0  0  0  0  0  0  0  0  0  0  0  0
   -2.8003  -16.8333   -3.6275 C   0  0  1  0  0  0  0  0  0  0  0  0
   -3.1184  -17.3325   -2.7147 H   0  0  0  0  0  0  0  0  0  0  0  0
   -3.9635  -16.5091   -4.4175 O   0  0  0  0  0  0  0  0  0  0  0  0
   -2.7275  -14.2866   -3.7990 O   0  0  0  0  0  0  0  0  0  0  0  0
    0.0550  -16.2473   -2.9125 C   0  0  0  0  0  0  0  0  0  0  0  0
    0.8275  -15.4755   -1.9986 O   0  0  0  0  0  0  0  0  0  0  0  0
    1.9456  -16.2123   -0.9032 P   0  0  1  0  0  0  0  0  0  0  0  0
    1.0845  -17.4351   -0.6741 O   0  0  0  0  0  0  0  0  0  0  0  0
    3.1288  -16.2400   -1.8775 O   0  0  0  0  0  0  0  0  0  0  0  0
    3.4765  -15.2078   -2.9194 P   0  0  1  0  0  0  0  0  0  0  0  0
    2.1126  -15.3601   -3.3358 O   0  0  0  0  0  0  0  0  0  0  0  0
    2.9350  -13.2654   -2.3711 O   0  0  0  0  0  0  0  0  0  0  0  0
    3.6091  -13.6071   -0.8148 P   0  0  1  0  0  0  0  0  0  0  0  0
    4.3475  -14.9193   -0.9392 O   0  0  0  0  0  0  0  0  0  0  0  0
    4.9197  -12.8181   -1.4513 O   0  0  0  0  0  0  0  0  0  0  0  0
    4.8336  -12.0251   -2.8824 P   0  0  2  0  0  0  0  0  0  0  0  0
    3.9853  -10.8094   -2.7248 O   0  0  0  0  0  0  0  0  0  0  0  0
    4.4502  -13.1147   -4.1214 O   0  0  0  0  0  0  0  0  0  0  0  0
    2.7738  -13.5208   -4.2539 P   0  0  1  0  0  0  0  0  0  0  0  0
    2.3996  -12.1079   -4.7220 O   0  0  0  0  0  0  0  0  0  0  0  0
    3.3206  -14.1584   -5.7792 O   0  0  0  0  0  0  0  0  0  0  0  0
    4.7484  -14.6461   -5.8869 C   0  0  0  0  0  0  0  0  0  0  0  0
    4.9232  -15.8418   -6.8194 C   0  0  1  0  0  0  0  0  0  0  0  0
    4.8545  -15.4334   -7.8310 H   0  0  0  0  0  0  0  0  0  0  0  0
    6.2173  -16.4230   -6.6463 O   0  0  0  0  0  0  0  0  0  0  0  0
    6.1528  -17.7143   -7.3042 C   0  0  2  0  0  0  0  0  0  0  0  0
    6.2069  -17.5617   -8.3904 H   0  0  0  0  0  0  0  0  0  0  0  0
    4.7978  -18.2871   -6.9406 C   0  0  1  0  0  0  0  0  0  0  0  0
    4.8492  -18.9125   -6.0395 H   0  0  0  0  0  0  0  0  0  0  0  0
    3.9869  -17.0259   -6.6377 C   0  0  2  0  0  0  0  0  0  0  0  0
    3.7055  -17.1816   -5.6087 H   0  0  0  0  0  0  0  0  0  0  0  0
    2.8274  -16.8649   -7.4313 O   0  0  0  0  0  0  0  0  0  0  0  0
    4.1868  -19.0473   -7.9771 O   0  0  0  0  0  0  0  0  0  0  0  0
    7.3528  -18.4314   -6.9578 N   0  0  0  0  0  0  0  0  0  0  0  0
    7.6003  -19.6867   -6.4830 C   0  0  0  0  0  0  0  0  0  0  0  0
    8.9011  -19.9121   -6.3704 N   0  0  0  0  0  0  0  0  0  0  0  0
    9.5091  -18.7447   -6.8029 C   0  0  0  0  0  0  0  0  0  0  0  0
    8.5580  -17.8335   -7.1889 C   0  0  0  0  0  0  0  0  0  0  0  0
    8.7382  -16.6030   -7.6859 N   0  0  0  0  0  0  0  0  0  0  0  0
   10.0289  -16.2818   -7.7383 C   0  0  0  0  0  0  0  0  0  0  0  0
   11.0760  -17.0574   -7.4003 N   0  0  0  0  0  0  0  0  0  0  0  0
   10.8362  -18.3120   -6.9367 C   0  0  0  0  0  0  0  0  0  0  0  0
   11.9126  -19.0998   -6.6143 N   0  0  0  0  0  0  0  0  0  0  0  0
    1.0974  -13.9270   -4.3865 O   0  0  0  0  0  0  0  0  0  0  0  0
    6.3791  -11.7571   -3.1843 O   0  0  0  0  0  0  0  0  0  0  0  0
    4.2831  -13.9487    0.7414 O   0  0  0  0  0  0  0  0  0  0  0  0
    3.1268  -15.7790   -4.4265 O   0  0  0  0  0  0  0  0  0  0  0  0
    3.0637  -16.9490    0.1922 O   0  0  0  0  0  0  0  0  0  0  0  0
    3.8579  -17.6164   -1.9301 H   0  0  0  0  0  0  0  0  0  0  0  0
    3.0128  -17.1626   -3.2233 H   0  0  0  0  0  0  0  0  0  0  0  0
   -2.1267  -20.4652   -4.7322 H   0  0  0  0  0  0  0  0  0  0  0  0
   -3.6827  -15.8819   -5.1142 H   0  0  0  0  0  0  0  0  0  0  0  0
   -2.5407  -14.1988   -4.7515 H   0  0  0  0  0  0  0  0  0  0  0  0
    0.7098  -16.6396   -3.6466 H   0  0  0  0  0  0  0  0  0  0  0  0
   -0.4545  -17.0141   -2.3400 H   0  0  0  0  0  0  0  0  0  0  0  0
    5.2684  -14.9122   -4.9310 H   0  0  0  0  0  0  0  0  0  0  0  0
    5.3370  -13.7954   -6.2573 H   0  0  0  0  0  0  0  0  0  0  0  0
    2.3169  -17.6853   -7.3169 H   0  0  0  0  0  0  0  0  0  0  0  0
    4.7818  -19.7734   -8.2239 H   0  0  0  0  0  0  0  0  0  0  0  0
    6.8380  -20.4163   -6.2292 H   0  0  0  0  0  0  0  0  0  0  0  0
   10.2382  -15.2788   -8.0935 H   0  0  0  0  0  0  0  0  0  0  0  0
   12.8342  -18.7174   -6.7452 H   0  0  0  0  0  0  0  0  0  0  0  0
   11.7445  -20.0341   -6.2730 H   0  0  0  0  0  0  0  0  0  0  0  0
    0.6356  -13.2170   -3.9002 H   0  0  0  0  0  0  0  0  0  0  0  0
    6.5135  -11.4398   -4.0945 H   0  0  0  0  0  0  0  0  0  0  0  0
    4.0319  -14.8484    1.0263 H   0  0  0  0  0  0  0  0  0  0  0  0
    2.1167  -15.5904   -4.7358 H   0  0  0  0  0  0  0  0  0  0  0  0
    2.5157  -17.3849    0.8802 H   0  0  0  0  0  0  0  0  0  0  0  0
  1  2  1  0  0  0  0
  1 68  1  0  0  0  0
  1 69  1  0  0  0  0
  2  3  1  0  0  0  0
  2  9  2  0  0  0  0
  3  4  1  0  0  0  0
  3  5  1  0  0  0  0
  5  6  2  0  0  0  0
  5  7  1  0  0  0  0
  7  8  2  0  0  0  0
  7 12  1  0  0  0  0
  8  9  1  0  0  0  0
  8 10  1  0  0  0  0
 10 11  1  0  0  0  0
 11 12  2  0  0  0  0
 11 70  1  0  0  0  0
 13 15  1  0  0  0  0
 13 20  1  0  0  0  0
 13 14  1  6  0  0  0
 13 10  1  0  0  0  0
 15 16  1  0  0  0  0
 16 17  1  6  0  0  0
 16 18  1  0  0  0  0
 16 24  1  0  0  0  0
 18 20  1  0  0  0  0
 18 23  1  0  0  0  0
 18 19  1  1  0  0  0
 20 22  1  0  0  0  0
 20 21  1  1  0  0  0
 22 71  1  0  0  0  0
 23 72  1  0  0  0  0
 24 25  1  0  0  0  0
 24 73  1  0  0  0  0
 24 74  1  0  0  0  0
 26 25  1  1  0  0  0
 26 27  2  0  0  0  0
 26 28  1  0  0  0  0
 26 67  1  0  0  0  0
 29 28  1  1  0  0  0
 29 30  2  0  0  0  0
 29 31  1  0  0  0  0
 29 66  1  0  0  0  0
 32 31  1  6  0  0  0
 32 33  2  0  0  0  0
 32 34  1  0  0  0  0
 32 65  1  0  0  0  0
 35 37  1  6  0  0  0
 35 64  1  0  0  0  0
 35 36  2  0  0  0  0
 35 34  1  0  0  0  0
 38 37  1  1  0  0  0
 38 39  2  0  0  0  0
 38 40  1  0  0  0  0
 38 63  1  0  0  0  0
 40 41  1  0  0  0  0
 41 42  1  0  0  0  0
 41 75  1  0  0  0  0
 41 76  1  0  0  0  0
 42 43  1  6  0  0  0
 42 44  1  0  0  0  0
 42 49  1  0  0  0  0
 44 45  1  0  0  0  0
 45 47  1  0  0  0  0
 45 53  1  0  0  0  0
 45 46  1  6  0  0  0
 47 48  1  1  0  0  0
 47 49  1  0  0  0  0
 47 52  1  0  0  0  0
 49 50  1  1  0  0  0
 49 51  1  0  0  0  0
 51 77  1  0  0  0  0
 52 78  1  0  0  0  0
 53 54  1  0  0  0  0
 53 57  1  0  0  0  0
 54 55  2  0  0  0  0
 54 79  1  0  0  0  0
 55 56  1  0  0  0  0
 56 57  2  0  0  0  0
 56 61  1  0  0  0  0
 57 58  1  0  0  0  0
 58 59  2  0  0  0  0
 59 60  1  0  0  0  0
 59 80  1  0  0  0  0
 60 61  2  0  0  0  0
 61 62  1  0  0  0  0
 62 81  1  0  0  0  0
 62 82  1  0  0  0  0
 63 83  1  0  0  0  0
 64 84  1  0  0  0  0
 65 85  1  0  0  0  0
 66 86  1  0  0  0  0
 67 87  1  0  0  0  0
M  END
$$$$
