G69
 OpenBabel04121316123D

 50 52  0  0  1  0  0  0  0  0999 V2000
    1.0394    0.1259    0.0697 O   0  0  0  0  0  0  0  0  0  0  0  0
    2.4597    0.1250    0.0789 C   0  0  0  0  0  0  0  0  0  0  0  0
    2.9532   -0.6513   -1.0779 C   0  0  0  0  0  0  0  0  0  0  0  0
    3.7075   -0.1965   -2.1240 C   0  0  0  0  0  0  0  0  0  0  0  0
    3.7390   -1.1857   -3.0718 N   0  0  0  0  0  0  0  0  0  0  0  0
    3.2421   -2.3514   -2.5854 N   0  0  0  0  0  0  0  0  0  0  0  0
    2.7742   -2.0298   -1.3535 C   0  0  0  0  0  0  0  0  0  0  0  0
    2.1827   -3.0171   -0.3850 C   0  0  0  0  0  0  0  0  0  0  0  0
    1.0509   -3.6088   -0.8418 F   0  0  0  0  0  0  0  0  0  0  0  0
    3.0657   -4.0080   -0.0803 F   0  0  0  0  0  0  0  0  0  0  0  0
    1.8630   -2.4474    0.8141 F   0  0  0  0  0  0  0  0  0  0  0  0
    4.1975   -1.1086   -4.4827 C   0  0  0  0  0  0  0  0  0  0  0  0
    4.5144    0.2971   -4.9583 C   0  0  0  0  0  0  0  0  0  0  0  0
    5.6036    0.6561   -5.7728 C   0  0  0  0  0  0  0  0  0  0  0  0
    5.8928    2.0253   -6.0560 C   0  0  0  0  0  0  0  0  0  0  0  0
    5.1262    3.0269   -5.4620 C   0  0  0  0  0  0  0  0  0  0  0  0
    4.0256    2.6265   -4.7426 C   0  0  0  0  0  0  0  0  0  0  0  0
    3.6585    1.3155   -4.5743 C   0  0  0  0  0  0  0  0  0  0  0  0
    3.3096    3.7041   -4.0429 C   0  0  0  0  0  0  0  0  0  0  0  0
    3.9686    4.9844   -4.5295 C   0  0  2  0  0  0  0  0  0  0  0  0
    3.2632    5.5682   -5.1363 H   0  0  0  0  0  0  0  0  0  0  0  0
    5.1795    4.5402   -5.4572 C   0  0  0  0  0  0  0  0  0  0  0  0
    4.3268    5.8615   -3.3176 N   0  0  0  0  0  0  0  0  0  0  0  0
    2.9496    6.2214   -2.3135 S   0  0  0  0  0  0  0  0  0  0  0  0
    2.0859    7.0466   -3.1191 O   0  0  0  0  0  0  0  0  0  0  0  0
    2.4582    4.9884   -1.7240 O   0  0  0  0  0  0  0  0  0  0  0  0
    3.5953    7.2000   -0.9374 C   0  0  0  0  0  0  0  0  0  0  0  0
    4.2128    8.4986   -1.4201 C   0  0  0  0  0  0  0  0  0  0  0  0
    2.4456    7.5026    0.0354 C   0  0  0  0  0  0  0  0  0  0  0  0
    0.7502    0.5994    0.8659 H   0  0  0  0  0  0  0  0  0  0  0  0
    2.8189   -0.3126    1.0144 H   0  0  0  0  0  0  0  0  0  0  0  0
    2.8064    1.1625    0.0305 H   0  0  0  0  0  0  0  0  0  0  0  0
    4.1072    0.7942   -2.2751 H   0  0  0  0  0  0  0  0  0  0  0  0
    3.3848   -1.5101   -5.1015 H   0  0  0  0  0  0  0  0  0  0  0  0
    5.0660   -1.7713   -4.5457 H   0  0  0  0  0  0  0  0  0  0  0  0
    6.2348   -0.1257   -6.1955 H   0  0  0  0  0  0  0  0  0  0  0  0
    6.7201    2.2565   -6.7225 H   0  0  0  0  0  0  0  0  0  0  0  0
    2.7573    1.1291   -3.9954 H   0  0  0  0  0  0  0  0  0  0  0  0
    3.4853    3.5123   -2.9815 H   0  0  0  0  0  0  0  0  0  0  0  0
    2.2466    3.6653   -4.2846 H   0  0  0  0  0  0  0  0  0  0  0  0
    6.1419    4.9312   -5.1191 H   0  0  0  0  0  0  0  0  0  0  0  0
    4.9920    4.8920   -6.4825 H   0  0  0  0  0  0  0  0  0  0  0  0
    4.7147    6.7445   -3.6585 H   0  0  0  0  0  0  0  0  0  0  0  0
    4.3390    6.5823   -0.4209 H   0  0  0  0  0  0  0  0  0  0  0  0
    3.4804    9.0981   -1.9706 H   0  0  0  0  0  0  0  0  0  0  0  0
    5.0613    8.3086   -2.0811 H   0  0  0  0  0  0  0  0  0  0  0  0
    4.5689    9.0950   -0.5738 H   0  0  0  0  0  0  0  0  0  0  0  0
    1.6468    8.0652   -0.4618 H   0  0  0  0  0  0  0  0  0  0  0  0
    2.7919    8.0933    0.8899 H   0  0  0  0  0  0  0  0  0  0  0  0
    1.9981    6.5821    0.4272 H   0  0  0  0  0  0  0  0  0  0  0  0
  1  2  1  0  0  0  0
  1 30  1  0  0  0  0
  2  3  1  0  0  0  0
  2 31  1  0  0  0  0
  2 32  1  0  0  0  0
  3  4  2  0  0  0  0
  3  7  1  0  0  0  0
  4  5  1  0  0  0  0
  4 33  1  0  0  0  0
  5  6  1  0  0  0  0
  5 12  1  0  0  0  0
  6  7  2  0  0  0  0
  7  8  1  0  0  0  0
  8  9  1  0  0  0  0
  8 10  1  0  0  0  0
  8 11  1  0  0  0  0
 12 13  1  0  0  0  0
 12 34  1  0  0  0  0
 12 35  1  0  0  0  0
 13 14  2  0  0  0  0
 13 18  1  0  0  0  0
 14 15  1  0  0  0  0
 14 36  1  0  0  0  0
 15 16  2  0  0  0  0
 15 37  1  0  0  0  0
 16 17  1  0  0  0  0
 16 22  1  0  0  0  0
 17 18  2  0  0  0  0
 17 19  1  0  0  0  0
 18 38  1  0  0  0  0
 19 20  1  0  0  0  0
 19 39  1  0  0  0  0
 19 40  1  0  0  0  0
 20 21  1  6  0  0  0
 20 22  1  0  0  0  0
 20 23  1  0  0  0  0
 22 41  1  0  0  0  0
 22 42  1  0  0  0  0
 23 24  1  0  0  0  0
 23 43  1  0  0  0  0
 24 25  2  0  0  0  0
 24 26  2  0  0  0  0
 24 27  1  0  0  0  0
 27 28  1  0  0  0  0
 27 29  1  0  0  0  0
 27 44  1  0  0  0  0
 28 45  1  0  0  0  0
 28 46  1  0  0  0  0
 28 47  1  0  0  0  0
 29 48  1  0  0  0  0
 29 49  1  0  0  0  0
 29 50  1  0  0  0  0
M  END
$$$$
