G6A
 OpenBabel04121316123D

 47 50  0  0  0  0  0  0  0  0999 V2000
    1.1051    0.1334   -0.0010 C   0  0  0  0  0  0  0  0  0  0  0  0
    2.5781    0.2084   -0.0007 C   0  0  0  0  0  0  0  0  0  0  0  0
    3.3801    1.2509   -0.0174 N   0  0  0  0  0  0  0  0  0  0  0  0
    4.6749    0.7555   -0.0031 N   0  0  0  0  0  0  0  0  0  0  0  0
    4.5704   -0.5536    0.0452 C   0  0  0  0  0  0  0  0  0  0  0  0
    3.2564   -0.9727    0.0284 O   0  0  0  0  0  0  0  0  0  0  0  0
    5.5702   -1.6057    0.0706 C   0  0  0  0  0  0  0  0  0  0  0  0
    6.9313   -1.4086   -0.1523 C   0  0  0  0  0  0  0  0  0  0  0  0
    7.8270   -2.5093   -0.1843 C   0  0  0  0  0  0  0  0  0  0  0  0
    7.3803   -3.8586   -0.1876 C   0  0  0  0  0  0  0  0  0  0  0  0
    5.9792   -3.9701   -0.0810 C   0  0  0  0  0  0  0  0  0  0  0  0
    5.1406   -2.9034    0.2377 C   0  0  0  0  0  0  0  0  0  0  0  0
    5.1993   -5.1668   -0.4733 C   0  0  0  0  0  0  0  0  0  0  0  0
    8.3144   -5.0457   -0.4689 C   0  0  0  0  0  0  0  0  0  0  0  0
    9.5471   -4.7647   -1.1160 C   0  0  0  0  0  0  0  0  0  0  0  0
   10.3620   -5.7645   -1.6769 C   0  0  0  0  0  0  0  0  0  0  0  0
   10.0296   -7.0995   -1.5007 C   0  0  0  0  0  0  0  0  0  0  0  0
    8.9278   -7.4315   -0.7479 C   0  0  0  0  0  0  0  0  0  0  0  0
    8.0583   -6.4465   -0.2422 C   0  0  0  0  0  0  0  0  0  0  0  0
    6.8690   -7.0984    0.4215 C   0  0  0  0  0  0  0  0  0  0  0  0
   11.5590   -5.4855   -2.5063 C   0  0  0  0  0  0  0  0  0  0  0  0
   12.2017   -6.4337   -2.9792 O   0  0  0  0  0  0  0  0  0  0  0  0
   11.9026   -4.1738   -2.7340 N   0  0  0  0  0  0  0  0  0  0  0  0
   13.0421   -3.8485   -3.5198 C   0  0  0  0  0  0  0  0  0  0  0  0
   13.0263   -4.1086   -5.0005 C   0  0  0  0  0  0  0  0  0  0  0  0
   13.0136   -2.6993   -4.4827 C   0  0  0  0  0  0  0  0  0  0  0  0
    0.6674    1.1353   -0.0020 H   0  0  0  0  0  0  0  0  0  0  0  0
    0.7405   -0.3953    0.8860 H   0  0  0  0  0  0  0  0  0  0  0  0
    0.7405   -0.3986   -0.8856 H   0  0  0  0  0  0  0  0  0  0  0  0
    7.3124   -0.4027   -0.3219 H   0  0  0  0  0  0  0  0  0  0  0  0
    8.8809   -2.2526   -0.2742 H   0  0  0  0  0  0  0  0  0  0  0  0
    4.0966   -3.1256    0.4559 H   0  0  0  0  0  0  0  0  0  0  0  0
    5.8102   -5.6755   -1.2145 H   0  0  0  0  0  0  0  0  0  0  0  0
    4.2823   -4.9814   -1.0315 H   0  0  0  0  0  0  0  0  0  0  0  0
    4.9161   -5.6938    0.4416 H   0  0  0  0  0  0  0  0  0  0  0  0
    9.8623   -3.7370   -1.2262 H   0  0  0  0  0  0  0  0  0  0  0  0
   10.6226   -7.8945   -1.9449 H   0  0  0  0  0  0  0  0  0  0  0  0
    8.7122   -8.4854   -0.5798 H   0  0  0  0  0  0  0  0  0  0  0  0
    7.0315   -8.1345    0.7285 H   0  0  0  0  0  0  0  0  0  0  0  0
    6.0663   -7.2558   -0.3066 H   0  0  0  0  0  0  0  0  0  0  0  0
    6.5737   -6.5433    1.3113 H   0  0  0  0  0  0  0  0  0  0  0  0
   11.3846   -3.4072   -2.3319 H   0  0  0  0  0  0  0  0  0  0  0  0
   13.9719   -4.0433   -2.9921 H   0  0  0  0  0  0  0  0  0  0  0  0
   12.1151   -4.5105   -5.4309 H   0  0  0  0  0  0  0  0  0  0  0  0
   13.9291   -4.5217   -5.4330 H   0  0  0  0  0  0  0  0  0  0  0  0
   12.0941   -2.1367   -4.5909 H   0  0  0  0  0  0  0  0  0  0  0  0
   13.9139   -2.1056   -4.5799 H   0  0  0  0  0  0  0  0  0  0  0  0
  1  2  1  0  0  0  0
  1 27  1  0  0  0  0
  1 28  1  0  0  0  0
  1 29  1  0  0  0  0
  2  3  2  0  0  0  0
  2  6  1  0  0  0  0
  3  4  1  0  0  0  0
  4  5  2  0  0  0  0
  5  6  1  0  0  0  0
  5  7  1  0  0  0  0
  7  8  2  0  0  0  0
  7 12  1  0  0  0  0
  8  9  1  0  0  0  0
  8 30  1  0  0  0  0
  9 10  2  0  0  0  0
  9 31  1  0  0  0  0
 10 11  1  0  0  0  0
 10 14  1  0  0  0  0
 11 12  2  0  0  0  0
 11 13  1  0  0  0  0
 12 32  1  0  0  0  0
 13 33  1  0  0  0  0
 13 34  1  0  0  0  0
 13 35  1  0  0  0  0
 14 15  2  0  0  0  0
 14 19  1  0  0  0  0
 15 16  1  0  0  0  0
 15 36  1  0  0  0  0
 16 17  2  0  0  0  0
 16 21  1  0  0  0  0
 17 18  1  0  0  0  0
 17 37  1  0  0  0  0
 18 19  2  0  0  0  0
 18 38  1  0  0  0  0
 19 20  1  0  0  0  0
 20 39  1  0  0  0  0
 20 40  1  0  0  0  0
 20 41  1  0  0  0  0
 21 22  2  0  0  0  0
 21 23  1  0  0  0  0
 23 24  1  0  0  0  0
 23 42  1  0  0  0  0
 24 25  1  0  0  0  0
 24 26  1  0  0  0  0
 24 43  1  0  0  0  0
 25 26  1  0  0  0  0
 25 44  1  0  0  0  0
 25 45  1  0  0  0  0
 26 46  1  0  0  0  0
 26 47  1  0  0  0  0
M  END
$$$$
