G6D
 OpenBabel04121316123D

 23 23  0  0  1  0  0  0  0  0999 V2000
    2.9689    0.3784    1.3597 O   0  0  0  0  0  0  0  0  0  0  0  0
    2.5251    0.0718    0.0356 C   0  0  2  0  0  0  0  0  0  0  0  0
    1.4282    0.0916    0.0619 H   0  0  0  0  0  0  0  0  0  0  0  0
    3.0077   -1.3261   -0.3818 C   0  0  1  0  0  0  0  0  0  0  0  0
    4.1020   -1.3792   -0.3141 H   0  0  0  0  0  0  0  0  0  0  0  0
    2.4531   -2.3981    0.5509 C   0  0  0  0  0  0  0  0  0  0  0  0
    2.6004   -1.6428   -1.7198 O   0  0  0  0  0  0  0  0  0  0  0  0
    3.0954   -0.7158   -2.6795 C   0  0  1  0  0  0  0  0  0  0  0  0
    2.7548   -1.0277   -3.6731 H   0  0  0  0  0  0  0  0  0  0  0  0
    2.5788    0.7132   -2.3940 C   0  0  1  0  0  0  0  0  0  0  0  0
    1.4830    0.7253   -2.4494 H   0  0  0  0  0  0  0  0  0  0  0  0
    3.0045    1.1296   -0.9760 C   0  0  1  0  0  0  0  0  0  0  0  0
    4.0931    1.2428   -0.9225 H   0  0  0  0  0  0  0  0  0  0  0  0
    2.4732    2.4188   -0.6262 O   0  0  0  0  0  0  0  0  0  0  0  0
    3.0493    1.6672   -3.3532 O   0  0  0  0  0  0  0  0  0  0  0  0
    4.5136   -0.7599   -2.6847 O   0  0  0  0  0  0  0  0  0  0  0  0
    3.9311    0.5158    1.3280 H   0  0  0  0  0  0  0  0  0  0  0  0
    2.7685   -2.2286    1.5853 H   0  0  0  0  0  0  0  0  0  0  0  0
    2.8008   -3.3899    0.2436 H   0  0  0  0  0  0  0  0  0  0  0  0
    1.3587   -2.4186    0.5172 H   0  0  0  0  0  0  0  0  0  0  0  0
    1.5070    2.3754   -0.6679 H   0  0  0  0  0  0  0  0  0  0  0  0
    2.8304    1.3422   -4.2423 H   0  0  0  0  0  0  0  0  0  0  0  0
    4.7435   -1.6490   -3.0023 H   0  0  0  0  0  0  0  0  0  0  0  0
  1 17  1  0  0  0  0
  2  4  1  0  0  0  0
  2 12  1  0  0  0  0
  2  3  1  6  0  0  0
  2  1  1  0  0  0  0
  4  5  1  1  0  0  0
  4  6  1  0  0  0  0
  4  7  1  0  0  0  0
  6 18  1  0  0  0  0
  6 19  1  0  0  0  0
  6 20  1  0  0  0  0
  7  8  1  0  0  0  0
  8  9  1  6  0  0  0
  8 10  1  0  0  0  0
  8 16  1  0  0  0  0
 10 11  1  6  0  0  0
 10 12  1  0  0  0  0
 10 15  1  0  0  0  0
 12 14  1  0  0  0  0
 12 13  1  1  0  0  0
 14 21  1  0  0  0  0
 15 22  1  0  0  0  0
 16 23  1  0  0  0  0
M  END
$$$$
