G88
 OpenBabel04121316123D

 25 24  0  0  1  0  0  0  0  0999 V2000
    1.0287   -0.2021    0.1870 O   0  0  0  0  0  0  0  0  0  0  0  0
    2.3533    0.0210    0.1168 C   0  0  0  0  0  0  0  0  0  0  0  0
    2.8324    1.1393    0.2638 O   0  0  0  0  0  0  0  0  0  0  0  0
    3.0850   -1.2557   -0.1346 C   0  0  0  0  0  0  0  0  0  0  0  0
    4.6026   -1.1015   -0.1749 C   0  0  0  0  0  0  0  0  0  0  0  0
    5.3360   -2.4506   -0.3764 C   0  0  1  0  0  0  0  0  0  0  0  0
    5.0135   -3.1228    0.4248 H   0  0  0  0  0  0  0  0  0  0  0  0
    5.0539   -3.1231   -1.7047 C   0  0  0  0  0  0  0  0  0  0  0  0
    5.8983   -3.2700   -2.5743 O   0  0  0  0  0  0  0  0  0  0  0  0
    3.8019   -3.5912   -1.8658 O   0  0  0  0  0  0  0  0  0  0  0  0
    6.8581   -2.2253   -0.3000 C   0  0  0  0  0  0  0  0  0  0  0  0
    7.9804   -3.5869   -0.0128 P   0  0  0  0  0  0  0  0  0  0  0  0
    9.3029   -3.1272    0.5010 O   0  0  0  0  0  0  0  0  0  0  0  0
    7.1897   -4.4818    1.0584 O   0  0  0  0  0  0  0  0  0  0  0  0
    8.1653   -4.6162   -1.2168 O   0  0  0  0  0  0  0  0  0  0  0  0
    0.6316    0.6556    0.4432 H   0  0  0  0  0  0  0  0  0  0  0  0
    2.7180   -1.6062   -1.1004 H   0  0  0  0  0  0  0  0  0  0  0  0
    2.8083   -1.9662    0.6548 H   0  0  0  0  0  0  0  0  0  0  0  0
    4.9229   -0.6511    0.7781 H   0  0  0  0  0  0  0  0  0  0  0  0
    4.8813   -0.3864   -0.9577 H   0  0  0  0  0  0  0  0  0  0  0  0
    3.1823   -3.5086   -1.1201 H   0  0  0  0  0  0  0  0  0  0  0  0
    7.0338   -1.6317    0.6042 H   0  0  0  0  0  0  0  0  0  0  0  0
    7.2025   -1.5939   -1.1295 H   0  0  0  0  0  0  0  0  0  0  0  0
    6.4064   -4.0585    1.4480 H   0  0  0  0  0  0  0  0  0  0  0  0
    9.0207   -5.0894   -1.0969 H   0  0  0  0  0  0  0  0  0  0  0  0
  1  2  1  0  0  0  0
  1 16  1  0  0  0  0
  2  3  2  0  0  0  0
  2  4  1  0  0  0  0
  4  5  1  0  0  0  0
  4 17  1  0  0  0  0
  4 18  1  0  0  0  0
  5  6  1  0  0  0  0
  5 19  1  0  0  0  0
  5 20  1  0  0  0  0
  6  7  1  1  0  0  0
  6  8  1  0  0  0  0
  6 11  1  0  0  0  0
  8  9  2  0  0  0  0
  8 10  1  0  0  0  0
 10 21  1  0  0  0  0
 11 12  1  0  0  0  0
 11 22  1  0  0  0  0
 11 23  1  0  0  0  0
 12 13  2  0  0  0  0
 12 14  1  0  0  0  0
 12 15  1  0  0  0  0
 14 24  1  0  0  0  0
 15 25  1  0  0  0  0
M  END
$$$$
