G9F
 OpenBabel04121316123D

 51 54  0  0  0  0  0  0  0  0999 V2000
    1.0546    0.0151    0.0061 C   0  0  0  0  0  0  0  0  0  0  0  0
    2.5197   -0.0011    0.0518 N   0  0  0  0  0  0  0  0  0  0  0  0
    3.0162   -0.7033    1.2452 C   0  0  0  0  0  0  0  0  0  0  0  0
    2.5595   -0.0262    2.5322 C   0  0  0  0  0  0  0  0  0  0  0  0
    3.0600   -0.7663    3.7548 C   0  0  0  0  0  0  0  0  0  0  0  0
    2.5385   -0.0544    4.8775 O   0  0  0  0  0  0  0  0  0  0  0  0
    2.8513   -0.6321    6.0669 C   0  0  0  0  0  0  0  0  0  0  0  0
    3.3560    0.2142    7.0349 C   0  0  0  0  0  0  0  0  0  0  0  0
    3.7359   -0.3078    8.2645 C   0  0  0  0  0  0  0  0  0  0  0  0
    3.5865   -1.6663    8.5751 C   0  0  0  0  0  0  0  0  0  0  0  0
    2.9255   -2.4671    7.6352 C   0  0  0  0  0  0  0  0  0  0  0  0
    2.5990   -1.9660    6.3714 C   0  0  0  0  0  0  0  0  0  0  0  0
    4.0604   -2.2673    9.8346 C   0  0  0  0  0  0  0  0  0  0  0  0
    3.8379   -3.5284   10.2069 N   0  0  0  0  0  0  0  0  0  0  0  0
    4.3484   -3.6708   11.4774 C   0  0  0  0  0  0  0  0  0  0  0  0
    4.8422   -2.4605   11.9113 C   0  0  0  0  0  0  0  0  0  0  0  0
    4.8249   -1.6534   10.8000 N   0  0  0  0  0  0  0  0  0  0  0  0
    5.5795   -0.4127   10.8083 C   0  0  0  0  0  0  0  0  0  0  0  0
    4.9125    0.6054   11.7331 C   0  0  0  0  0  0  0  0  0  0  0  0
    4.8082    0.1613   13.1186 N   0  0  0  0  0  0  0  0  0  0  0  0
    5.6399   -0.8317   13.6165 C   0  0  0  0  0  0  0  0  0  0  0  0
    6.6160   -0.5848   14.2995 O   0  0  0  0  0  0  0  0  0  0  0  0
    5.3087   -2.2182   13.2025 C   0  0  0  0  0  0  0  0  0  0  0  0
    5.4492   -3.3229   14.0410 C   0  0  0  0  0  0  0  0  0  0  0  0
    5.0125   -4.5850   13.6175 C   0  0  0  0  0  0  0  0  0  0  0  0
    4.4198   -4.7685   12.3506 C   0  0  0  0  0  0  0  0  0  0  0  0
    3.0343   -0.6533   -1.1544 C   0  0  0  0  0  0  0  0  0  0  0  0
    0.6279    0.5695    0.8473 H   0  0  0  0  0  0  0  0  0  0  0  0
    0.6398   -0.9991    0.0142 H   0  0  0  0  0  0  0  0  0  0  0  0
    0.7010    0.5366   -0.8882 H   0  0  0  0  0  0  0  0  0  0  0  0
    4.1148   -0.7080    1.2333 H   0  0  0  0  0  0  0  0  0  0  0  0
    2.6919   -1.7523    1.2396 H   0  0  0  0  0  0  0  0  0  0  0  0
    1.4670   -0.0036    2.6090 H   0  0  0  0  0  0  0  0  0  0  0  0
    2.8894    1.0200    2.5604 H   0  0  0  0  0  0  0  0  0  0  0  0
    4.1562   -0.7759    3.7821 H   0  0  0  0  0  0  0  0  0  0  0  0
    2.6823   -1.7937    3.7225 H   0  0  0  0  0  0  0  0  0  0  0  0
    3.4675    1.2779    6.8439 H   0  0  0  0  0  0  0  0  0  0  0  0
    4.1285    0.4162    8.9579 H   0  0  0  0  0  0  0  0  0  0  0  0
    2.6484   -3.4903    7.8854 H   0  0  0  0  0  0  0  0  0  0  0  0
    2.1264   -2.6238    5.6507 H   0  0  0  0  0  0  0  0  0  0  0  0
    5.7576   -0.0456    9.8005 H   0  0  0  0  0  0  0  0  0  0  0  0
    6.5870   -0.6530   11.1711 H   0  0  0  0  0  0  0  0  0  0  0  0
    3.9024    0.8566   11.3838 H   0  0  0  0  0  0  0  0  0  0  0  0
    5.4963    1.5294   11.7567 H   0  0  0  0  0  0  0  0  0  0  0  0
    3.9229    0.2913   13.5975 H   0  0  0  0  0  0  0  0  0  0  0  0
    5.8864   -3.1946   15.0286 H   0  0  0  0  0  0  0  0  0  0  0  0
    5.1140   -5.4362   14.2883 H   0  0  0  0  0  0  0  0  0  0  0  0
    4.0448   -5.7410   12.0485 H   0  0  0  0  0  0  0  0  0  0  0  0
    2.7000   -0.1192   -2.0503 H   0  0  0  0  0  0  0  0  0  0  0  0
    2.6991   -1.6945   -1.2272 H   0  0  0  0  0  0  0  0  0  0  0  0
    4.1296   -0.6410   -1.1678 H   0  0  0  0  0  0  0  0  0  0  0  0
  1  2  1  0  0  0  0
  1 28  1  0  0  0  0
  1 29  1  0  0  0  0
  1 30  1  0  0  0  0
  2  3  1  0  0  0  0
  2 27  1  0  0  0  0
  3  4  1  0  0  0  0
  3 31  1  0  0  0  0
  3 32  1  0  0  0  0
  4  5  1  0  0  0  0
  4 33  1  0  0  0  0
  4 34  1  0  0  0  0
  5  6  1  0  0  0  0
  5 35  1  0  0  0  0
  5 36  1  0  0  0  0
  6  7  1  0  0  0  0
  7  8  2  0  0  0  0
  7 12  1  0  0  0  0
  8  9  1  0  0  0  0
  8 37  1  0  0  0  0
  9 10  2  0  0  0  0
  9 38  1  0  0  0  0
 10 11  1  0  0  0  0
 10 13  1  0  0  0  0
 11 12  2  0  0  0  0
 11 39  1  0  0  0  0
 12 40  1  0  0  0  0
 13 14  2  0  0  0  0
 13 17  1  0  0  0  0
 14 15  1  0  0  0  0
 15 16  2  0  0  0  0
 15 26  1  0  0  0  0
 16 17  1  0  0  0  0
 16 23  1  0  0  0  0
 17 18  1  0  0  0  0
 18 19  1  0  0  0  0
 18 41  1  0  0  0  0
 18 42  1  0  0  0  0
 19 20  1  0  0  0  0
 19 43  1  0  0  0  0
 19 44  1  0  0  0  0
 20 21  1  0  0  0  0
 20 45  1  0  0  0  0
 21 22  2  0  0  0  0
 21 23  1  0  0  0  0
 23 24  2  0  0  0  0
 24 25  1  0  0  0  0
 24 46  1  0  0  0  0
 25 26  2  0  0  0  0
 25 47  1  0  0  0  0
 26 48  1  0  0  0  0
 27 49  1  0  0  0  0
 27 50  1  0  0  0  0
 27 51  1  0  0  0  0
M  END
$$$$
