G9H
 OpenBabel04121316123D

 34 36  0  0  0  0  0  0  0  0999 V2000
    1.0052   -0.0564    0.0894 C   0  0  0  0  0  0  0  0  0  0  0  0
    2.4742   -0.0539    0.0412 N   0  0  0  0  0  0  0  0  0  0  0  0
    2.9235    0.1078   -1.3606 C   0  0  0  0  0  0  0  0  0  0  0  0
    2.5500   -1.0779   -2.2056 C   0  0  0  0  0  0  0  0  0  0  0  0
    1.5906   -1.1667   -3.1204 N   0  0  0  0  0  0  0  0  0  0  0  0
    1.6164   -2.4722   -3.5764 C   0  0  0  0  0  0  0  0  0  0  0  0
    2.5405   -3.2013   -2.8527 C   0  0  0  0  0  0  0  0  0  0  0  0
    3.1903   -2.2780   -2.0795 N   0  0  0  0  0  0  0  0  0  0  0  0
    4.4107   -2.5906   -1.3654 C   0  0  0  0  0  0  0  0  0  0  0  0
    4.1642   -3.6215   -0.2724 C   0  0  0  0  0  0  0  0  0  0  0  0
    3.5722   -4.8756   -0.7263 N   0  0  0  0  0  0  0  0  0  0  0  0
    3.6506   -5.2750   -2.0527 C   0  0  0  0  0  0  0  0  0  0  0  0
    4.4301   -6.1301   -2.4321 O   0  0  0  0  0  0  0  0  0  0  0  0
    2.7515   -4.5707   -2.9991 C   0  0  0  0  0  0  0  0  0  0  0  0
    2.1176   -5.1983   -4.0722 C   0  0  0  0  0  0  0  0  0  0  0  0
    1.2044   -4.4865   -4.8611 C   0  0  0  0  0  0  0  0  0  0  0  0
    0.9047   -3.1331   -4.5940 C   0  0  0  0  0  0  0  0  0  0  0  0
    2.9783    1.0578    0.8538 C   0  0  0  0  0  0  0  0  0  0  0  0
    0.5905   -0.9105   -0.4558 H   0  0  0  0  0  0  0  0  0  0  0  0
    0.5871    0.8633   -0.3351 H   0  0  0  0  0  0  0  0  0  0  0  0
    0.6515   -0.1563    1.1212 H   0  0  0  0  0  0  0  0  0  0  0  0
    4.0175    0.1986   -1.3722 H   0  0  0  0  0  0  0  0  0  0  0  0
    2.5394    1.0316   -1.8057 H   0  0  0  0  0  0  0  0  0  0  0  0
    4.8561   -1.6839   -0.9547 H   0  0  0  0  0  0  0  0  0  0  0  0
    5.1157   -2.9764   -2.1136 H   0  0  0  0  0  0  0  0  0  0  0  0
    3.5196   -3.2004    0.5091 H   0  0  0  0  0  0  0  0  0  0  0  0
    5.1175   -3.8931    0.1893 H   0  0  0  0  0  0  0  0  0  0  0  0
    2.7695   -5.2142   -0.2068 H   0  0  0  0  0  0  0  0  0  0  0  0
    2.3293   -6.2441   -4.2855 H   0  0  0  0  0  0  0  0  0  0  0  0
    0.7090   -4.9916   -5.6889 H   0  0  0  0  0  0  0  0  0  0  0  0
    0.1689   -2.6029   -5.1905 H   0  0  0  0  0  0  0  0  0  0  0  0
    2.6435    0.9626    1.8935 H   0  0  0  0  0  0  0  0  0  0  0  0
    2.6417    2.0288    0.4732 H   0  0  0  0  0  0  0  0  0  0  0  0
    4.0738    1.0564    0.8774 H   0  0  0  0  0  0  0  0  0  0  0  0
  1  2  1  0  0  0  0
  1 19  1  0  0  0  0
  1 20  1  0  0  0  0
  1 21  1  0  0  0  0
  2  3  1  0  0  0  0
  2 18  1  0  0  0  0
  3  4  1  0  0  0  0
  3 22  1  0  0  0  0
  3 23  1  0  0  0  0
  4  5  2  0  0  0  0
  4  8  1  0  0  0  0
  5  6  1  0  0  0  0
  6  7  2  0  0  0  0
  6 17  1  0  0  0  0
  7  8  1  0  0  0  0
  7 14  1  0  0  0  0
  8  9  1  0  0  0  0
  9 10  1  0  0  0  0
  9 24  1  0  0  0  0
  9 25  1  0  0  0  0
 10 11  1  0  0  0  0
 10 26  1  0  0  0  0
 10 27  1  0  0  0  0
 11 12  1  0  0  0  0
 11 28  1  0  0  0  0
 12 13  2  0  0  0  0
 12 14  1  0  0  0  0
 14 15  2  0  0  0  0
 15 16  1  0  0  0  0
 15 29  1  0  0  0  0
 16 17  2  0  0  0  0
 16 30  1  0  0  0  0
 17 31  1  0  0  0  0
 18 32  1  0  0  0  0
 18 33  1  0  0  0  0
 18 34  1  0  0  0  0
M  END
$$$$
