G9L
 OpenBabel04121316123D

 50 53  0  0  0  0  0  0  0  0999 V2000
    1.1622    0.0351   -0.1485 F   0  0  0  0  0  0  0  0  0  0  0  0
    2.5133    0.0307   -0.0785 C   0  0  0  0  0  0  0  0  0  0  0  0
    3.3271    1.1486   -0.1832 C   0  0  0  0  0  0  0  0  0  0  0  0
    4.9390    1.2073    0.0960 C   0  0  0  0  0  0  0  0  0  0  0  0
    5.9336    0.1132    0.1867 C   0  0  0  0  0  0  0  0  0  0  0  0
    4.7569   -1.0396    0.1759 C   0  0  0  0  0  0  0  0  0  0  0  0
    3.2272   -1.0945    0.1372 C   0  0  0  0  0  0  0  0  0  0  0  0
    5.1943   -2.4211    0.1069 C   0  0  0  0  0  0  0  0  0  0  0  0
    4.5202   -3.4320    0.0315 O   0  0  0  0  0  0  0  0  0  0  0  0
    6.5137   -2.3813    0.1071 N   0  0  0  0  0  0  0  0  0  0  0  0
    6.9015   -3.3122    0.0548 H   0  0  0  0  0  0  0  0  0  0  0  0
    7.1291   -1.1670    0.1656 C   0  0  0  0  0  0  0  0  0  0  0  0
    7.8741   -0.0089    0.2395 C   0  0  0  0  0  0  0  0  0  0  0  0
    9.9099   -0.5125    0.2705 C   0  0  0  0  0  0  0  0  0  0  0  0
   10.2289   -2.3636    0.1472 N   0  0  0  0  0  0  0  0  0  0  0  0
    8.9686   -2.9450    0.0956 C   0  0  0  0  0  0  0  0  0  0  0  0
    8.3655   -1.6925    0.1447 C   0  0  0  0  0  0  0  0  0  0  0  0
   11.0699   -3.5399    0.1196 C   0  0  0  0  0  0  0  0  0  0  0  0
   10.5280   -4.6710    0.0395 O   0  0  0  0  0  0  0  0  0  0  0  0
   12.5894   -3.6077    0.1502 C   0  0  0  0  0  0  0  0  0  0  0  0
   13.1584   -5.0860    0.0836 C   0  0  0  0  0  0  0  0  0  0  0  0
   14.6536   -5.1421    0.0541 N   0  0  0  0  0  0  0  0  0  0  0  0
   15.1402   -6.5446   -0.0154 C   0  0  0  0  0  0  0  0  0  0  0  0
   14.7448   -7.2299   -1.3177 C   0  0  0  0  0  0  0  0  0  0  0  0
   15.2658   -6.4435   -2.5046 C   0  0  0  0  0  0  0  0  0  0  0  0
   14.7713   -5.0067   -2.4388 C   0  0  0  0  0  0  0  0  0  0  0  0
   15.1800   -4.3849   -1.1013 C   0  0  0  0  0  0  0  0  0  0  0  0
    2.7634    2.0355   -0.5267 H   0  0  0  0  0  0  0  0  0  0  0  0
    5.1131    2.2256    0.4434 H   0  0  0  0  0  0  0  0  0  0  0  0
    2.6387   -2.0248    0.2249 H   0  0  0  0  0  0  0  0  0  0  0  0
   10.5589   -0.4798    1.1922 H   0  0  0  0  0  0  0  0  0  0  0  0
   10.6545   -0.3295   -0.5599 H   0  0  0  0  0  0  0  0  0  0  0  0
    8.6855   -3.4194    1.0304 H   0  0  0  0  0  0  0  0  0  0  0  0
    8.7090   -3.3316   -0.8846 H   0  0  0  0  0  0  0  0  0  0  0  0
    8.7175   -1.2419   -0.9588 H   0  0  0  0  0  0  0  0  0  0  0  0
    8.6621   -1.3782    1.3166 H   0  0  0  0  0  0  0  0  0  0  0  0
   12.9761   -3.1711    1.0660 H   0  0  0  0  0  0  0  0  0  0  0  0
   12.9308   -3.0820   -0.7376 H   0  0  0  0  0  0  0  0  0  0  0  0
   12.7386   -5.5894   -0.7964 H   0  0  0  0  0  0  0  0  0  0  0  0
   12.8064   -5.6860    0.9367 H   0  0  0  0  0  0  0  0  0  0  0  0
   14.7663   -7.1457    0.8220 H   0  0  0  0  0  0  0  0  0  0  0  0
   16.2390   -6.5657    0.0667 H   0  0  0  0  0  0  0  0  0  0  0  0
   13.6553   -7.3065   -1.3818 H   0  0  0  0  0  0  0  0  0  0  0  0
   15.1415   -8.2467   -1.3473 H   0  0  0  0  0  0  0  0  0  0  0  0
   14.9316   -6.9262   -3.4246 H   0  0  0  0  0  0  0  0  0  0  0  0
   16.3621   -6.4518   -2.4821 H   0  0  0  0  0  0  0  0  0  0  0  0
   13.6804   -4.9855   -2.5546 H   0  0  0  0  0  0  0  0  0  0  0  0
   15.1763   -4.4288   -3.2727 H   0  0  0  0  0  0  0  0  0  0  0  0
   14.8560   -3.3420   -1.0623 H   0  0  0  0  0  0  0  0  0  0  0  0
   16.2734   -4.3217   -1.0389 H   0  0  0  0  0  0  0  0  0  0  0  0
  1  2  1  0  0  0  0
  2  3  2  0  0  0  0
  2  7  1  0  0  0  0
  3  4  1  0  0  0  0
  3 28  1  0  0  0  0
  4  5  2  0  0  0  0
  4 29  1  0  0  0  0
  5  6  1  0  0  0  0
  5 13  1  0  0  0  0
  6  7  2  0  0  0  0
  6  8  1  0  0  0  0
  7 30  1  0  0  0  0
  8  9  2  0  0  0  0
  8 10  1  0  0  0  0
 10 11  1  0  0  0  0
 10 12  1  0  0  0  0
 12 13  2  0  0  0  0
 12 17  1  0  0  0  0
 13 14  1  0  0  0  0
 14 15  1  0  0  0  0
 14 31  1  0  0  0  0
 14 32  1  0  0  0  0
 15 16  1  0  0  0  0
 15 18  1  0  0  0  0
 16 17  1  0  0  0  0
 16 33  1  0  0  0  0
 16 34  1  0  0  0  0
 17 35  1  0  0  0  0
 17 36  1  0  0  0  0
 18 19  2  0  0  0  0
 18 20  1  0  0  0  0
 20 21  1  0  0  0  0
 20 37  1  0  0  0  0
 20 38  1  0  0  0  0
 21 22  1  0  0  0  0
 21 39  1  0  0  0  0
 21 40  1  0  0  0  0
 22 23  1  0  0  0  0
 22 27  1  0  0  0  0
 23 24  1  0  0  0  0
 23 41  1  0  0  0  0
 23 42  1  0  0  0  0
 24 25  1  0  0  0  0
 24 43  1  0  0  0  0
 24 44  1  0  0  0  0
 25 26  1  0  0  0  0
 25 45  1  0  0  0  0
 25 46  1  0  0  0  0
 26 27  1  0  0  0  0
 26 47  1  0  0  0  0
 26 48  1  0  0  0  0
 27 49  1  0  0  0  0
 27 50  1  0  0  0  0
M  END
$$$$
