GAA
 OpenBabel04121316123D

 36 37  0  0  1  0  0  0  0  0999 V2000
    1.1300   -0.0456    0.2402 O   0  0  0  0  0  0  0  0  0  0  0  0
    2.5339   -0.1191   -0.0182 C   0  0  0  0  0  0  0  0  0  0  0  0
    2.9280    0.5559   -1.3639 C   0  0  1  0  0  0  0  0  0  0  0  0
    3.8577    0.0656   -1.6852 H   0  0  0  0  0  0  0  0  0  0  0  0
    1.9487    0.3420   -2.4140 O   0  0  0  0  0  0  0  0  0  0  0  0
    0.7193    1.0916   -2.2565 C   0  0  2  0  0  0  0  0  0  0  0  0
    0.1575    0.6924   -1.4200 H   0  0  0  0  0  0  0  0  0  0  0  0
   -0.1574    0.8919   -3.4006 O   0  0  0  0  0  0  0  0  0  0  0  0
   -1.4124    1.4407   -3.2496 C   0  0  0  0  0  0  0  0  0  0  0  0
   -2.5348    0.6193   -3.2406 C   0  0  0  0  0  0  0  0  0  0  0  0
   -3.8182    1.1937   -3.2391 C   0  0  0  0  0  0  0  0  0  0  0  0
   -3.9876    2.5837   -3.3163 C   0  0  0  0  0  0  0  0  0  0  0  0
   -2.8611    3.3970   -3.3178 C   0  0  0  0  0  0  0  0  0  0  0  0
   -1.5992    2.8235   -3.2804 C   0  0  0  0  0  0  0  0  0  0  0  0
   -2.9583    4.8570   -3.4370 N   0  3  0  0  0  0  0  0  0  0  0  0
   -4.0671    5.3471   -3.6432 O   0  0  0  0  0  0  0  0  0  0  0  0
   -1.9022    5.5137   -3.3342 O   0  5  0  0  0  0  0  0  0  0  0  0
    1.0393    2.5858   -2.0421 C   0  0  1  0  0  0  0  0  0  0  0  0
    0.1426    3.0966   -1.6983 H   0  0  0  0  0  0  0  0  0  0  0  0
    2.0348    2.8591   -0.9381 C   0  0  2  0  0  0  0  0  0  0  0  0
    2.2697    3.9287   -0.9156 H   0  0  0  0  0  0  0  0  0  0  0  0
    3.2903    2.0501   -1.2112 C   0  0  1  0  0  0  0  0  0  0  0  0
    3.7349    2.4114   -2.1485 H   0  0  0  0  0  0  0  0  0  0  0  0
    4.2585    2.2575   -0.1804 O   0  0  0  0  0  0  0  0  0  0  0  0
    1.4819    2.5598    0.3534 O   0  0  0  0  0  0  0  0  0  0  0  0
    1.5026    3.1752   -3.2708 O   0  0  0  0  0  0  0  0  0  0  0  0
    0.9330   -0.5599    1.0428 H   0  0  0  0  0  0  0  0  0  0  0  0
    2.8385   -1.1675   -0.0114 H   0  0  0  0  0  0  0  0  0  0  0  0
    3.0144    0.3724    0.8310 H   0  0  0  0  0  0  0  0  0  0  0  0
   -2.4267   -0.4631   -3.2666 H   0  0  0  0  0  0  0  0  0  0  0  0
   -4.6971    0.5527   -3.2125 H   0  0  0  0  0  0  0  0  0  0  0  0
   -4.9812    3.0118   -3.4070 H   0  0  0  0  0  0  0  0  0  0  0  0
   -0.7709    3.5142   -3.3213 H   0  0  0  0  0  0  0  0  0  0  0  0
    3.7700    2.2980    0.6638 H   0  0  0  0  0  0  0  0  0  0  0  0
    1.0609    1.6731    0.3199 H   0  0  0  0  0  0  0  0  0  0  0  0
    1.0264    2.7357   -4.0054 H   0  0  0  0  0  0  0  0  0  0  0  0
  1  2  1  0  0  0  0
  1 27  1  0  0  0  0
  2  3  1  0  0  0  0
  2 28  1  0  0  0  0
  2 29  1  0  0  0  0
  3  4  1  6  0  0  0
  3  5  1  0  0  0  0
  3 22  1  0  0  0  0
  5  6  1  0  0  0  0
  6  7  1  1  0  0  0
  6  8  1  0  0  0  0
  6 18  1  0  0  0  0
  8  9  1  0  0  0  0
  9 10  2  0  0  0  0
  9 14  1  0  0  0  0
 10 11  1  0  0  0  0
 10 30  1  0  0  0  0
 11 12  2  0  0  0  0
 11 31  1  0  0  0  0
 12 13  1  0  0  0  0
 12 32  1  0  0  0  0
 13 14  2  0  0  0  0
 13 15  1  0  0  0  0
 14 33  1  0  0  0  0
 15 16  2  0  0  0  0
 15 17  1  0  0  0  0
 18 19  1  1  0  0  0
 18 20  1  0  0  0  0
 18 26  1  0  0  0  0
 20 22  1  0  0  0  0
 20 25  1  0  0  0  0
 20 21  1  6  0  0  0
 22 24  1  0  0  0  0
 22 23  1  6  0  0  0
 24 34  1  0  0  0  0
 25 35  1  0  0  0  0
 26 36  1  0  0  0  0
M  CHG  2  15   1  17  -1
M  END
$$$$
