GAE
 OpenBabel04121316123D

 24 23  0  0  1  0  0  0  0  0999 V2000
    4.7937    0.6194   -2.8452 O   0  0  0  0  0  0  0  0  0  0  0  0
    4.3378   -0.7466   -2.7505 C   0  0  2  0  0  0  0  0  0  0  0  0
    4.6966   -1.2731   -3.6445 H   0  0  0  0  0  0  0  0  0  0  0  0
    2.7895   -0.7060   -2.7795 C   0  0  2  0  0  0  0  0  0  0  0  0
    2.4252    0.2880   -2.4931 H   0  0  0  0  0  0  0  0  0  0  0  0
    2.0862   -1.7295   -1.8715 C   0  0  0  0  0  0  0  0  0  0  0  0
    1.3908   -2.6467   -2.2972 O   0  0  0  0  0  0  0  0  0  0  0  0
    2.2047   -1.5121   -0.5367 O   0  0  0  0  0  0  0  0  0  0  0  0
    2.3807   -0.8664   -4.1485 O   0  0  0  0  0  0  0  0  0  0  0  0
    4.9396   -1.3810   -1.4737 C   0  0  2  0  0  0  0  0  0  0  0  0
    4.5739   -0.8044   -0.6176 H   0  0  0  0  0  0  0  0  0  0  0  0
    6.4622   -1.3117   -1.3973 C   0  0  1  0  0  0  0  0  0  0  0  0
    6.7987   -1.7873   -0.4683 H   0  0  0  0  0  0  0  0  0  0  0  0
    7.0544   -2.1008   -2.5734 C   0  0  0  0  0  0  0  0  0  0  0  0
    7.7843   -1.6048   -3.4248 O   0  0  0  0  0  0  0  0  0  0  0  0
    6.7014   -3.4083   -2.6155 O   0  0  0  0  0  0  0  0  0  0  0  0
    6.8992    0.0449   -1.3618 O   0  0  0  0  0  0  0  0  0  0  0  0
    4.5607   -2.7538   -1.3313 O   0  0  0  0  0  0  0  0  0  0  0  0
    5.7697    0.6061   -2.9601 H   0  0  0  0  0  0  0  0  0  0  0  0
    2.6785   -0.7030   -0.2717 H   0  0  0  0  0  0  0  0  0  0  0  0
    1.4203   -1.0360   -4.1446 H   0  0  0  0  0  0  0  0  0  0  0  0
    5.9443   -3.6402   -2.0282 H   0  0  0  0  0  0  0  0  0  0  0  0
    6.4135    0.5322   -0.6741 H   0  0  0  0  0  0  0  0  0  0  0  0
    4.4825   -2.9720   -0.3815 H   0  0  0  0  0  0  0  0  0  0  0  0
  1 19  1  0  0  0  0
  2  3  1  6  0  0  0
  2  1  1  0  0  0  0
  4  6  1  0  0  0  0
  4  9  1  0  0  0  0
  4  5  1  1  0  0  0
  4  2  1  0  0  0  0
  6  7  2  0  0  0  0
  6  8  1  0  0  0  0
  8 20  1  0  0  0  0
  9 21  1  0  0  0  0
 10 12  1  0  0  0  0
 10 18  1  0  0  0  0
 10 11  1  1  0  0  0
 10  2  1  0  0  0  0
 12 13  1  1  0  0  0
 12 14  1  0  0  0  0
 12 17  1  0  0  0  0
 14 15  2  0  0  0  0
 14 16  1  0  0  0  0
 16 22  1  0  0  0  0
 17 23  1  0  0  0  0
 18 24  1  0  0  0  0
M  END
$$$$
