GAN
 OpenBabel04121316123D

 93 94  0  0  1  0  0  0  0  0999 V2000
    3.5185    6.0214    6.1652 C   0  0  0  0  0  0  0  0  0  0  0  0
    3.7646    5.6602    4.8105 O   0  0  0  0  0  0  0  0  0  0  0  0
    4.9647    5.9914    4.2556 C   0  0  0  0  0  0  0  0  0  0  0  0
    5.8129    6.6907    4.8002 O   0  0  0  0  0  0  0  0  0  0  0  0
    5.1423    5.2821    2.8501 C   0  0  2  0  0  0  0  0  0  0  0  0
    5.3363    6.1064    2.1502 H   0  0  0  0  0  0  0  0  0  0  0  0
    3.8885    4.4971    2.3104 C   0  0  0  0  0  0  0  0  0  0  0  0
    3.5632    3.2095    3.0649 C   0  0  0  0  0  0  0  0  0  0  0  0
    2.6095    5.3222    2.2361 C   0  0  0  0  0  0  0  0  0  0  0  0
    6.3260    4.3759    2.7885 N   0  0  0  0  0  0  0  0  0  0  0  0
    6.3699    3.4596    3.8140 C   0  0  0  0  0  0  0  0  0  0  0  0
    5.7306    3.7396    4.8306 O   0  0  0  0  0  0  0  0  0  0  0  0
    6.9680    2.0272    3.6776 C   0  0  2  0  0  0  0  0  0  0  0  0
    6.6183    1.5962    2.7277 H   0  0  0  0  0  0  0  0  0  0  0  0
    6.4450    1.1415    4.8863 C   0  0  0  0  0  0  0  0  0  0  0  0
    6.8571    1.6364    6.2933 C   0  0  0  0  0  0  0  0  0  0  0  0
    4.9222    0.9760    4.9074 C   0  0  0  0  0  0  0  0  0  0  0  0
    8.4118    1.9866    3.6120 N   0  0  0  0  0  0  0  0  0  0  0  0
    9.0844    2.6072    4.6285 C   0  0  0  0  0  0  0  0  0  0  0  0
    8.5263    3.4329    5.3530 O   0  0  0  0  0  0  0  0  0  0  0  0
   10.5869    2.4476    4.6839 C   0  0  1  0  0  0  0  0  0  0  0  0
   10.8682    1.3974    4.5597 H   0  0  0  0  0  0  0  0  0  0  0  0
   11.1893    3.2279    3.5580 N   0  0  0  0  0  0  0  0  0  0  0  0
   12.5245    3.7015    3.9351 C   0  0  0  0  0  0  0  0  0  0  0  0
   12.6213    4.9152    4.8553 C   0  0  0  0  0  0  0  0  0  0  0  0
   12.0857    6.2578    4.4686 C   0  0  0  0  0  0  0  0  0  0  0  0
   11.1879    6.4002    3.4790 C   0  0  0  0  0  0  0  0  0  0  0  0
   10.8088    5.4714    2.3810 C   0  0  2  0  0  0  0  0  0  0  0  0
    9.9604    5.9464    1.8567 H   0  0  0  0  0  0  0  0  0  0  0  0
   10.2547    4.2730    3.0830 C   0  0  0  0  0  0  0  0  0  0  0  0
   11.8791    5.2168    1.3228 C   0  0  0  0  0  0  0  0  0  0  0  0
   12.4398    6.4524    0.6877 C   0  0  0  0  0  0  0  0  0  0  0  0
   12.3654    7.7275    1.2513 C   0  0  0  0  0  0  0  0  0  0  0  0
   12.5814    8.8644    0.5177 C   0  0  0  0  0  0  0  0  0  0  0  0
   13.1701    8.7229   -0.7161 C   0  0  0  0  0  0  0  0  0  0  0  0
   13.5546    7.4562   -1.1666 C   0  0  0  0  0  0  0  0  0  0  0  0
   13.1457    6.3140   -0.4931 C   0  0  0  0  0  0  0  0  0  0  0  0
   12.5098    7.4215    5.3652 C   0  0  1  0  0  0  0  0  0  0  0  0
   13.1141    8.1082    4.7596 H   0  0  0  0  0  0  0  0  0  0  0  0
   11.3280    8.1266    5.8313 N   0  0  0  0  0  0  0  0  0  0  0  0
   10.6334    8.9999    4.9954 C   0  0  0  0  0  0  0  0  0  0  0  0
   11.0045    9.3180    3.8972 O   0  0  0  0  0  0  0  0  0  0  0  0
    9.3596    9.5879    5.6271 C   0  0  1  0  0  0  0  0  0  0  0  0
    8.8162    8.8323    6.2091 H   0  0  0  0  0  0  0  0  0  0  0  0
    9.8110   10.6851    6.4914 N   0  0  0  0  0  0  0  0  0  0  0  0
    8.4664   10.1090    4.5004 C   0  0  0  0  0  0  0  0  0  0  0  0
   13.3655    6.9653    6.5582 C   0  0  0  0  0  0  0  0  0  0  0  0
   10.9426    2.8817    6.1224 C   0  0  0  0  0  0  0  0  0  0  0  0
    2.5222    5.6443    6.4254 H   0  0  0  0  0  0  0  0  0  0  0  0
    3.5119    7.1075    6.2638 H   0  0  0  0  0  0  0  0  0  0  0  0
    4.2430    5.5533    6.8367 H   0  0  0  0  0  0  0  0  0  0  0  0
    4.1367    4.1814    1.2872 H   0  0  0  0  0  0  0  0  0  0  0  0
    3.4120    3.4020    4.1296 H   0  0  0  0  0  0  0  0  0  0  0  0
    4.3687    2.4942    2.9127 H   0  0  0  0  0  0  0  0  0  0  0  0
    2.6671    2.6989    2.7102 H   0  0  0  0  0  0  0  0  0  0  0  0
    2.2648    5.6717    3.2104 H   0  0  0  0  0  0  0  0  0  0  0  0
    1.7943    4.7046    1.8450 H   0  0  0  0  0  0  0  0  0  0  0  0
    2.7437    6.1889    1.5896 H   0  0  0  0  0  0  0  0  0  0  0  0
    7.1610    4.6348    2.2744 H   0  0  0  0  0  0  0  0  0  0  0  0
    6.8727    0.1401    4.7622 H   0  0  0  0  0  0  0  0  0  0  0  0
    6.6390    2.6951    6.4667 H   0  0  0  0  0  0  0  0  0  0  0  0
    7.9228    1.4799    6.4676 H   0  0  0  0  0  0  0  0  0  0  0  0
    6.3336    1.1099    7.0893 H   0  0  0  0  0  0  0  0  0  0  0  0
    4.4172    1.9160    5.1284 H   0  0  0  0  0  0  0  0  0  0  0  0
    4.6102    0.3131    5.7169 H   0  0  0  0  0  0  0  0  0  0  0  0
    4.5445    0.5748    3.9641 H   0  0  0  0  0  0  0  0  0  0  0  0
    8.9263    1.5072    2.8791 H   0  0  0  0  0  0  0  0  0  0  0  0
   13.1806    3.8978    3.0964 H   0  0  0  0  0  0  0  0  0  0  0  0
   13.0680    2.8540    4.3682 H   0  0  0  0  0  0  0  0  0  0  0  0
   13.6601    4.9257    5.1775 H   0  0  0  0  0  0  0  0  0  0  0  0
   12.0674    4.7735    5.7720 H   0  0  0  0  0  0  0  0  0  0  0  0
   10.6287    7.3129    3.3412 H   0  0  0  0  0  0  0  0  0  0  0  0
    9.4979    3.8402    2.4173 H   0  0  0  0  0  0  0  0  0  0  0  0
    9.6962    4.7045    3.9279 H   0  0  0  0  0  0  0  0  0  0  0  0
   11.4461    4.5436    0.5694 H   0  0  0  0  0  0  0  0  0  0  0  0
   12.7643    4.7089    1.6647 H   0  0  0  0  0  0  0  0  0  0  0  0
   12.1469    7.9273    2.2832 H   0  0  0  0  0  0  0  0  0  0  0  0
   12.3055    9.8180    0.9584 H   0  0  0  0  0  0  0  0  0  0  0  0
   13.3696    9.6106   -1.2972 H   0  0  0  0  0  0  0  0  0  0  0  0
   14.1542    7.3552   -2.0603 H   0  0  0  0  0  0  0  0  0  0  0  0
   13.3802    5.3208   -0.8676 H   0  0  0  0  0  0  0  0  0  0  0  0
   11.1284    8.1342    6.8172 H   0  0  0  0  0  0  0  0  0  0  0  0
   10.3839   10.3124    7.2434 H   0  0  0  0  0  0  0  0  0  0  0  0
    9.0175   11.1703    6.8933 H   0  0  0  0  0  0  0  0  0  0  0  0
    8.1033    9.2781    3.8810 H   0  0  0  0  0  0  0  0  0  0  0  0
    9.0177   10.7812    3.8322 H   0  0  0  0  0  0  0  0  0  0  0  0
    7.5980   10.6532    4.8820 H   0  0  0  0  0  0  0  0  0  0  0  0
   14.2819    6.4650    6.2213 H   0  0  0  0  0  0  0  0  0  0  0  0
   12.8122    6.2675    7.2003 H   0  0  0  0  0  0  0  0  0  0  0  0
   13.6856    7.8014    7.1792 H   0  0  0  0  0  0  0  0  0  0  0  0
   10.4955    2.2378    6.8795 H   0  0  0  0  0  0  0  0  0  0  0  0
   10.5324    3.8822    6.3333 H   0  0  0  0  0  0  0  0  0  0  0  0
   12.0188    2.8739    6.3098 H   0  0  0  0  0  0  0  0  0  0  0  0
  1  2  1  0  0  0  0
  1 49  1  0  0  0  0
  1 50  1  0  0  0  0
  1 51  1  0  0  0  0
  2  3  1  0  0  0  0
  3  4  2  0  0  0  0
  5  7  1  0  0  0  0
  5 10  1  0  0  0  0
  5  6  1  6  0  0  0
  5  3  1  0  0  0  0
  7  8  1  0  0  0  0
  7  9  1  0  0  0  0
  7 52  1  0  0  0  0
  8 53  1  0  0  0  0
  8 54  1  0  0  0  0
  8 55  1  0  0  0  0
  9 56  1  0  0  0  0
  9 57  1  0  0  0  0
  9 58  1  0  0  0  0
 10 11  1  0  0  0  0
 10 59  1  0  0  0  0
 11 12  2  0  0  0  0
 13 15  1  0  0  0  0
 13 18  1  0  0  0  0
 13 14  1  6  0  0  0
 13 11  1  0  0  0  0
 15 16  1  0  0  0  0
 15 17  1  0  0  0  0
 15 60  1  0  0  0  0
 16 61  1  0  0  0  0
 16 62  1  0  0  0  0
 16 63  1  0  0  0  0
 17 64  1  0  0  0  0
 17 65  1  0  0  0  0
 17 66  1  0  0  0  0
 18 19  1  0  0  0  0
 18 67  1  0  0  0  0
 19 20  2  0  0  0  0
 19 21  1  0  0  0  0
 21 22  1  6  0  0  0
 21 23  1  0  0  0  0
 21 48  1  0  0  0  0
 23 24  1  0  0  0  0
 23 30  1  0  0  0  0
 24 25  1  0  0  0  0
 24 68  1  0  0  0  0
 24 69  1  0  0  0  0
 25 26  1  0  0  0  0
 25 70  1  0  0  0  0
 25 71  1  0  0  0  0
 26 27  2  0  0  0  0
 26 38  1  0  0  0  0
 27 28  1  0  0  0  0
 27 72  1  0  0  0  0
 28 29  1  6  0  0  0
 28 30  1  0  0  0  0
 28 31  1  0  0  0  0
 30 73  1  0  0  0  0
 30 74  1  0  0  0  0
 31 32  1  0  0  0  0
 31 75  1  0  0  0  0
 31 76  1  0  0  0  0
 32 33  2  0  0  0  0
 32 37  1  0  0  0  0
 33 34  1  0  0  0  0
 33 77  1  0  0  0  0
 34 35  2  0  0  0  0
 34 78  1  0  0  0  0
 35 36  1  0  0  0  0
 35 79  1  0  0  0  0
 36 37  2  0  0  0  0
 36 80  1  0  0  0  0
 37 81  1  0  0  0  0
 38 39  1  6  0  0  0
 38 40  1  0  0  0  0
 38 47  1  0  0  0  0
 40 41  1  0  0  0  0
 40 82  1  0  0  0  0
 41 42  2  0  0  0  0
 41 43  1  0  0  0  0
 43 44  1  1  0  0  0
 43 45  1  0  0  0  0
 43 46  1  0  0  0  0
 45 83  1  0  0  0  0
 45 84  1  0  0  0  0
 46 85  1  0  0  0  0
 46 86  1  0  0  0  0
 46 87  1  0  0  0  0
 47 88  1  0  0  0  0
 47 89  1  0  0  0  0
 47 90  1  0  0  0  0
 48 91  1  0  0  0  0
 48 92  1  0  0  0  0
 48 93  1  0  0  0  0
M  END
$$$$
