GAX
 OpenBabel04121316123D

 50 53  0  0  0  0  0  0  0  0999 V2000
    0.9620    0.1399   -0.2968 O   0  0  0  0  0  0  0  0  0  0  0  0
    2.1617    0.1156   -0.0219 C   0  0  0  0  0  0  0  0  0  0  0  0
    2.7303   -0.8200    0.7910 N   0  0  0  0  0  0  0  0  0  0  0  0
    2.0363   -1.7299    1.5068 C   0  0  0  0  0  0  0  0  0  0  0  0
    2.4290   -2.9716    1.6480 N   0  0  0  0  0  0  0  0  0  0  0  0
    1.6646   -3.5469    2.6372 C   0  0  0  0  0  0  0  0  0  0  0  0
    0.8745   -2.6688    3.3485 C   0  0  0  0  0  0  0  0  0  0  0  0
    1.0112   -1.0936    2.7041 S   0  0  0  0  0  0  0  0  0  0  0  0
    3.0213    1.0566   -0.5805 N   0  0  0  0  0  0  0  0  0  0  0  0
    4.4519    1.2270   -0.4562 C   0  0  0  0  0  0  0  0  0  0  0  0
    5.1100    2.3455   -0.8812 C   0  0  0  0  0  0  0  0  0  0  0  0
    6.5282    2.2941   -1.0143 C   0  0  0  0  0  0  0  0  0  0  0  0
    7.3059    1.0976   -0.9412 C   0  0  0  0  0  0  0  0  0  0  0  0
    6.7067   -0.0438   -0.4681 C   0  0  0  0  0  0  0  0  0  0  0  0
    5.2984    0.1393   -0.1464 C   0  0  0  0  0  0  0  0  0  0  0  0
    7.6157   -1.8847   -1.0986 S   0  0  0  0  0  0  0  0  0  0  0  0
    8.2742   -1.6134   -2.3812 O   0  0  0  0  0  0  0  0  0  0  0  0
    8.3543   -2.3114    0.0462 O   0  0  0  0  0  0  0  0  0  0  0  0
    6.2749   -3.0682   -1.4304 N   0  0  0  0  0  0  0  0  0  0  0  0
    5.1416   -2.2077   -1.2600 C   0  0  0  0  0  0  0  0  0  0  0  0
    5.2944   -1.0684   -2.4387 C   0  0  0  0  0  0  0  0  0  0  0  0
    4.9261   -1.6997   -3.6331 N   0  0  0  0  0  0  0  0  0  0  0  0
    5.7947   -2.8270   -3.9750 C   0  0  0  0  0  0  0  0  0  0  0  0
    5.8563   -3.7609   -2.7393 C   0  0  0  0  0  0  0  0  0  0  0  0
    4.1888   -0.8771   -4.4436 C   0  0  0  0  0  0  0  0  0  0  0  0
    3.2304   -1.4986   -5.1922 C   0  0  0  0  0  0  0  0  0  0  0  0
    2.5152   -0.7521   -6.0983 C   0  0  0  0  0  0  0  0  0  0  0  0
    2.6559    0.6294   -6.1184 C   0  0  0  0  0  0  0  0  0  0  0  0
    3.4722    1.2151   -5.1748 C   0  0  0  0  0  0  0  0  0  0  0  0
    4.2606    0.4847   -4.3621 N   0  0  0  0  0  0  0  0  0  0  0  0
    3.6358   -0.7086    1.2004 H   0  0  0  0  0  0  0  0  0  0  0  0
    1.7430   -4.6114    2.8182 H   0  0  0  0  0  0  0  0  0  0  0  0
    0.2305   -2.8487    4.1899 H   0  0  0  0  0  0  0  0  0  0  0  0
    2.5185    1.6452   -1.2472 H   0  0  0  0  0  0  0  0  0  0  0  0
    4.5521    3.2472   -1.1191 H   0  0  0  0  0  0  0  0  0  0  0  0
    7.0437    3.2245   -1.2234 H   0  0  0  0  0  0  0  0  0  0  0  0
    8.3159    1.0584   -1.3328 H   0  0  0  0  0  0  0  0  0  0  0  0
    4.6339   -0.6703   -0.0920 H   0  0  0  0  0  0  0  0  0  0  0  0
    5.3358   -2.0952   -0.1778 H   0  0  0  0  0  0  0  0  0  0  0  0
    4.1405   -2.6370   -1.2539 H   0  0  0  0  0  0  0  0  0  0  0  0
    6.2912   -0.6678   -2.6785 H   0  0  0  0  0  0  0  0  0  0  0  0
    4.7029   -0.1820   -2.2842 H   0  0  0  0  0  0  0  0  0  0  0  0
    6.8180   -2.5124   -4.1913 H   0  0  0  0  0  0  0  0  0  0  0  0
    5.4000   -3.3506   -4.8461 H   0  0  0  0  0  0  0  0  0  0  0  0
    6.3649   -4.7086   -2.8932 H   0  0  0  0  0  0  0  0  0  0  0  0
    4.7943   -4.0729   -2.5787 H   0  0  0  0  0  0  0  0  0  0  0  0
    3.0567   -2.5531   -5.0230 H   0  0  0  0  0  0  0  0  0  0  0  0
    1.8589   -1.2725   -6.7785 H   0  0  0  0  0  0  0  0  0  0  0  0
    2.1206    1.2259   -6.8431 H   0  0  0  0  0  0  0  0  0  0  0  0
    3.5176    2.2965   -5.0566 H   0  0  0  0  0  0  0  0  0  0  0  0
  1  2  2  0  0  0  0
  2  3  1  0  0  0  0
  2  9  1  0  0  0  0
  3  4  1  0  0  0  0
  3 31  1  0  0  0  0
  4  5  2  0  0  0  0
  4  8  1  0  0  0  0
  5  6  1  0  0  0  0
  6  7  2  0  0  0  0
  6 32  1  0  0  0  0
  7  8  1  0  0  0  0
  7 33  1  0  0  0  0
  9 10  1  0  0  0  0
  9 34  1  0  0  0  0
 10 11  2  0  0  0  0
 10 15  1  0  0  0  0
 11 12  1  0  0  0  0
 11 35  1  0  0  0  0
 12 13  2  0  0  0  0
 12 36  1  0  0  0  0
 13 14  1  0  0  0  0
 13 37  1  0  0  0  0
 14 15  2  0  0  0  0
 14 16  1  0  0  0  0
 15 38  1  0  0  0  0
 16 17  2  0  0  0  0
 16 18  2  0  0  0  0
 16 19  1  0  0  0  0
 19 20  1  0  0  0  0
 19 24  1  0  0  0  0
 20 21  1  0  0  0  0
 20 39  1  0  0  0  0
 20 40  1  0  0  0  0
 21 22  1  0  0  0  0
 21 41  1  0  0  0  0
 21 42  1  0  0  0  0
 22 23  1  0  0  0  0
 22 25  1  0  0  0  0
 23 24  1  0  0  0  0
 23 43  1  0  0  0  0
 23 44  1  0  0  0  0
 24 45  1  0  0  0  0
 24 46  1  0  0  0  0
 25 26  2  0  0  0  0
 25 30  1  0  0  0  0
 26 27  1  0  0  0  0
 26 47  1  0  0  0  0
 27 28  2  0  0  0  0
 27 48  1  0  0  0  0
 28 29  1  0  0  0  0
 28 49  1  0  0  0  0
 29 30  2  0  0  0  0
 29 50  1  0  0  0  0
M  END
$$$$
