GB2
 OpenBabel04121316123D

 38 39  0  0  1  0  0  0  0  0999 V2000
    2.5964   -2.7994    2.5219 O   0  0  0  0  0  0  0  0  0  0  0  0
    2.2099   -1.6037    1.8415 C   0  0  0  0  0  0  0  0  0  0  0  0
    2.8389   -1.4017    0.4265 C   0  0  2  0  0  0  0  0  0  0  0  0
    2.5025   -0.4006    0.1192 H   0  0  0  0  0  0  0  0  0  0  0  0
    2.3152   -2.3750   -0.6324 C   0  0  0  0  0  0  0  0  0  0  0  0
    2.3187   -3.7597   -0.3784 C   0  0  0  0  0  0  0  0  0  0  0  0
    2.2476   -4.6734   -1.4263 C   0  0  0  0  0  0  0  0  0  0  0  0
    2.0013   -4.2271   -2.7110 C   0  0  0  0  0  0  0  0  0  0  0  0
    1.8172   -2.8645   -2.9573 C   0  0  0  0  0  0  0  0  0  0  0  0
    2.0224   -1.9377   -1.9279 C   0  0  0  0  0  0  0  0  0  0  0  0
    4.3209   -1.3343    0.3908 N   0  0  0  0  0  0  0  0  0  0  0  0
    4.9478   -2.6272    0.6761 C   0  0  0  0  0  0  0  0  0  0  0  0
    6.4711   -2.6108    0.7202 C   0  0  1  0  0  0  0  0  0  0  0  0
    6.8580   -2.3713   -0.2789 H   0  0  0  0  0  0  0  0  0  0  0  0
    7.0040   -1.6482    1.7104 N   0  0  0  0  0  0  0  0  0  0  0  0
    8.3328   -2.1914    2.0044 C   0  0  0  0  0  0  0  0  0  0  0  0
    8.1962   -3.7198    2.0117 C   0  0  1  0  0  0  0  0  0  0  0  0
    8.0229   -4.0669    3.0370 H   0  0  0  0  0  0  0  0  0  0  0  0
    6.9460   -4.0042    1.1750 C   0  0  2  0  0  0  0  0  0  0  0  0
    6.2044   -4.4904    1.8218 H   0  0  0  0  0  0  0  0  0  0  0  0
    7.1613   -4.8744    0.0700 O   0  0  0  0  0  0  0  0  0  0  0  0
    9.3329   -4.4028    1.5004 O   0  0  0  0  0  0  0  0  0  0  0  0
    2.0723   -2.8544    3.3374 H   0  0  0  0  0  0  0  0  0  0  0  0
    2.5008   -0.7701    2.4878 H   0  0  0  0  0  0  0  0  0  0  0  0
    1.1194   -1.6177    1.7514 H   0  0  0  0  0  0  0  0  0  0  0  0
    2.5321   -4.1396    0.6128 H   0  0  0  0  0  0  0  0  0  0  0  0
    2.4425   -5.7237   -1.2217 H   0  0  0  0  0  0  0  0  0  0  0  0
    1.9711   -4.9397   -3.5319 H   0  0  0  0  0  0  0  0  0  0  0  0
    1.5743   -2.5247   -3.9563 H   0  0  0  0  0  0  0  0  0  0  0  0
    2.0068   -0.8752   -2.1667 H   0  0  0  0  0  0  0  0  0  0  0  0
    4.6768   -0.6478    1.0529 H   0  0  0  0  0  0  0  0  0  0  0  0
    4.6919   -3.3692   -0.0810 H   0  0  0  0  0  0  0  0  0  0  0  0
    4.6131   -2.9916    1.6482 H   0  0  0  0  0  0  0  0  0  0  0  0
    6.4168   -1.6880    2.5436 H   0  0  0  0  0  0  0  0  0  0  0  0
    8.6885   -1.8193    2.9698 H   0  0  0  0  0  0  0  0  0  0  0  0
    9.0463   -1.8596    1.2420 H   0  0  0  0  0  0  0  0  0  0  0  0
    7.7795   -5.5601    0.3833 H   0  0  0  0  0  0  0  0  0  0  0  0
   10.1111   -4.0743    1.9823 H   0  0  0  0  0  0  0  0  0  0  0  0
  1  2  1  0  0  0  0
  1 23  1  0  0  0  0
  2 24  1  0  0  0  0
  2 25  1  0  0  0  0
  3  5  1  0  0  0  0
  3 11  1  0  0  0  0
  3  4  1  6  0  0  0
  3  2  1  0  0  0  0
  5  6  2  0  0  0  0
  5 10  1  0  0  0  0
  6  7  1  0  0  0  0
  6 26  1  0  0  0  0
  7  8  2  0  0  0  0
  7 27  1  0  0  0  0
  8  9  1  0  0  0  0
  8 28  1  0  0  0  0
  9 10  2  0  0  0  0
  9 29  1  0  0  0  0
 10 30  1  0  0  0  0
 11 12  1  0  0  0  0
 11 31  1  0  0  0  0
 12 13  1  0  0  0  0
 12 32  1  0  0  0  0
 12 33  1  0  0  0  0
 13 14  1  6  0  0  0
 13 15  1  0  0  0  0
 13 19  1  0  0  0  0
 15 16  1  0  0  0  0
 15 34  1  0  0  0  0
 16 17  1  0  0  0  0
 16 35  1  0  0  0  0
 16 36  1  0  0  0  0
 17 18  1  1  0  0  0
 17 19  1  0  0  0  0
 17 22  1  0  0  0  0
 19 20  1  1  0  0  0
 19 21  1  0  0  0  0
 21 37  1  0  0  0  0
 22 38  1  0  0  0  0
M  END
$$$$
