GB3
 OpenBabel04121316123D

 41 42  0  0  1  0  0  0  0  0999 V2000
    1.0359    0.3219    0.1740 O   0  0  0  0  0  0  0  0  0  0  0  0
    2.4519    0.1404    0.1118 C   0  0  0  0  0  0  0  0  0  0  0  0
    2.9325   -0.9791    1.0855 C   0  0  1  0  0  0  0  0  0  0  0  0
    2.5643   -0.7200    2.0869 H   0  0  0  0  0  0  0  0  0  0  0  0
    2.3785   -2.3735    0.7243 C   0  0  0  0  0  0  0  0  0  0  0  0
    2.6727   -3.4903    1.5322 C   0  0  0  0  0  0  0  0  0  0  0  0
    2.5523   -4.7868    1.0333 C   0  0  0  0  0  0  0  0  0  0  0  0
    1.8600   -5.0031   -0.1395 C   0  0  0  0  0  0  0  0  0  0  0  0
    1.3055   -3.9219   -0.8186 C   0  0  0  0  0  0  0  0  0  0  0  0
    1.6232   -2.6200   -0.4227 C   0  0  0  0  0  0  0  0  0  0  0  0
    4.4235   -0.9370    1.0667 N   0  0  0  0  0  0  0  0  0  0  0  0
    5.0384   -1.8514    2.0265 C   0  0  0  0  0  0  0  0  0  0  0  0
    6.5567   -1.8308    2.0798 C   0  0  1  0  0  0  0  0  0  0  0  0
    6.9230   -2.1953    1.1101 H   0  0  0  0  0  0  0  0  0  0  0  0
    7.1245   -0.4998    2.3604 N   0  0  0  0  0  0  0  0  0  0  0  0
    8.4693   -0.8228    2.8690 C   0  0  1  0  0  0  0  0  0  0  0  0
    8.8281    0.0138    3.4776 H   0  0  0  0  0  0  0  0  0  0  0  0
    8.2962   -2.0822    3.7473 C   0  0  1  0  0  0  0  0  0  0  0  0
    8.1012   -1.7681    4.7800 H   0  0  0  0  0  0  0  0  0  0  0  0
    7.0314   -2.7630    3.2123 C   0  0  2  0  0  0  0  0  0  0  0  0
    6.2942   -2.8199    4.0227 H   0  0  0  0  0  0  0  0  0  0  0  0
    7.2390   -4.0944    2.7525 O   0  0  0  0  0  0  0  0  0  0  0  0
    9.3985   -2.9788    3.7721 O   0  0  0  0  0  0  0  0  0  0  0  0
    9.4332   -1.0194    1.6996 C   0  0  0  0  0  0  0  0  0  0  0  0
    0.7761    0.7978   -0.6331 H   0  0  0  0  0  0  0  0  0  0  0  0
    2.8988    1.1056    0.3743 H   0  0  0  0  0  0  0  0  0  0  0  0
    2.7444   -0.0851   -0.9227 H   0  0  0  0  0  0  0  0  0  0  0  0
    3.1108   -3.3715    2.5159 H   0  0  0  0  0  0  0  0  0  0  0  0
    3.0212   -5.6113    1.5676 H   0  0  0  0  0  0  0  0  0  0  0  0
    1.7323   -6.0113   -0.5217 H   0  0  0  0  0  0  0  0  0  0  0  0
    0.6673   -4.0803   -1.6771 H   0  0  0  0  0  0  0  0  0  0  0  0
    1.2618   -1.8107   -1.0502 H   0  0  0  0  0  0  0  0  0  0  0  0
    4.7646    0.0052    1.2583 H   0  0  0  0  0  0  0  0  0  0  0  0
    4.8588   -2.8806    1.7297 H   0  0  0  0  0  0  0  0  0  0  0  0
    4.6244   -1.6649    3.0262 H   0  0  0  0  0  0  0  0  0  0  0  0
    6.5679   -0.0581    3.0912 H   0  0  0  0  0  0  0  0  0  0  0  0
    7.8649   -4.5014    3.3817 H   0  0  0  0  0  0  0  0  0  0  0  0
   10.1972   -2.4543    3.9559 H   0  0  0  0  0  0  0  0  0  0  0  0
    9.4980   -0.1093    1.0942 H   0  0  0  0  0  0  0  0  0  0  0  0
    9.1254   -1.8381    1.0398 H   0  0  0  0  0  0  0  0  0  0  0  0
   10.4375   -1.2517    2.0635 H   0  0  0  0  0  0  0  0  0  0  0  0
  1  2  1  0  0  0  0
  1 25  1  0  0  0  0
  2  3  1  0  0  0  0
  2 26  1  0  0  0  0
  2 27  1  0  0  0  0
  3  4  1  1  0  0  0
  3  5  1  0  0  0  0
  3 11  1  0  0  0  0
  5  6  2  0  0  0  0
  5 10  1  0  0  0  0
  6  7  1  0  0  0  0
  6 28  1  0  0  0  0
  7  8  2  0  0  0  0
  7 29  1  0  0  0  0
  8  9  1  0  0  0  0
  8 30  1  0  0  0  0
  9 10  2  0  0  0  0
  9 31  1  0  0  0  0
 10 32  1  0  0  0  0
 11 12  1  0  0  0  0
 11 33  1  0  0  0  0
 12 13  1  0  0  0  0
 12 34  1  0  0  0  0
 12 35  1  0  0  0  0
 13 14  1  6  0  0  0
 13 15  1  0  0  0  0
 13 20  1  0  0  0  0
 15 16  1  0  0  0  0
 15 36  1  0  0  0  0
 16 17  1  1  0  0  0
 16 18  1  0  0  0  0
 16 24  1  0  0  0  0
 18 19  1  1  0  0  0
 18 20  1  0  0  0  0
 18 23  1  0  0  0  0
 20 21  1  1  0  0  0
 20 22  1  0  0  0  0
 22 37  1  0  0  0  0
 23 38  1  0  0  0  0
 24 39  1  0  0  0  0
 24 40  1  0  0  0  0
 24 41  1  0  0  0  0
M  END
$$$$
