GBD
 OpenBabel04121316123D

 11 11  0  0  0  0  0  0  0  0999 V2000
    1.0092    0.2698    0.0359 O   0  0  0  0  0  0  0  0  0  0  0  0
    2.3630    0.1915    0.0381 C   0  0  0  0  0  0  0  0  0  0  0  0
    2.8991   -0.8501    0.3988 O   0  0  0  0  0  0  0  0  0  0  0  0
    3.0522    1.3700   -0.4572 C   0  0  0  0  0  0  0  0  0  0  0  0
    2.5894    2.6192   -0.2567 N   0  0  0  0  0  0  0  0  0  0  0  0
    3.7077    3.6273   -0.9986 S   0  0  0  0  0  0  0  0  0  0  0  0
    4.7841    2.4896   -1.6075 N   0  0  0  0  0  0  0  0  0  0  0  0
    4.2669    1.3353   -1.2049 C   0  0  0  0  0  0  0  0  0  0  0  0
    4.9447    0.2525   -1.6060 O   0  0  0  0  0  0  0  0  0  0  0  0
    0.7277   -0.6207    0.3295 H   0  0  0  0  0  0  0  0  0  0  0  0
    5.7093    0.5758   -2.1114 H   0  0  0  0  0  0  0  0  0  0  0  0
  1  2  1  0  0  0  0
  1 10  1  0  0  0  0
  2  3  2  0  0  0  0
  2  4  1  0  0  0  0
  4  5  2  0  0  0  0
  4  8  1  0  0  0  0
  5  6  1  0  0  0  0
  6  7  1  0  0  0  0
  7  8  2  0  0  0  0
  8  9  1  0  0  0  0
  9 11  1  0  0  0  0
M  END
$$$$
