GBN
 OpenBabel04121316123D

 29 29  0  0  0  0  0  0  0  0999 V2000
    1.0275    0.3607    0.2535 N   0  0  0  0  0  0  0  0  0  0  0  0
    2.4681    0.1586    0.1066 C   0  0  0  0  0  0  0  0  0  0  0  0
    2.9484   -0.5049   -1.2473 C   0  0  0  0  0  0  0  0  0  0  0  0
    3.8638   -1.7147   -0.9005 C   0  0  0  0  0  0  0  0  0  0  0  0
    3.0838   -2.8667   -0.2820 C   0  0  0  0  0  0  0  0  0  0  0  0
    1.9734   -3.3367   -1.2164 C   0  0  0  0  0  0  0  0  0  0  0  0
    1.0129   -2.2147   -1.5786 C   0  0  0  0  0  0  0  0  0  0  0  0
    1.7484   -0.9859   -2.1197 C   0  0  0  0  0  0  0  0  0  0  0  0
    3.7954    0.5442   -2.0455 C   0  0  0  0  0  0  0  0  0  0  0  0
    4.3594    0.0345   -3.3752 C   0  0  0  0  0  0  0  0  0  0  0  0
    4.2290   -1.0853   -3.8306 O   0  0  0  0  0  0  0  0  0  0  0  0
    5.0766    0.9631   -4.0478 O   0  0  0  0  0  0  0  0  0  0  0  0
    0.8131    0.7300    1.1783 H   0  0  0  0  0  0  0  0  0  0  0  0
    0.5648   -0.5441    0.2643 H   0  0  0  0  0  0  0  0  0  0  0  0
    2.8091   -0.4260    0.9684 H   0  0  0  0  0  0  0  0  0  0  0  0
    2.9330    1.1422    0.2299 H   0  0  0  0  0  0  0  0  0  0  0  0
    4.6773   -1.4015   -0.2332 H   0  0  0  0  0  0  0  0  0  0  0  0
    4.3595   -2.1149   -1.7903 H   0  0  0  0  0  0  0  0  0  0  0  0
    2.6599   -2.5643    0.6809 H   0  0  0  0  0  0  0  0  0  0  0  0
    3.7681   -3.6964   -0.0773 H   0  0  0  0  0  0  0  0  0  0  0  0
    1.4142   -4.1405   -0.7282 H   0  0  0  0  0  0  0  0  0  0  0  0
    2.4088   -3.7448   -2.1353 H   0  0  0  0  0  0  0  0  0  0  0  0
    0.4114   -2.0067   -0.6961 H   0  0  0  0  0  0  0  0  0  0  0  0
    0.2857   -2.5497   -2.3262 H   0  0  0  0  0  0  0  0  0  0  0  0
    1.0545   -0.1547   -2.2993 H   0  0  0  0  0  0  0  0  0  0  0  0
    2.0874   -1.2715   -3.1189 H   0  0  0  0  0  0  0  0  0  0  0  0
    4.6480    0.8626   -1.4286 H   0  0  0  0  0  0  0  0  0  0  0  0
    3.1799    1.4295   -2.2481 H   0  0  0  0  0  0  0  0  0  0  0  0
    5.1429    1.8304   -3.6144 H   0  0  0  0  0  0  0  0  0  0  0  0
  1  2  1  0  0  0  0
  1 13  1  0  0  0  0
  1 14  1  0  0  0  0
  2  3  1  0  0  0  0
  2 15  1  0  0  0  0
  2 16  1  0  0  0  0
  3  4  1  0  0  0  0
  3  8  1  0  0  0  0
  3  9  1  0  0  0  0
  4  5  1  0  0  0  0
  4 17  1  0  0  0  0
  4 18  1  0  0  0  0
  5  6  1  0  0  0  0
  5 19  1  0  0  0  0
  5 20  1  0  0  0  0
  6  7  1  0  0  0  0
  6 21  1  0  0  0  0
  6 22  1  0  0  0  0
  7  8  1  0  0  0  0
  7 23  1  0  0  0  0
  7 24  1  0  0  0  0
  8 25  1  0  0  0  0
  8 26  1  0  0  0  0
  9 10  1  0  0  0  0
  9 27  1  0  0  0  0
  9 28  1  0  0  0  0
 10 11  2  0  0  0  0
 10 12  1  0  0  0  0
 12 29  1  0  0  0  0
M  END
$$$$
