GBO
 OpenBabel04121316123D

 70 71  0  0  1  0  0  0  0  0999 V2000
   -0.8074   17.7142    3.4470 O   0  0  0  0  0  0  0  0  0  0  0  0
   -0.7720   16.4898    3.4113 C   0  0  0  0  0  0  0  0  0  0  0  0
    0.3276   15.7955    3.0171 N   0  0  0  0  0  0  0  0  0  0  0  0
    1.5505   16.4311    2.6163 C   0  0  0  0  0  0  0  0  0  0  0  0
    2.5832   15.4133    2.2408 C   0  0  0  0  0  0  0  0  0  0  0  0
    2.3794   14.0863    2.2869 C   0  0  0  0  0  0  0  0  0  0  0  0
    3.4214   13.1342    1.9131 C   0  0  0  0  0  0  0  0  0  0  0  0
    2.9362   11.7029    2.0444 C   0  0  0  0  0  0  0  0  0  0  0  0
    4.0371   10.7907    1.6351 C   0  0  0  0  0  0  0  0  0  0  0  0
    5.2315   11.2929    1.2400 C   0  0  0  0  0  0  0  0  0  0  0  0
    6.3225   10.3892    0.9664 C   0  0  0  0  0  0  0  0  0  0  0  0
    7.6373   10.9127    0.8399 O   0  0  0  0  0  0  0  0  0  0  0  0
    8.6927    9.8800    0.0727 P   0  0  2  0  0  0  0  0  0  0  0  0
    7.6892    8.7063    0.0671 O   0  0  0  0  0  0  0  0  0  0  0  0
    9.6120    9.0881    1.3058 O   0  0  0  0  0  0  0  0  0  0  0  0
    8.8586    7.5845    1.7109 P   0  0  0  0  0  0  0  0  0  0  0  0
    9.5898    7.5334    3.0566 O   0  0  0  0  0  0  0  0  0  0  0  0
    7.4201    8.1782    2.1593 O   0  0  0  0  0  0  0  0  0  0  0  0
    8.1051    6.0808    2.1161 O   0  0  0  0  0  0  0  0  0  0  0  0
    9.8169   11.1949    0.0789 O   0  0  0  0  0  0  0  0  0  0  0  0
    3.7308    9.3095    1.7346 C   0  0  0  0  0  0  0  0  0  0  0  0
    3.9222   15.9575    1.7933 C   0  0  0  0  0  0  0  0  0  0  0  0
   -1.9682   15.6550    3.8022 C   0  0  0  0  0  0  0  0  0  0  0  0
   -1.7853   14.1654    3.6819 C   0  0  0  0  0  0  0  0  0  0  0  0
   -3.0765   13.4604    4.0579 C   0  0  0  0  0  0  0  0  0  0  0  0
   -2.7914   12.0262    3.7948 C   0  0  0  0  0  0  0  0  0  0  0  0
   -3.7678   10.9926    4.3185 C   0  0  2  0  0  0  0  0  0  0  0  0
   -4.5318   10.8285    3.5505 H   0  0  0  0  0  0  0  0  0  0  0  0
   -4.7137   11.1298    5.8573 S   0  0  0  0  0  0  0  0  0  0  0  0
   -4.5216    9.3539    6.3039 C   0  0  0  0  0  0  0  0  0  0  0  0
   -3.5092    8.7020    5.3387 C   0  0  1  0  0  0  0  0  0  0  0  0
   -3.9631    7.9685    4.6659 H   0  0  0  0  0  0  0  0  0  0  0  0
   -2.8378    9.8320    4.6021 C   0  0  2  0  0  0  0  0  0  0  0  0
   -2.3690    9.4975    3.6678 H   0  0  0  0  0  0  0  0  0  0  0  0
   -1.7433   10.1844    5.5237 N   0  0  0  0  0  0  0  0  0  0  0  0
   -1.5295    9.1688    6.4043 C   0  0  0  0  0  0  0  0  0  0  0  0
   -0.8078    9.2423    7.3949 O   0  0  0  0  0  0  0  0  0  0  0  0
   -2.3669    8.1319    6.0453 N   0  0  0  0  0  0  0  0  0  0  0  0
    0.2890   14.7973    3.0385 H   0  0  0  0  0  0  0  0  0  0  0  0
    1.9040   17.0359    3.4546 H   0  0  0  0  0  0  0  0  0  0  0  0
    1.3254   17.0715    1.7602 H   0  0  0  0  0  0  0  0  0  0  0  0
    1.4669   13.6007    2.5938 H   0  0  0  0  0  0  0  0  0  0  0  0
    4.2846   13.2952    2.5750 H   0  0  0  0  0  0  0  0  0  0  0  0
    3.7005   13.3325    0.8686 H   0  0  0  0  0  0  0  0  0  0  0  0
    2.0583   11.5334    1.4093 H   0  0  0  0  0  0  0  0  0  0  0  0
    2.6460   11.4944    3.0828 H   0  0  0  0  0  0  0  0  0  0  0  0
    5.5059   12.3332    1.1619 H   0  0  0  0  0  0  0  0  0  0  0  0
    5.9847    9.8358    0.0773 H   0  0  0  0  0  0  0  0  0  0  0  0
    6.3327    9.8263    1.8848 H   0  0  0  0  0  0  0  0  0  0  0  0
    6.9584    8.1624    1.2827 H   0  0  0  0  0  0  0  0  0  0  0  0
    8.5563    5.8064    2.9410 H   0  0  0  0  0  0  0  0  0  0  0  0
   10.7119   10.8892   -0.1522 H   0  0  0  0  0  0  0  0  0  0  0  0
    2.7078    9.1224    2.0798 H   0  0  0  0  0  0  0  0  0  0  0  0
    4.4012    8.8113    2.4432 H   0  0  0  0  0  0  0  0  0  0  0  0
    3.8332    8.8301    0.7547 H   0  0  0  0  0  0  0  0  0  0  0  0
    3.9445   17.0492    1.8062 H   0  0  0  0  0  0  0  0  0  0  0  0
    4.1494   15.6350    0.7697 H   0  0  0  0  0  0  0  0  0  0  0  0
    4.7252   15.6031    2.4512 H   0  0  0  0  0  0  0  0  0  0  0  0
   -2.8006   15.9446    3.1554 H   0  0  0  0  0  0  0  0  0  0  0  0
   -2.2174   15.8895    4.8414 H   0  0  0  0  0  0  0  0  0  0  0  0
   -0.9687   13.8254    4.3424 H   0  0  0  0  0  0  0  0  0  0  0  0
   -1.4966   13.8733    2.6604 H   0  0  0  0  0  0  0  0  0  0  0  0
   -3.9211   13.7855    3.4494 H   0  0  0  0  0  0  0  0  0  0  0  0
   -3.2882   13.6347    5.1174 H   0  0  0  0  0  0  0  0  0  0  0  0
   -1.7823   11.8807    4.1913 H   0  0  0  0  0  0  0  0  0  0  0  0
   -2.6220   11.8186    2.7294 H   0  0  0  0  0  0  0  0  0  0  0  0
   -5.4827    8.8339    6.2484 H   0  0  0  0  0  0  0  0  0  0  0  0
   -4.1768    9.3157    7.3414 H   0  0  0  0  0  0  0  0  0  0  0  0
   -1.5655   11.1133    5.8962 H   0  0  0  0  0  0  0  0  0  0  0  0
   -2.3861    7.3166    6.6379 H   0  0  0  0  0  0  0  0  0  0  0  0
  1  2  2  0  0  0  0
  2  3  1  0  0  0  0
  2 23  1  0  0  0  0
  3  4  1  0  0  0  0
  3 39  1  0  0  0  0
  4  5  1  0  0  0  0
  4 40  1  0  0  0  0
  4 41  1  0  0  0  0
  5  6  2  0  0  0  0
  5 22  1  0  0  0  0
  6  7  1  0  0  0  0
  6 42  1  0  0  0  0
  7  8  1  0  0  0  0
  7 43  1  0  0  0  0
  7 44  1  0  0  0  0
  8  9  1  0  0  0  0
  8 45  1  0  0  0  0
  8 46  1  0  0  0  0
  9 10  2  0  0  0  0
  9 21  1  0  0  0  0
 10 11  1  0  0  0  0
 10 47  1  0  0  0  0
 11 12  1  0  0  0  0
 11 48  1  0  0  0  0
 11 49  1  0  0  0  0
 13 15  1  1  0  0  0
 13 20  1  0  0  0  0
 13 14  2  0  0  0  0
 13 12  1  0  0  0  0
 15 16  1  0  0  0  0
 16 17  2  0  0  0  0
 16 18  1  0  0  0  0
 16 19  1  0  0  0  0
 18 50  1  0  0  0  0
 19 51  1  0  0  0  0
 20 52  1  0  0  0  0
 21 53  1  0  0  0  0
 21 54  1  0  0  0  0
 21 55  1  0  0  0  0
 22 56  1  0  0  0  0
 22 57  1  0  0  0  0
 22 58  1  0  0  0  0
 23 24  1  0  0  0  0
 23 59  1  0  0  0  0
 23 60  1  0  0  0  0
 24 25  1  0  0  0  0
 24 61  1  0  0  0  0
 24 62  1  0  0  0  0
 25 26  1  0  0  0  0
 25 63  1  0  0  0  0
 25 64  1  0  0  0  0
 26 27  1  0  0  0  0
 26 65  1  0  0  0  0
 26 66  1  0  0  0  0
 27 29  1  0  0  0  0
 27 33  1  0  0  0  0
 27 28  1  6  0  0  0
 29 30  1  0  0  0  0
 30 31  1  0  0  0  0
 30 67  1  0  0  0  0
 30 68  1  0  0  0  0
 31 33  1  0  0  0  0
 31 38  1  0  0  0  0
 31 32  1  6  0  0  0
 33 35  1  0  0  0  0
 33 34  1  6  0  0  0
 35 36  1  0  0  0  0
 35 69  1  0  0  0  0
 36 38  1  0  0  0  0
 36 37  2  0  0  0  0
 38 70  1  0  0  0  0
M  END
$$$$
