GBX
 OpenBabel04121316123D

 70 74  0  0  1  0  0  0  0  0999 V2000
    3.2201    3.7577   -0.3547 O   0  0  0  0  0  0  0  0  0  0  0  0
    2.0129    3.5524   -0.2542 C   0  0  0  0  0  0  0  0  0  0  0  0
    1.4183    2.5468    0.4689 N   0  0  0  0  0  0  0  0  0  0  0  0
    2.2069    1.8411    1.4385 C   0  0  2  0  0  0  0  0  0  0  0  0
    2.7748    1.0776    0.8931 H   0  0  0  0  0  0  0  0  0  0  0  0
    1.3105    1.1092    2.4858 C   0  0  0  0  0  0  0  0  0  0  0  0
    1.4188    1.2215    3.7056 O   0  0  0  0  0  0  0  0  0  0  0  0
    0.3710    0.2424    2.0002 N   0  0  0  0  0  0  0  0  0  0  0  0
   -0.4637   -0.4943    2.9418 C   0  0  0  0  0  0  0  0  0  0  0  0
   -1.4302   -1.3668    2.1707 C   0  0  0  0  0  0  0  0  0  0  0  0
   -1.4498   -1.4170    0.9469 O   0  0  0  0  0  0  0  0  0  0  0  0
   -2.2737   -2.0857    2.9418 O   0  0  0  0  0  0  0  0  0  0  0  0
    3.1618    2.7987    2.1389 C   0  0  0  0  0  0  0  0  0  0  0  0
    2.2229    4.1064    3.0723 S   0  0  0  0  0  0  0  0  0  0  0  0
    3.5167    4.9893    4.0622 C   0  0  2  0  0  0  0  0  0  0  0  0
    3.1885    4.9618    5.1102 H   0  0  0  0  0  0  0  0  0  0  0  0
    3.4106    6.4524    3.5690 C   0  0  1  0  0  0  0  0  0  0  0  0
    3.4551    6.5154    2.4734 H   0  0  0  0  0  0  0  0  0  0  0  0
    2.1875    7.0673    3.9793 O   0  0  0  0  0  0  0  0  0  0  0  0
    4.6135    7.1867    4.0875 C   0  0  0  0  0  0  0  0  0  0  0  0
    4.6064    8.0623    4.9451 O   0  0  0  0  0  0  0  0  0  0  0  0
    5.8945    6.6252    3.5389 C   0  0  0  0  0  0  0  0  0  0  0  0
    6.7408    7.3531    3.0360 O   0  0  0  0  0  0  0  0  0  0  0  0
    6.0244    5.1578    3.6564 C   0  0  0  0  0  0  0  0  0  0  0  0
    4.9117    4.3739    4.0263 C   0  0  0  0  0  0  0  0  0  0  0  0
    5.1117    2.9913    4.3167 C   0  0  0  0  0  0  0  0  0  0  0  0
    4.0912    2.1299    4.8019 C   0  0  0  0  0  0  0  0  0  0  0  0
    4.1763    0.7421    4.6788 C   0  0  0  0  0  0  0  0  0  0  0  0
    5.3659    0.1594    4.2940 C   0  0  0  0  0  0  0  0  0  0  0  0
    6.4736    0.9843    3.9900 C   0  0  0  0  0  0  0  0  0  0  0  0
    6.3408    2.3976    3.9643 C   0  0  0  0  0  0  0  0  0  0  0  0
    7.4350    3.1991    3.5673 C   0  0  0  0  0  0  0  0  0  0  0  0
    7.2759    4.5816    3.4459 C   0  0  0  0  0  0  0  0  0  0  0  0
    8.6701    2.5920    3.3251 C   0  0  0  0  0  0  0  0  0  0  0  0
    8.8105    1.2050    3.4143 C   0  0  0  0  0  0  0  0  0  0  0  0
    7.7139    0.3861    3.7139 C   0  0  0  0  0  0  0  0  0  0  0  0
    7.8231   -1.0121    3.7789 C   0  0  0  0  0  0  0  0  0  0  0  0
    6.7099   -1.8128    4.0447 C   0  0  0  0  0  0  0  0  0  0  0  0
    5.4714   -1.2294    4.2663 C   0  0  0  0  0  0  0  0  0  0  0  0
    1.1131    4.4403   -1.0094 C   0  0  0  0  0  0  0  0  0  0  0  0
   -0.3481    4.0752   -0.9548 C   0  0  0  0  0  0  0  0  0  0  0  0
   -1.1724    4.9552   -1.8754 C   0  0  1  0  0  0  0  0  0  0  0  0
   -1.0662    6.0105   -1.6058 H   0  0  0  0  0  0  0  0  0  0  0  0
   -0.7892    4.7646   -3.3681 C   0  0  0  0  0  0  0  0  0  0  0  0
   -1.5028    4.2045   -4.1900 O   0  0  0  0  0  0  0  0  0  0  0  0
    0.4264    5.2363   -3.7337 O   0  0  0  0  0  0  0  0  0  0  0  0
   -2.5824    4.5645   -1.6703 N   0  0  0  0  0  0  0  0  0  0  0  0
    0.4206    2.5242    0.6215 H   0  0  0  0  0  0  0  0  0  0  0  0
    0.2798    0.0412    1.0077 H   0  0  0  0  0  0  0  0  0  0  0  0
   -1.0120    0.2293    3.5553 H   0  0  0  0  0  0  0  0  0  0  0  0
    0.1792   -1.1098    3.5820 H   0  0  0  0  0  0  0  0  0  0  0  0
   -2.1730   -1.9661    3.9060 H   0  0  0  0  0  0  0  0  0  0  0  0
    3.8971    3.3129    1.5238 H   0  0  0  0  0  0  0  0  0  0  0  0
    3.7820    2.0947    2.6522 H   0  0  0  0  0  0  0  0  0  0  0  0
    2.1773    7.1055    4.9529 H   0  0  0  0  0  0  0  0  0  0  0  0
    3.1025    2.5131    5.0506 H   0  0  0  0  0  0  0  0  0  0  0  0
    3.2790    0.1416    4.8210 H   0  0  0  0  0  0  0  0  0  0  0  0
    8.1216    5.2138    3.1762 H   0  0  0  0  0  0  0  0  0  0  0  0
    9.5417    3.1947    3.0786 H   0  0  0  0  0  0  0  0  0  0  0  0
    9.7898    0.7652    3.2451 H   0  0  0  0  0  0  0  0  0  0  0  0
    8.7872   -1.4897    3.6300 H   0  0  0  0  0  0  0  0  0  0  0  0
    6.8132   -2.8916    4.1090 H   0  0  0  0  0  0  0  0  0  0  0  0
    4.6088   -1.8568    4.4806 H   0  0  0  0  0  0  0  0  0  0  0  0
    1.5150    4.2824   -2.0080 H   0  0  0  0  0  0  0  0  0  0  0  0
    1.2792    5.4784   -0.6956 H   0  0  0  0  0  0  0  0  0  0  0  0
   -0.7016    4.1774    0.0833 H   0  0  0  0  0  0  0  0  0  0  0  0
   -0.4671    3.0191   -1.2335 H   0  0  0  0  0  0  0  0  0  0  0  0
    0.9599    5.7070   -3.0675 H   0  0  0  0  0  0  0  0  0  0  0  0
   -2.8363    4.5738   -0.6853 H   0  0  0  0  0  0  0  0  0  0  0  0
   -2.7027    3.6016   -2.0001 H   0  0  0  0  0  0  0  0  0  0  0  0
  1  2  2  0  0  0  0
  2  3  1  0  0  0  0
  2 40  1  0  0  0  0
  3 48  1  0  0  0  0
  4  6  1  0  0  0  0
  4 13  1  0  0  0  0
  4  5  1  6  0  0  0
  4  3  1  0  0  0  0
  6  7  2  0  0  0  0
  6  8  1  0  0  0  0
  8  9  1  0  0  0  0
  8 49  1  0  0  0  0
  9 10  1  0  0  0  0
  9 50  1  0  0  0  0
  9 51  1  0  0  0  0
 10 11  2  0  0  0  0
 10 12  1  0  0  0  0
 12 52  1  0  0  0  0
 13 14  1  0  0  0  0
 13 53  1  0  0  0  0
 13 54  1  0  0  0  0
 14 15  1  0  0  0  0
 15 16  1  1  0  0  0
 15 17  1  0  0  0  0
 15 25  1  0  0  0  0
 17 20  1  0  0  0  0
 17 19  1  0  0  0  0
 17 18  1  6  0  0  0
 19 55  1  0  0  0  0
 20 21  2  0  0  0  0
 20 22  1  0  0  0  0
 22 23  2  0  0  0  0
 22 24  1  0  0  0  0
 24 25  2  0  0  0  0
 24 33  1  0  0  0  0
 25 26  1  0  0  0  0
 26 27  2  0  0  0  0
 26 31  1  0  0  0  0
 27 28  1  0  0  0  0
 27 56  1  0  0  0  0
 28 29  2  0  0  0  0
 28 57  1  0  0  0  0
 29 30  1  0  0  0  0
 29 39  1  0  0  0  0
 30 31  2  0  0  0  0
 30 36  1  0  0  0  0
 31 32  1  0  0  0  0
 32 33  2  0  0  0  0
 32 34  1  0  0  0  0
 33 58  1  0  0  0  0
 34 35  2  0  0  0  0
 34 59  1  0  0  0  0
 35 36  1  0  0  0  0
 35 60  1  0  0  0  0
 36 37  2  0  0  0  0
 37 38  1  0  0  0  0
 37 61  1  0  0  0  0
 38 39  2  0  0  0  0
 38 62  1  0  0  0  0
 39 63  1  0  0  0  0
 40 41  1  0  0  0  0
 40 64  1  0  0  0  0
 40 65  1  0  0  0  0
 41 42  1  0  0  0  0
 41 66  1  0  0  0  0
 41 67  1  0  0  0  0
 42 43  1  1  0  0  0
 42 44  1  0  0  0  0
 42 47  1  0  0  0  0
 44 45  2  0  0  0  0
 44 46  1  0  0  0  0
 46 68  1  0  0  0  0
 47 69  1  0  0  0  0
 47 70  1  0  0  0  0
M  END
$$$$
