GC2
 OpenBabel04121316123D

 34 35  0  0  1  0  0  0  0  0999 V2000
    1.0334    0.0826    0.0575 C   0  0  0  0  0  0  0  0  0  0  0  0
    2.5236    0.0551    0.1895 C   0  0  0  0  0  0  0  0  0  0  0  0
    3.1052   -0.7931    0.8501 O   0  0  0  0  0  0  0  0  0  0  0  0
    3.1652    1.0265   -0.5456 N   0  0  0  0  0  0  0  0  0  0  0  0
    4.6288    1.0343   -0.6369 C   0  0  1  0  0  0  0  0  0  0  0  0
    4.9917    1.1829    0.3900 H   0  0  0  0  0  0  0  0  0  0  0  0
    5.1264   -0.3559   -1.1027 C   0  0  0  0  0  0  0  0  0  0  0  0
    5.9765   -0.4125   -2.2468 N   0  0  3  0  0  0  0  0  0  0  0  0
    6.6121   -1.6557   -2.5973 C   0  0  0  0  0  0  0  0  0  0  0  0
    7.5645   -1.2609   -3.7159 C   0  0  0  0  0  0  0  0  0  0  0  0
    7.7703    0.2464   -3.5431 C   0  0  1  0  0  0  0  0  0  0  0  0
    8.0162    0.7279   -4.4936 H   0  0  0  0  0  0  0  0  0  0  0  0
    6.4257    0.7337   -2.9893 C   0  0  2  0  0  0  0  0  0  0  0  0
    5.7371    0.8751   -3.8352 H   0  0  0  0  0  0  0  0  0  0  0  0
    6.4677    2.0104   -2.1444 C   0  0  2  0  0  0  0  0  0  0  0  0
    7.2401    1.9573   -1.3694 H   0  0  0  0  0  0  0  0  0  0  0  0
    5.1016    2.2312   -1.4832 C   0  0  2  0  0  0  0  0  0  0  0  0
    4.3677    2.4669   -2.2637 H   0  0  0  0  0  0  0  0  0  0  0  0
    5.1368    3.4018   -0.6448 O   0  0  0  0  0  0  0  0  0  0  0  0
    6.7644    3.1609   -2.9509 O   0  0  0  0  0  0  0  0  0  0  0  0
    8.8517    0.4672   -2.6401 O   0  0  0  0  0  0  0  0  0  0  0  0
    0.6208   -0.7299    0.6610 H   0  0  0  0  0  0  0  0  0  0  0  0
    0.7439   -0.0704   -0.9861 H   0  0  0  0  0  0  0  0  0  0  0  0
    0.6520    1.0370    0.4239 H   0  0  0  0  0  0  0  0  0  0  0  0
    2.6320    1.6605   -1.1260 H   0  0  0  0  0  0  0  0  0  0  0  0
    4.2782   -1.0125   -1.3264 H   0  0  0  0  0  0  0  0  0  0  0  0
    5.6469   -0.8072   -0.2479 H   0  0  0  0  0  0  0  0  0  0  0  0
    5.8852   -2.4038   -2.9319 H   0  0  0  0  0  0  0  0  0  0  0  0
    7.1630   -2.0666   -1.7434 H   0  0  0  0  0  0  0  0  0  0  0  0
    7.0842   -1.4635   -4.6796 H   0  0  0  0  0  0  0  0  0  0  0  0
    8.4985   -1.8268   -3.6513 H   0  0  0  0  0  0  0  0  0  0  0  0
    5.6210    4.0908   -1.1379 H   0  0  0  0  0  0  0  0  0  0  0  0
    6.1142    3.2064   -3.6731 H   0  0  0  0  0  0  0  0  0  0  0  0
    8.5765    0.1344   -1.7675 H   0  0  0  0  0  0  0  0  0  0  0  0
  1  2  1  0  0  0  0
  1 22  1  0  0  0  0
  1 23  1  0  0  0  0
  1 24  1  0  0  0  0
  2  3  2  0  0  0  0
  2  4  1  0  0  0  0
  4  5  1  0  0  0  0
  4 25  1  0  0  0  0
  5  6  1  1  0  0  0
  5  7  1  0  0  0  0
  5 17  1  0  0  0  0
  7  8  1  0  0  0  0
  7 26  1  0  0  0  0
  7 27  1  0  0  0  0
  8  9  1  0  0  0  0
  8 13  1  0  0  0  0
  9 10  1  0  0  0  0
  9 28  1  0  0  0  0
  9 29  1  0  0  0  0
 10 11  1  0  0  0  0
 10 30  1  0  0  0  0
 10 31  1  0  0  0  0
 11 13  1  0  0  0  0
 11 21  1  0  0  0  0
 11 12  1  6  0  0  0
 13 14  1  6  0  0  0
 13 15  1  0  0  0  0
 15 17  1  0  0  0  0
 15 20  1  0  0  0  0
 15 16  1  1  0  0  0
 17 18  1  6  0  0  0
 17 19  1  0  0  0  0
 19 32  1  0  0  0  0
 20 33  1  0  0  0  0
 21 34  1  0  0  0  0
M  END
$$$$
