GCG
 OpenBabel04121316123D

 97 96  0  0  1  0  0  0  0  0999 V2000
    0.9199   -0.0426   -0.2976 S   0  0  0  0  0  0  0  0  0  0  0  0
    2.7391   -0.0841   -0.0770 C   0  0  0  0  0  0  0  0  0  0  0  0
    3.2678    1.0684    0.7930 C   0  0  1  0  0  0  0  0  0  0  0  0
    2.9101    2.0340    0.4131 H   0  0  0  0  0  0  0  0  0  0  0  0
    2.8340    0.8974    2.2735 C   0  0  0  0  0  0  0  0  0  0  0  0
    3.6148    0.6478    3.1934 O   0  0  0  0  0  0  0  0  0  0  0  0
    1.4929    1.0275    2.4994 N   0  0  0  0  0  0  0  0  0  0  0  0
    0.9486    0.8462    3.8183 C   0  0  0  0  0  0  0  0  0  0  0  0
   -0.5674    0.8398    3.7238 C   0  0  0  0  0  0  0  0  0  0  0  0
   -1.1696    0.9215    2.6547 O   0  0  0  0  0  0  0  0  0  0  0  0
   -1.2049    0.7169    4.9351 N   0  0  0  0  0  0  0  0  0  0  0  0
   -2.6445    0.7189    4.9774 C   0  0  0  0  0  0  0  0  0  0  0  0
   -3.1588    0.5946    6.3964 C   0  0  0  0  0  0  0  0  0  0  0  0
   -4.6821    0.5932    6.4059 C   0  0  0  0  0  0  0  0  0  0  0  0
   -5.1899    0.4669    7.8337 C   0  0  0  0  0  0  0  0  0  0  0  0
   -6.6478    0.4668    7.8329 N   0  0  0  0  0  0  0  0  0  0  0  0
   -7.1403    0.3459    9.2006 C   0  0  0  0  0  0  0  0  0  0  0  0
   -8.6614    0.3492    9.1929 C   0  0  0  0  0  0  0  0  0  0  0  0
   -9.1789    0.2274   10.6134 C   0  0  0  0  0  0  0  0  0  0  0  0
  -10.6209    0.2196   10.6556 N   0  0  0  0  0  0  0  0  0  0  0  0
  -11.2643    0.1065   11.8664 C   0  0  0  0  0  0  0  0  0  0  0  0
  -10.6549    0.0334   12.9310 O   0  0  0  0  0  0  0  0  0  0  0  0
  -12.7878    0.0953   11.7648 C   0  0  0  0  0  0  0  0  0  0  0  0
  -13.3627   -0.0917   13.0698 N   0  0  0  0  0  0  0  0  0  0  0  0
  -14.7116   -0.0447   13.3081 C   0  0  0  0  0  0  0  0  0  0  0  0
  -15.5237    0.0470   12.3899 O   0  0  0  0  0  0  0  0  0  0  0  0
  -15.1315   -0.1405   14.7985 C   0  0  1  0  0  0  0  0  0  0  0  0
  -14.7090   -1.0597   15.2264 H   0  0  0  0  0  0  0  0  0  0  0  0
  -14.5747    1.0122   15.5098 N   0  0  0  0  0  0  0  0  0  0  0  0
  -13.2307    1.0631   15.7734 C   0  0  0  0  0  0  0  0  0  0  0  0
  -12.4471    0.1899   15.4303 O   0  0  0  0  0  0  0  0  0  0  0  0
  -12.8018    2.2685   16.5368 C   0  0  0  0  0  0  0  0  0  0  0  0
  -11.2785    2.3428   16.5988 C   0  0  0  0  0  0  0  0  0  0  0  0
  -10.7732    3.5200   17.4297 C   0  0  1  0  0  0  0  0  0  0  0  0
  -11.1475    4.4681   17.0295 H   0  0  0  0  0  0  0  0  0  0  0  0
  -11.1844    3.4083   18.9219 C   0  0  0  0  0  0  0  0  0  0  0  0
  -10.3985    3.1988   19.8450 O   0  0  0  0  0  0  0  0  0  0  0  0
  -12.5055    3.5484   19.1776 O   0  0  0  0  0  0  0  0  0  0  0  0
   -9.2967    3.5533   17.3336 N   0  0  0  0  0  0  0  0  0  0  0  0
  -16.6631   -0.1672   14.8729 C   0  0  0  0  0  0  0  0  0  0  0  0
  -17.3005   -0.2442   16.5851 S   0  0  0  0  0  0  0  0  0  0  0  0
    4.7280    1.1380    0.7815 N   0  0  0  0  0  0  0  0  0  0  0  0
    5.3296    2.1760    1.4677 C   0  0  0  0  0  0  0  0  0  0  0  0
    4.7108    3.0961    1.9869 O   0  0  0  0  0  0  0  0  0  0  0  0
    6.8273    2.0957    1.4676 C   0  0  0  0  0  0  0  0  0  0  0  0
    7.4471    3.2455    2.2588 C   0  0  0  0  0  0  0  0  0  0  0  0
    8.9780    3.2397    2.2456 C   0  0  1  0  0  0  0  0  0  0  0  0
    9.3699    2.3009    2.6518 H   0  0  0  0  0  0  0  0  0  0  0  0
    9.5660    3.4492    0.8238 C   0  0  0  0  0  0  0  0  0  0  0  0
   10.1741    4.4555    0.4633 O   0  0  0  0  0  0  0  0  0  0  0  0
    9.3685    2.4298   -0.0439 O   0  0  0  0  0  0  0  0  0  0  0  0
    9.4552    4.3290    3.1277 N   0  0  0  0  0  0  0  0  0  0  0  0
    0.7487   -1.2517   -0.8483 H   0  0  0  0  0  0  0  0  0  0  0  0
    3.1721   -0.0294   -1.0813 H   0  0  0  0  0  0  0  0  0  0  0  0
    3.0351   -1.0491    0.3516 H   0  0  0  0  0  0  0  0  0  0  0  0
    0.8343    1.0327    1.7184 H   0  0  0  0  0  0  0  0  0  0  0  0
    1.2916    1.6745    4.4442 H   0  0  0  0  0  0  0  0  0  0  0  0
    1.3021   -0.1063    4.2255 H   0  0  0  0  0  0  0  0  0  0  0  0
   -0.6668    0.6621    5.7917 H   0  0  0  0  0  0  0  0  0  0  0  0
   -3.0004   -0.1143    4.3602 H   0  0  0  0  0  0  0  0  0  0  0  0
   -2.9958    1.6492    4.5160 H   0  0  0  0  0  0  0  0  0  0  0  0
   -2.7792    1.4256    7.0042 H   0  0  0  0  0  0  0  0  0  0  0  0
   -2.7789   -0.3291    6.8507 H   0  0  0  0  0  0  0  0  0  0  0  0
   -5.0548   -0.2398    5.7960 H   0  0  0  0  0  0  0  0  0  0  0  0
   -5.0569    1.5199    5.9525 H   0  0  0  0  0  0  0  0  0  0  0  0
   -4.8144    1.3086    8.4279 H   0  0  0  0  0  0  0  0  0  0  0  0
   -4.8096   -0.4611    8.2775 H   0  0  0  0  0  0  0  0  0  0  0  0
   -6.9916   -0.3112    7.2693 H   0  0  0  0  0  0  0  0  0  0  0  0
   -6.7766    1.1862    9.8047 H   0  0  0  0  0  0  0  0  0  0  0  0
   -6.7742   -0.5828    9.6553 H   0  0  0  0  0  0  0  0  0  0  0  0
   -9.0430   -0.4828    8.5876 H   0  0  0  0  0  0  0  0  0  0  0  0
   -9.0391    1.2744    8.7392 H   0  0  0  0  0  0  0  0  0  0  0  0
   -8.8250    1.0615   11.2312 H   0  0  0  0  0  0  0  0  0  0  0  0
   -8.8233   -0.7005   11.0779 H   0  0  0  0  0  0  0  0  0  0  0  0
  -11.1548    0.2962    9.7986 H   0  0  0  0  0  0  0  0  0  0  0  0
  -13.1186   -0.7309   11.1317 H   0  0  0  0  0  0  0  0  0  0  0  0
  -13.1375    1.0493   11.3586 H   0  0  0  0  0  0  0  0  0  0  0  0
  -12.7024   -0.1370   13.8554 H   0  0  0  0  0  0  0  0  0  0  0  0
  -15.2146    1.5863   16.0489 H   0  0  0  0  0  0  0  0  0  0  0  0
  -13.2319    2.0958   17.5227 H   0  0  0  0  0  0  0  0  0  0  0  0
  -13.2193    3.1820   16.0968 H   0  0  0  0  0  0  0  0  0  0  0  0
  -10.8889    2.4143   15.5709 H   0  0  0  0  0  0  0  0  0  0  0  0
  -10.8858    1.4013   17.0061 H   0  0  0  0  0  0  0  0  0  0  0  0
  -13.0746    3.7831   18.4243 H   0  0  0  0  0  0  0  0  0  0  0  0
   -8.9837    3.5119   16.3662 H   0  0  0  0  0  0  0  0  0  0  0  0
   -8.9272    2.7126   17.7895 H   0  0  0  0  0  0  0  0  0  0  0  0
  -17.0582   -1.0189   14.3092 H   0  0  0  0  0  0  0  0  0  0  0  0
  -17.0732    0.7457   14.4269 H   0  0  0  0  0  0  0  0  0  0  0  0
  -16.7652   -1.4285   16.9209 H   0  0  0  0  0  0  0  0  0  0  0  0
    5.2784    0.3985    0.3652 H   0  0  0  0  0  0  0  0  0  0  0  0
    7.0863    2.1687    0.4108 H   0  0  0  0  0  0  0  0  0  0  0  0
    7.1644    1.1298    1.8640 H   0  0  0  0  0  0  0  0  0  0  0  0
    7.0864    3.1881    3.2972 H   0  0  0  0  0  0  0  0  0  0  0  0
    7.0739    4.1967    1.8573 H   0  0  0  0  0  0  0  0  0  0  0  0
    8.9473    1.6321    0.3197 H   0  0  0  0  0  0  0  0  0  0  0  0
    9.0126    4.2910    4.0430 H   0  0  0  0  0  0  0  0  0  0  0  0
    9.1812    5.2242    2.7108 H   0  0  0  0  0  0  0  0  0  0  0  0
  1  2  1  0  0  0  0
  1 53  1  0  0  0  0
  2  3  1  0  0  0  0
  2 54  1  0  0  0  0
  2 55  1  0  0  0  0
  3  4  1  6  0  0  0
  3  5  1  0  0  0  0
  3 42  1  0  0  0  0
  5  6  2  0  0  0  0
  5  7  1  0  0  0  0
  7  8  1  0  0  0  0
  7 56  1  0  0  0  0
  8  9  1  0  0  0  0
  8 57  1  0  0  0  0
  8 58  1  0  0  0  0
  9 10  2  0  0  0  0
  9 11  1  0  0  0  0
 11 12  1  0  0  0  0
 11 59  1  0  0  0  0
 12 13  1  0  0  0  0
 12 60  1  0  0  0  0
 12 61  1  0  0  0  0
 13 14  1  0  0  0  0
 13 62  1  0  0  0  0
 13 63  1  0  0  0  0
 14 15  1  0  0  0  0
 14 64  1  0  0  0  0
 14 65  1  0  0  0  0
 15 16  1  0  0  0  0
 15 66  1  0  0  0  0
 15 67  1  0  0  0  0
 16 17  1  0  0  0  0
 16 68  1  0  0  0  0
 17 18  1  0  0  0  0
 17 69  1  0  0  0  0
 17 70  1  0  0  0  0
 18 19  1  0  0  0  0
 18 71  1  0  0  0  0
 18 72  1  0  0  0  0
 19 20  1  0  0  0  0
 19 73  1  0  0  0  0
 19 74  1  0  0  0  0
 20 21  1  0  0  0  0
 20 75  1  0  0  0  0
 21 22  2  0  0  0  0
 21 23  1  0  0  0  0
 23 24  1  0  0  0  0
 23 76  1  0  0  0  0
 23 77  1  0  0  0  0
 24 25  1  0  0  0  0
 24 78  1  0  0  0  0
 25 26  2  0  0  0  0
 25 27  1  0  0  0  0
 27 28  1  1  0  0  0
 27 29  1  0  0  0  0
 27 40  1  0  0  0  0
 29 30  1  0  0  0  0
 29 79  1  0  0  0  0
 30 31  2  0  0  0  0
 30 32  1  0  0  0  0
 32 33  1  0  0  0  0
 32 80  1  0  0  0  0
 32 81  1  0  0  0  0
 33 34  1  0  0  0  0
 33 82  1  0  0  0  0
 33 83  1  0  0  0  0
 34 35  1  6  0  0  0
 34 36  1  0  0  0  0
 34 39  1  0  0  0  0
 36 37  2  0  0  0  0
 36 38  1  0  0  0  0
 38 84  1  0  0  0  0
 39 85  1  0  0  0  0
 39 86  1  0  0  0  0
 40 41  1  0  0  0  0
 40 87  1  0  0  0  0
 40 88  1  0  0  0  0
 41 89  1  0  0  0  0
 42 43  1  0  0  0  0
 42 90  1  0  0  0  0
 43 44  2  0  0  0  0
 43 45  1  0  0  0  0
 45 46  1  0  0  0  0
 45 91  1  0  0  0  0
 45 92  1  0  0  0  0
 46 47  1  0  0  0  0
 46 93  1  0  0  0  0
 46 94  1  0  0  0  0
 47 48  1  1  0  0  0
 47 49  1  0  0  0  0
 47 52  1  0  0  0  0
 49 50  2  0  0  0  0
 49 51  1  0  0  0  0
 51 95  1  0  0  0  0
 52 96  1  0  0  0  0
 52 97  1  0  0  0  0
M  END
$$$$
