GCO
 OpenBabel04121316123D

 25 24  0  0  1  0  0  0  0  0999 V2000
    4.8052    2.3224    2.0190 O   0  0  0  0  0  0  0  0  0  0  0  0
    4.1441    2.4000    3.2975 C   0  0  0  0  0  0  0  0  0  0  0  0
    4.7725    1.1496    4.0680 C   0  0  2  0  0  0  0  0  0  0  0  0
    4.7782    0.3749    3.2980 H   0  0  0  0  0  0  0  0  0  0  0  0
    4.3444    0.3017    5.3774 C   0  0  2  0  0  0  0  0  0  0  0  0
    5.0254   -0.5570    5.4162 H   0  0  0  0  0  0  0  0  0  0  0  0
    2.8997   -0.1375    5.2504 C   0  0  1  0  0  0  0  0  0  0  0  0
    2.5017   -0.6952    6.1053 H   0  0  0  0  0  0  0  0  0  0  0  0
    2.1317    1.1726    5.0186 C   0  0  2  0  0  0  0  0  0  0  0  0
    2.2615    1.3248    3.9633 H   0  0  0  0  0  0  0  0  0  0  0  0
    2.5006    2.4704    5.9000 C   0  0  0  0  0  0  0  0  0  0  0  0
    1.6361    3.0952    6.4725 O   0  0  0  0  0  0  0  0  0  0  0  0
    3.7579    2.9978    5.9132 O   0  0  0  0  0  0  0  0  0  0  0  0
    0.7137    1.0271    5.0054 O   0  0  0  0  0  0  0  0  0  0  0  0
    2.8282   -1.0260    4.1141 O   0  0  0  0  0  0  0  0  0  0  0  0
    4.5367    0.9291    6.6605 O   0  0  0  0  0  0  0  0  0  0  0  0
    6.1246    1.5658    4.2933 O   0  0  0  0  0  0  0  0  0  0  0  0
    5.1053    3.2061    1.7619 H   0  0  0  0  0  0  0  0  0  0  0  0
    3.0882    2.4579    3.0223 H   0  0  0  0  0  0  0  0  0  0  0  0
    4.3733    3.3844    3.7312 H   0  0  0  0  0  0  0  0  0  0  0  0
    4.5468    2.4017    6.0182 H   0  0  0  0  0  0  0  0  0  0  0  0
    0.4090    1.8938    4.6579 H   0  0  0  0  0  0  0  0  0  0  0  0
    3.3571   -1.8272    4.3035 H   0  0  0  0  0  0  0  0  0  0  0  0
    3.8999    0.5574    7.3150 H   0  0  0  0  0  0  0  0  0  0  0  0
    6.3670    1.9956    3.4485 H   0  0  0  0  0  0  0  0  0  0  0  0
  1  2  1  0  0  0  0
  1 18  1  0  0  0  0
  2 19  1  0  0  0  0
  2 20  1  0  0  0  0
  3 17  1  0  0  0  0
  3  4  1  6  0  0  0
  3  2  1  0  0  0  0
  5  7  1  0  0  0  0
  5 16  1  0  0  0  0
  5  6  1  6  0  0  0
  5  3  1  0  0  0  0
  7  8  1  1  0  0  0
  7 15  1  0  0  0  0
  9 11  1  0  0  0  0
  9 14  1  0  0  0  0
  9 10  1  6  0  0  0
  9  7  1  0  0  0  0
 11 12  2  0  0  0  0
 11 13  1  0  0  0  0
 13 21  1  0  0  0  0
 14 22  1  0  0  0  0
 15 23  1  0  0  0  0
 16 24  1  0  0  0  0
 17 25  1  0  0  0  0
M  END
$$$$
