GCQ
 OpenBabel04121316123D

 39 40  0  0  1  0  0  0  0  0999 V2000
    7.6170    0.5674   -5.1877 N   0  0  0  0  0  0  0  0  0  0  0  0
    7.3020    0.4275   -3.8734 C   0  0  0  0  0  0  0  0  0  0  0  0
    7.2226   -0.9322   -3.3425 C   0  0  0  0  0  0  0  0  0  0  0  0
    7.2311   -1.0158   -2.0219 C   0  0  0  0  0  0  0  0  0  0  0  0
    6.9604    0.0757   -1.2198 N   0  0  0  0  0  0  0  0  0  0  0  0
    6.7834    1.3330   -1.8196 C   0  0  0  0  0  0  0  0  0  0  0  0
    6.3783    2.3121   -1.1720 O   0  0  0  0  0  0  0  0  0  0  0  0
    7.1249    1.4836   -3.1408 N   0  0  0  0  0  0  0  0  0  0  0  0
    6.5527   -0.0974    0.1871 C   0  0  2  0  0  0  0  0  0  0  0  0
    5.4643    0.0030    0.2295 H   0  0  0  0  0  0  0  0  0  0  0  0
    7.1002    0.9855    0.9983 O   0  0  0  0  0  0  0  0  0  0  0  0
    8.4185    0.5895    1.3752 C   0  0  1  0  0  0  0  0  0  0  0  0
    8.7273    1.0908    2.3035 H   0  0  0  0  0  0  0  0  0  0  0  0
    8.2837   -0.9154    1.6239 C   0  0  2  0  0  0  0  0  0  0  0  0
    9.0948   -1.4310    1.1378 H   0  0  0  0  0  0  0  0  0  0  0  0
    7.0039   -1.3544    0.9452 C   0  0  0  0  0  0  0  0  0  0  0  0
    6.0648   -1.7272    1.8532 F   0  0  0  0  0  0  0  0  0  0  0  0
    7.2489   -2.4647    0.2210 F   0  0  0  0  0  0  0  0  0  0  0  0
    8.2958   -1.2693    3.0137 O   0  0  0  0  0  0  0  0  0  0  0  0
    9.4066    0.9931    0.2350 C   0  0  0  0  0  0  0  0  0  0  0  0
   10.6532    0.5011    0.5754 O   0  0  0  0  0  0  0  0  0  0  0  0
   12.0706    0.6751   -0.0919 P   0  0  1  0  0  0  0  0  0  0  0  0
   12.9381    1.7023    0.5563 O   0  0  0  0  0  0  0  0  0  0  0  0
   12.6047   -0.8127    0.0411 O   0  0  0  0  0  0  0  0  0  0  0  0
   11.7201   -2.1068    0.3376 P   0  0  0  0  0  0  0  0  0  0  0  0
   10.7619   -2.5524   -0.7118 O   0  0  0  0  0  0  0  0  0  0  0  0
   12.9254   -3.1093    0.6121 O   0  0  0  0  0  0  0  0  0  0  0  0
   11.1050   -1.9873    1.8059 O   0  0  0  0  0  0  0  0  0  0  0  0
   11.9942    0.9528   -1.6699 O   0  0  0  0  0  0  0  0  0  0  0  0
    7.8844   -0.2292   -5.7506 H   0  0  0  0  0  0  0  0  0  0  0  0
    7.8611    1.4896   -5.5229 H   0  0  0  0  0  0  0  0  0  0  0  0
    7.2982   -1.7952   -3.9860 H   0  0  0  0  0  0  0  0  0  0  0  0
    7.4332   -1.9896   -1.6078 H   0  0  0  0  0  0  0  0  0  0  0  0
    7.4646   -0.9398    3.4123 H   0  0  0  0  0  0  0  0  0  0  0  0
    9.4234    2.0779    0.1038 H   0  0  0  0  0  0  0  0  0  0  0  0
    9.1399    0.5430   -0.7154 H   0  0  0  0  0  0  0  0  0  0  0  0
   13.7293   -2.5596    0.5377 H   0  0  0  0  0  0  0  0  0  0  0  0
   10.3804   -2.6371    1.9596 H   0  0  0  0  0  0  0  0  0  0  0  0
   12.6621    1.6381   -1.9143 H   0  0  0  0  0  0  0  0  0  0  0  0
  1  2  1  0  0  0  0
  1 30  1  0  0  0  0
  1 31  1  0  0  0  0
  2  3  1  0  0  0  0
  2  8  2  0  0  0  0
  3  4  2  0  0  0  0
  3 32  1  0  0  0  0
  4  5  1  0  0  0  0
  4 33  1  0  0  0  0
  5  6  1  0  0  0  0
  6  7  2  0  0  0  0
  6  8  1  0  0  0  0
  9 11  1  0  0  0  0
  9 16  1  0  0  0  0
  9 10  1  1  0  0  0
  9  5  1  0  0  0  0
 11 12  1  0  0  0  0
 12 13  1  1  0  0  0
 12 14  1  0  0  0  0
 12 20  1  0  0  0  0
 14 16  1  0  0  0  0
 14 19  1  0  0  0  0
 14 15  1  6  0  0  0
 16 17  1  0  0  0  0
 16 18  1  0  0  0  0
 19 34  1  0  0  0  0
 20 21  1  0  0  0  0
 20 35  1  0  0  0  0
 20 36  1  0  0  0  0
 22 21  1  1  0  0  0
 22 23  2  0  0  0  0
 22 24  1  0  0  0  0
 22 29  1  0  0  0  0
 24 25  1  0  0  0  0
 25 26  2  0  0  0  0
 25 27  1  0  0  0  0
 25 28  1  0  0  0  0
 27 37  1  0  0  0  0
 28 38  1  0  0  0  0
 29 39  1  0  0  0  0
M  END
$$$$
