GD9
 OpenBabel04121316123D

 62 67  0  0  0  0  0  0  0  0999 V2000
    1.0314   -0.1956    0.2742 C   0  0  0  0  0  0  0  0  0  0  0  0
    2.8195   -0.1722    0.1651 S   0  0  0  0  0  0  0  0  0  0  0  0
    3.3090    0.6594    1.2345 O   0  0  0  0  0  0  0  0  0  0  0  0
    3.2322   -1.5612    0.0412 O   0  0  0  0  0  0  0  0  0  0  0  0
    3.2136    0.5865   -1.3079 N   0  0  0  0  0  0  0  0  0  0  0  0
    2.3394    0.3460   -2.4946 C   0  0  0  0  0  0  0  0  0  0  0  0
    1.0577    1.2183   -2.4103 C   0  0  0  0  0  0  0  0  0  0  0  0
    1.3094    2.6538   -2.1622 N   0  0  0  0  0  0  0  0  0  0  0  0
    2.2768    2.8287   -1.0277 C   0  0  0  0  0  0  0  0  0  0  0  0
    3.5771    2.0290   -1.2042 C   0  0  0  0  0  0  0  0  0  0  0  0
    1.7842    3.1757   -3.4548 C   0  0  0  0  0  0  0  0  0  0  0  0
    2.0002    4.6245   -3.4305 C   0  0  0  0  0  0  0  0  0  0  0  0
    1.2233    5.6884   -3.8169 C   0  0  0  0  0  0  0  0  0  0  0  0
    1.8230    6.9159   -3.3938 C   0  0  0  0  0  0  0  0  0  0  0  0
    3.0098    6.7100   -2.7023 C   0  0  0  0  0  0  0  0  0  0  0  0
    3.5550    5.1367   -3.0243 S   0  0  0  0  0  0  0  0  0  0  0  0
    3.6550    7.7395   -2.0108 C   0  0  0  0  0  0  0  0  0  0  0  0
    3.1587    8.9786   -2.2734 N   0  0  0  0  0  0  0  0  0  0  0  0
    2.0584    9.1316   -3.0657 C   0  0  0  0  0  0  0  0  0  0  0  0
    1.3251    8.1458   -3.5988 N   0  0  0  0  0  0  0  0  0  0  0  0
    1.6386   10.5059   -3.3789 C   0  0  0  0  0  0  0  0  0  0  0  0
    2.4376   11.6162   -3.0302 C   0  0  0  0  0  0  0  0  0  0  0  0
    2.0547   12.9264   -3.3112 C   0  0  0  0  0  0  0  0  0  0  0  0
    0.8524   13.1987   -3.9618 C   0  0  0  0  0  0  0  0  0  0  0  0
    0.0644   12.1044   -4.3259 C   0  0  0  0  0  0  0  0  0  0  0  0
    0.4197   10.7835   -4.0563 C   0  0  0  0  0  0  0  0  0  0  0  0
   -0.6697   10.0356   -4.5785 C   0  0  0  0  0  0  0  0  0  0  0  0
   -1.6000   10.7935   -5.1647 N   0  0  0  0  0  0  0  0  0  0  0  0
   -1.1520   12.0405   -4.9555 N   0  0  0  0  0  0  0  0  0  0  0  0
   -1.7381   12.8134   -5.2480 H   0  0  0  0  0  0  0  0  0  0  0  0
    4.7292    7.5462   -1.1623 N   0  0  0  0  0  0  0  0  0  0  0  0
    5.2075    6.2552   -0.6291 C   0  0  0  0  0  0  0  0  0  0  0  0
    6.6158    5.9794   -1.1710 C   0  0  0  0  0  0  0  0  0  0  0  0
    7.5115    7.0154   -0.7405 O   0  0  0  0  0  0  0  0  0  0  0  0
    7.0663    8.2983   -1.2275 C   0  0  0  0  0  0  0  0  0  0  0  0
    5.6231    8.6443   -0.7877 C   0  0  0  0  0  0  0  0  0  0  0  0
    0.7327   -0.6823    1.2000 H   0  0  0  0  0  0  0  0  0  0  0  0
    0.6333   -0.7822   -0.5583 H   0  0  0  0  0  0  0  0  0  0  0  0
    0.6361    0.8204    0.3092 H   0  0  0  0  0  0  0  0  0  0  0  0
    2.0992   -0.7135   -2.6027 H   0  0  0  0  0  0  0  0  0  0  0  0
    2.8995    0.6117   -3.4037 H   0  0  0  0  0  0  0  0  0  0  0  0
    0.3827    0.8948   -1.6325 H   0  0  0  0  0  0  0  0  0  0  0  0
    0.4435    1.0770   -3.3065 H   0  0  0  0  0  0  0  0  0  0  0  0
    1.7973    2.5042   -0.0968 H   0  0  0  0  0  0  0  0  0  0  0  0
    2.4900    3.8796   -0.8109 H   0  0  0  0  0  0  0  0  0  0  0  0
    4.2936    2.2011   -0.3920 H   0  0  0  0  0  0  0  0  0  0  0  0
    4.1243    2.3337   -2.1058 H   0  0  0  0  0  0  0  0  0  0  0  0
    1.0540    2.9456   -4.2368 H   0  0  0  0  0  0  0  0  0  0  0  0
    2.7172    2.6911   -3.7627 H   0  0  0  0  0  0  0  0  0  0  0  0
    0.2739    5.5913   -4.3300 H   0  0  0  0  0  0  0  0  0  0  0  0
    3.3868   11.4458   -2.5235 H   0  0  0  0  0  0  0  0  0  0  0  0
    2.7076   13.7430   -3.0136 H   0  0  0  0  0  0  0  0  0  0  0  0
    0.5511   14.2190   -4.1733 H   0  0  0  0  0  0  0  0  0  0  0  0
   -0.8220    8.9645   -4.5487 H   0  0  0  0  0  0  0  0  0  0  0  0
    4.5692    5.3939   -0.8038 H   0  0  0  0  0  0  0  0  0  0  0  0
    5.2425    6.3302    0.4638 H   0  0  0  0  0  0  0  0  0  0  0  0
    6.6317    5.9248   -2.2673 H   0  0  0  0  0  0  0  0  0  0  0  0
    6.9843    5.0224   -0.7872 H   0  0  0  0  0  0  0  0  0  0  0  0
    7.1507    8.2967   -2.3200 H   0  0  0  0  0  0  0  0  0  0  0  0
    7.7618    9.0443   -0.8329 H   0  0  0  0  0  0  0  0  0  0  0  0
    5.3296    9.6128   -1.2010 H   0  0  0  0  0  0  0  0  0  0  0  0
    5.5994    8.7253    0.3063 H   0  0  0  0  0  0  0  0  0  0  0  0
  1  2  1  0  0  0  0
  1 37  1  0  0  0  0
  1 38  1  0  0  0  0
  1 39  1  0  0  0  0
  2  3  2  0  0  0  0
  2  4  2  0  0  0  0
  2  5  1  0  0  0  0
  5  6  1  0  0  0  0
  5 10  1  0  0  0  0
  6  7  1  0  0  0  0
  6 40  1  0  0  0  0
  6 41  1  0  0  0  0
  7  8  1  0  0  0  0
  7 42  1  0  0  0  0
  7 43  1  0  0  0  0
  8  9  1  0  0  0  0
  8 11  1  0  0  0  0
  9 10  1  0  0  0  0
  9 44  1  0  0  0  0
  9 45  1  0  0  0  0
 10 46  1  0  0  0  0
 10 47  1  0  0  0  0
 11 12  1  0  0  0  0
 11 48  1  0  0  0  0
 11 49  1  0  0  0  0
 12 13  2  0  0  0  0
 12 16  1  0  0  0  0
 13 14  1  0  0  0  0
 13 50  1  0  0  0  0
 14 15  2  0  0  0  0
 14 20  1  0  0  0  0
 15 16  1  0  0  0  0
 15 17  1  0  0  0  0
 17 18  2  0  0  0  0
 17 31  1  0  0  0  0
 18 19  1  0  0  0  0
 19 20  2  0  0  0  0
 19 21  1  0  0  0  0
 21 22  2  0  0  0  0
 21 26  1  0  0  0  0
 22 23  1  0  0  0  0
 22 51  1  0  0  0  0
 23 24  2  0  0  0  0
 23 52  1  0  0  0  0
 24 25  1  0  0  0  0
 24 53  1  0  0  0  0
 25 26  2  0  0  0  0
 25 29  1  0  0  0  0
 26 27  1  0  0  0  0
 27 28  2  0  0  0  0
 27 54  1  0  0  0  0
 28 29  1  0  0  0  0
 29 30  1  0  0  0  0
 31 32  1  0  0  0  0
 31 36  1  0  0  0  0
 32 33  1  0  0  0  0
 32 55  1  0  0  0  0
 32 56  1  0  0  0  0
 33 34  1  0  0  0  0
 33 57  1  0  0  0  0
 33 58  1  0  0  0  0
 34 35  1  0  0  0  0
 35 36  1  0  0  0  0
 35 59  1  0  0  0  0
 35 60  1  0  0  0  0
 36 61  1  0  0  0  0
 36 62  1  0  0  0  0
M  END
$$$$
