GDP
 OpenBabel04121316123D

 43 45  0  0  1  0  0  0  0  0999 V2000
    2.9537    0.3229   -1.3359 O   0  0  0  0  0  0  0  0  0  0  0  0
    2.5590    0.1039    0.0075 C   0  0  2  0  0  0  0  0  0  0  0  0
    1.5161    0.1801    0.0021 H   0  0  0  0  0  0  0  0  0  0  0  0
    3.0270    1.1733    0.9640 C   0  0  1  0  0  0  0  0  0  0  0  0
    3.1779    2.1144    0.4254 H   0  0  0  0  0  0  0  0  0  0  0  0
    2.0964    1.4322    2.1681 C   0  0  0  0  0  0  0  0  0  0  0  0
    0.7703    1.8546    1.8116 O   0  0  0  0  0  0  0  0  0  0  0  0
   -0.1943    2.0724    3.2311 P   0  0  1  0  0  0  0  0  0  0  0  0
   -0.5879    3.4848    2.8134 O   0  0  0  0  0  0  0  0  0  0  0  0
   -1.3157    0.8900    2.6505 O   0  0  0  0  0  0  0  0  0  0  0  0
   -0.7802    0.2906    1.1186 P   0  0  0  0  0  0  0  0  0  0  0  0
   -0.7959    1.6136    0.3838 O   0  0  0  0  0  0  0  0  0  0  0  0
    0.3014   -0.5792    1.9228 O   0  0  0  0  0  0  0  0  0  0  0  0
   -0.2447   -0.3089   -0.4133 O   0  0  0  0  0  0  0  0  0  0  0  0
   -1.1588    2.2902    4.6507 O   0  0  0  0  0  0  0  0  0  0  0  0
    4.2781    0.6440    1.4438 O   0  0  0  0  0  0  0  0  0  0  0  0
    4.1470   -0.8099    1.5186 C   0  0  2  0  0  0  0  0  0  0  0  0
    5.0912   -1.2436    1.1723 H   0  0  0  0  0  0  0  0  0  0  0  0
    2.9906   -1.2155    0.6098 C   0  0  2  0  0  0  0  0  0  0  0  0
    2.1470   -1.6326    1.1493 H   0  0  0  0  0  0  0  0  0  0  0  0
    3.3790   -2.1993   -0.3480 O   0  0  0  0  0  0  0  0  0  0  0  0
    4.0225   -1.1828    2.9205 N   0  0  0  0  0  0  0  0  0  0  0  0
    4.7569   -0.5799    3.9190 C   0  0  0  0  0  0  0  0  0  0  0  0
    4.4522   -1.0423    5.1114 N   0  0  0  0  0  0  0  0  0  0  0  0
    3.5124   -2.0075    4.8706 C   0  0  0  0  0  0  0  0  0  0  0  0
    3.2256   -2.1233    3.5291 C   0  0  0  0  0  0  0  0  0  0  0  0
    2.3171   -2.9575    2.9561 N   0  0  0  0  0  0  0  0  0  0  0  0
    1.6518   -3.6967    3.8045 C   0  0  0  0  0  0  0  0  0  0  0  0
    0.6629   -4.5175    3.3765 N   0  0  0  0  0  0  0  0  0  0  0  0
    1.8768   -3.6783    5.1629 N   0  0  0  0  0  0  0  0  0  0  0  0
    1.3571   -4.2815    5.7774 H   0  0  0  0  0  0  0  0  0  0  0  0
    2.8039   -2.8623    5.8021 C   0  0  0  0  0  0  0  0  0  0  0  0
    2.9581   -2.8852    7.0103 O   0  0  0  0  0  0  0  0  0  0  0  0
    3.8865    0.0768   -1.4129 H   0  0  0  0  0  0  0  0  0  0  0  0
    2.5483    2.1824    2.8233 H   0  0  0  0  0  0  0  0  0  0  0  0
    2.0125    0.5371    2.7903 H   0  0  0  0  0  0  0  0  0  0  0  0
   -0.2033   -1.2478    2.4417 H   0  0  0  0  0  0  0  0  0  0  0  0
   -0.1314    0.5183   -0.9374 H   0  0  0  0  0  0  0  0  0  0  0  0
   -0.7392    2.9792    5.1971 H   0  0  0  0  0  0  0  0  0  0  0  0
    3.5115   -3.0273    0.1518 H   0  0  0  0  0  0  0  0  0  0  0  0
    5.4822    0.1978    3.7074 H   0  0  0  0  0  0  0  0  0  0  0  0
    0.5295   -4.6299    2.3777 H   0  0  0  0  0  0  0  0  0  0  0  0
    0.2198   -5.2030    3.9732 H   0  0  0  0  0  0  0  0  0  0  0  0
  1 34  1  0  0  0  0
  2  4  1  0  0  0  0
  2 19  1  0  0  0  0
  2  3  1  1  0  0  0
  2  1  1  0  0  0  0
  4  5  1  6  0  0  0
  4  6  1  0  0  0  0
  4 16  1  0  0  0  0
  6  7  1  0  0  0  0
  6 35  1  0  0  0  0
  6 36  1  0  0  0  0
  8  7  1  1  0  0  0
  8  9  2  0  0  0  0
  8 10  1  0  0  0  0
  8 15  1  0  0  0  0
 10 11  1  0  0  0  0
 11 12  2  0  0  0  0
 11 13  1  0  0  0  0
 11 14  1  0  0  0  0
 13 37  1  0  0  0  0
 14 38  1  0  0  0  0
 15 39  1  0  0  0  0
 16 17  1  0  0  0  0
 17 19  1  0  0  0  0
 17 22  1  0  0  0  0
 17 18  1  6  0  0  0
 19 20  1  1  0  0  0
 19 21  1  0  0  0  0
 21 40  1  0  0  0  0
 22 23  1  0  0  0  0
 22 26  1  0  0  0  0
 23 24  2  0  0  0  0
 23 41  1  0  0  0  0
 24 25  1  0  0  0  0
 25 26  2  0  0  0  0
 25 32  1  0  0  0  0
 26 27  1  0  0  0  0
 27 28  2  0  0  0  0
 28 29  1  0  0  0  0
 28 30  1  0  0  0  0
 29 42  1  0  0  0  0
 29 43  1  0  0  0  0
 30 31  1  0  0  0  0
 30 32  1  0  0  0  0
 32 33  2  0  0  0  0
M  END
$$$$
