GFC
 OpenBabel04121316123D

 49 51  0  0  1  0  0  0  0  0999 V2000
    5.5270   -3.8219   -0.6571 O   0  0  0  0  0  0  0  0  0  0  0  0
    5.4068   -5.2259   -0.5289 C   0  0  1  0  0  0  0  0  0  0  0  0
    4.7396   -5.6032   -1.3138 H   0  0  0  0  0  0  0  0  0  0  0  0
    6.7722   -5.8565   -0.5864 C   0  0  0  0  0  0  0  0  0  0  0  0
    6.5738   -7.1585    0.1620 C   0  0  1  0  0  0  0  0  0  0  0  0
    7.4925   -7.5663    0.5864 H   0  0  0  0  0  0  0  0  0  0  0  0
    5.7298   -6.7939    1.2710 O   0  0  0  0  0  0  0  0  0  0  0  0
    4.9409   -5.6497    0.8566 C   0  0  2  0  0  0  0  0  0  0  0  0
    5.0562   -4.8401    1.5919 H   0  0  0  0  0  0  0  0  0  0  0  0
    3.5464   -6.1964    0.8426 C   0  0  0  0  0  0  0  0  0  0  0  0
    2.5999   -5.5064    0.1068 O   0  0  0  0  0  0  0  0  0  0  0  0
    1.2483   -5.4609    0.9347 P   0  0  1  0  0  0  0  0  0  0  0  0
    1.0027   -6.6251    1.8369 O   0  0  0  0  0  0  0  0  0  0  0  0
    1.6314   -3.9923    1.6034 O   0  0  0  0  0  0  0  0  0  0  0  0
    1.7828   -2.6188    0.6907 P   0  0  2  0  0  0  0  0  0  0  0  0
    3.0468   -2.2937   -0.0494 O   0  0  0  0  0  0  0  0  0  0  0  0
    0.4290   -2.9579   -0.2654 C   0  0  2  0  0  0  0  0  0  0  0  0
   -0.6750   -2.7347   -1.5126 P   0  0  0  0  0  0  0  0  0  0  0  0
   -0.7746   -1.3524   -2.0510 O   0  0  0  0  0  0  0  0  0  0  0  0
   -0.4409   -3.8410   -2.6551 O   0  0  0  0  0  0  0  0  0  0  0  0
   -2.0718   -3.3155   -0.9713 O   0  0  0  0  0  0  0  0  0  0  0  0
   -0.8212   -3.3865    1.3234 Cl  0  0  0  0  0  0  0  0  0  0  0  0
    1.1343   -3.9400   -0.9049 F   0  0  0  0  0  0  0  0  0  0  0  0
    1.1949   -1.3588    1.5035 O   0  0  0  0  0  0  0  0  0  0  0  0
    0.0418   -5.5142   -0.1467 O   0  0  0  0  0  0  0  0  0  0  0  0
    5.9727   -8.2137   -0.6503 N   0  0  0  0  0  0  0  0  0  0  0  0
    4.7905   -8.8809   -0.4452 C   0  0  0  0  0  0  0  0  0  0  0  0
    4.4798   -9.6916   -1.4311 N   0  0  0  0  0  0  0  0  0  0  0  0
    5.5609   -9.6307   -2.2578 C   0  0  0  0  0  0  0  0  0  0  0  0
    6.5097   -8.7386   -1.7999 C   0  0  0  0  0  0  0  0  0  0  0  0
    7.7046   -8.4341   -2.3657 N   0  0  0  0  0  0  0  0  0  0  0  0
    7.9388   -9.0926   -3.4715 C   0  0  0  0  0  0  0  0  0  0  0  0
    9.0826   -8.9008   -4.1654 N   0  0  0  0  0  0  0  0  0  0  0  0
    7.0612  -10.0126   -4.0160 N   0  0  0  0  0  0  0  0  0  0  0  0
    7.2908  -10.4928   -4.8679 H   0  0  0  0  0  0  0  0  0  0  0  0
    5.8411  -10.3430   -3.4704 C   0  0  0  0  0  0  0  0  0  0  0  0
    5.0893  -11.1820   -4.0065 O   0  0  0  0  0  0  0  0  0  0  0  0
    5.6978   -3.6199   -1.5936 H   0  0  0  0  0  0  0  0  0  0  0  0
    7.4778   -5.2175   -0.0410 H   0  0  0  0  0  0  0  0  0  0  0  0
    7.1320   -5.9547   -1.6099 H   0  0  0  0  0  0  0  0  0  0  0  0
    3.2709   -6.4660    1.8766 H   0  0  0  0  0  0  0  0  0  0  0  0
    3.4646   -7.0871    0.2640 H   0  0  0  0  0  0  0  0  0  0  0  0
   -1.0316   -3.7305   -3.4104 H   0  0  0  0  0  0  0  0  0  0  0  0
   -2.8139   -3.1366   -1.5525 H   0  0  0  0  0  0  0  0  0  0  0  0
    1.7497   -0.7921    2.0580 H   0  0  0  0  0  0  0  0  0  0  0  0
   -0.7692   -5.9358    0.2071 H   0  0  0  0  0  0  0  0  0  0  0  0
    4.1708   -8.7425    0.4281 H   0  0  0  0  0  0  0  0  0  0  0  0
    9.7720   -8.2601   -3.7938 H   0  0  0  0  0  0  0  0  0  0  0  0
    9.3184   -9.4152   -5.0006 H   0  0  0  0  0  0  0  0  0  0  0  0
  1  2  1  0  0  0  0
  1 38  1  0  0  0  0
  2  3  1  6  0  0  0
  2  4  1  0  0  0  0
  2  8  1  0  0  0  0
  4  5  1  0  0  0  0
  4 39  1  0  0  0  0
  4 40  1  0  0  0  0
  5  6  1  1  0  0  0
  5  7  1  0  0  0  0
  5 26  1  0  0  0  0
  7  8  1  0  0  0  0
  8  9  1  1  0  0  0
  8 10  1  0  0  0  0
 10 11  1  0  0  0  0
 10 41  1  0  0  0  0
 10 42  1  0  0  0  0
 12 11  1  6  0  0  0
 12 13  2  0  0  0  0
 12 14  1  0  0  0  0
 12 25  1  0  0  0  0
 15 24  1  6  0  0  0
 15 16  2  0  0  0  0
 15 14  1  0  0  0  0
 17 22  1  1  0  0  0
 17 23  1  0  0  0  0
 17 18  1  0  0  0  0
 17 15  1  0  0  0  0
 18 19  2  0  0  0  0
 18 20  1  0  0  0  0
 18 21  1  0  0  0  0
 20 43  1  0  0  0  0
 21 44  1  0  0  0  0
 24 45  1  0  0  0  0
 25 46  1  0  0  0  0
 26 27  1  0  0  0  0
 26 30  1  0  0  0  0
 27 28  2  0  0  0  0
 27 47  1  0  0  0  0
 28 29  1  0  0  0  0
 29 30  2  0  0  0  0
 29 36  1  0  0  0  0
 30 31  1  0  0  0  0
 31 32  2  0  0  0  0
 32 33  1  0  0  0  0
 32 34  1  0  0  0  0
 33 48  1  0  0  0  0
 33 49  1  0  0  0  0
 34 35  1  0  0  0  0
 34 36  1  0  0  0  0
 36 37  2  0  0  0  0
M  END
$$$$
