GFH
 OpenBabel04121316123D

 49 51  0  0  1  0  0  0  0  0999 V2000
    1.3572   -8.1029   -0.2822 O   0  0  0  0  0  0  0  0  0  0  0  0
    0.2454   -7.2356   -0.2556 C   0  0  1  0  0  0  0  0  0  0  0  0
   -0.0370   -6.9552   -1.2811 H   0  0  0  0  0  0  0  0  0  0  0  0
   -0.9175   -7.8630    0.4762 C   0  0  0  0  0  0  0  0  0  0  0  0
   -1.7512   -6.6959    0.8983 C   0  0  1  0  0  0  0  0  0  0  0  0
   -2.3307   -6.8050    1.8176 H   0  0  0  0  0  0  0  0  0  0  0  0
   -0.7598   -5.6203    1.1524 O   0  0  0  0  0  0  0  0  0  0  0  0
    0.5421   -6.0127    0.5726 C   0  0  2  0  0  0  0  0  0  0  0  0
    1.2560   -6.1725    1.3869 H   0  0  0  0  0  0  0  0  0  0  0  0
    1.0332   -4.8701   -0.2986 C   0  0  0  0  0  0  0  0  0  0  0  0
    1.8770   -5.0618   -1.4312 O   0  0  0  0  0  0  0  0  0  0  0  0
    2.5708   -3.7744   -2.2509 P   0  0  2  0  0  0  0  0  0  0  0  0
    2.2026   -2.7291   -1.1755 O   0  0  0  0  0  0  0  0  0  0  0  0
    1.3820   -3.1014   -3.3123 O   0  0  0  0  0  0  0  0  0  0  0  0
    0.5967   -1.7729   -2.5303 P   0  0  1  0  0  0  0  0  0  0  0  0
    0.0825   -1.2269   -3.8641 O   0  0  0  0  0  0  0  0  0  0  0  0
   -0.5772   -2.6600   -1.6978 C   0  0  1  0  0  0  0  0  0  0  0  0
   -0.2640   -2.6579   -0.6422 H   0  0  0  0  0  0  0  0  0  0  0  0
   -2.2597   -2.6220   -1.9516 P   0  0  0  0  0  0  0  0  0  0  0  0
   -2.4939   -3.7201   -2.9460 O   0  0  0  0  0  0  0  0  0  0  0  0
   -2.6739   -2.6377   -0.3623 O   0  0  0  0  0  0  0  0  0  0  0  0
   -3.3640   -1.5711   -2.3599 O   0  0  0  0  0  0  0  0  0  0  0  0
   -0.3310   -3.8869   -2.2309 F   0  0  0  0  0  0  0  0  0  0  0  0
   -0.1885   -0.4445   -1.7483 O   0  0  0  0  0  0  0  0  0  0  0  0
    2.9833   -4.9456   -3.4555 O   0  0  0  0  0  0  0  0  0  0  0  0
   -2.7284   -6.3316   -0.1169 N   0  0  0  0  0  0  0  0  0  0  0  0
   -2.7362   -5.1145   -0.6507 C   0  0  0  0  0  0  0  0  0  0  0  0
   -3.7797   -4.8408   -1.3877 N   0  0  0  0  0  0  0  0  0  0  0  0
   -4.2398   -6.0556   -1.6720 C   0  0  0  0  0  0  0  0  0  0  0  0
   -3.7210   -6.9764   -0.7856 C   0  0  0  0  0  0  0  0  0  0  0  0
   -4.1231   -8.2447   -0.6259 N   0  0  0  0  0  0  0  0  0  0  0  0
   -5.0821   -8.5621   -1.4569 C   0  0  0  0  0  0  0  0  0  0  0  0
   -5.6120   -9.7892   -1.3554 N   0  0  0  0  0  0  0  0  0  0  0  0
   -5.6080   -7.7483   -2.4396 N   0  0  0  0  0  0  0  0  0  0  0  0
   -6.3281   -8.0639   -3.0624 H   0  0  0  0  0  0  0  0  0  0  0  0
   -5.2211   -6.4347   -2.6606 C   0  0  0  0  0  0  0  0  0  0  0  0
   -5.6728   -5.7561   -3.5507 O   0  0  0  0  0  0  0  0  0  0  0  0
    1.1298   -8.8169   -0.9002 H   0  0  0  0  0  0  0  0  0  0  0  0
   -0.5610   -8.3761    1.3707 H   0  0  0  0  0  0  0  0  0  0  0  0
   -1.4530   -8.5729   -0.1521 H   0  0  0  0  0  0  0  0  0  0  0  0
    1.2757   -3.9995    0.3166 H   0  0  0  0  0  0  0  0  0  0  0  0
    0.0903   -4.6809   -0.7363 H   0  0  0  0  0  0  0  0  0  0  0  0
   -1.9553   -2.6637    0.3127 H   0  0  0  0  0  0  0  0  0  0  0  0
   -4.0687   -2.2505   -2.5755 H   0  0  0  0  0  0  0  0  0  0  0  0
   -0.0454    0.3508   -2.3056 H   0  0  0  0  0  0  0  0  0  0  0  0
    3.2082   -4.4987   -4.2920 H   0  0  0  0  0  0  0  0  0  0  0  0
   -1.8931   -4.5046   -0.4484 H   0  0  0  0  0  0  0  0  0  0  0  0
   -5.2826  -10.3500   -0.5817 H   0  0  0  0  0  0  0  0  0  0  0  0
   -6.3960  -10.0948   -1.9037 H   0  0  0  0  0  0  0  0  0  0  0  0
  1  2  1  0  0  0  0
  1 38  1  0  0  0  0
  2  3  1  6  0  0  0
  2  4  1  0  0  0  0
  2  8  1  0  0  0  0
  4  5  1  0  0  0  0
  4 39  1  0  0  0  0
  4 40  1  0  0  0  0
  5  6  1  1  0  0  0
  5  7  1  0  0  0  0
  5 26  1  0  0  0  0
  7  8  1  0  0  0  0
  8  9  1  1  0  0  0
  8 10  1  0  0  0  0
 10 11  1  0  0  0  0
 10 41  1  0  0  0  0
 10 42  1  0  0  0  0
 12 14  1  6  0  0  0
 12 25  1  0  0  0  0
 12 13  2  0  0  0  0
 12 11  1  0  0  0  0
 15 14  1  1  0  0  0
 15 16  2  0  0  0  0
 15 17  1  0  0  0  0
 15 24  1  0  0  0  0
 17 18  1  1  0  0  0
 17 19  1  0  0  0  0
 17 23  1  0  0  0  0
 19 20  2  0  0  0  0
 19 21  1  0  0  0  0
 19 22  1  0  0  0  0
 21 43  1  0  0  0  0
 22 44  1  0  0  0  0
 24 45  1  0  0  0  0
 25 46  1  0  0  0  0
 26 27  1  0  0  0  0
 26 30  1  0  0  0  0
 27 28  2  0  0  0  0
 27 47  1  0  0  0  0
 28 29  1  0  0  0  0
 29 30  2  0  0  0  0
 29 36  1  0  0  0  0
 30 31  1  0  0  0  0
 31 32  2  0  0  0  0
 32 33  1  0  0  0  0
 32 34  1  0  0  0  0
 33 48  1  0  0  0  0
 33 49  1  0  0  0  0
 34 35  1  0  0  0  0
 34 36  1  0  0  0  0
 36 37  2  0  0  0  0
M  END
$$$$
