GGA
 OpenBabel04121316123D

 70 69  0  0  1  0  0  0  0  0999 V2000
   20.2903    6.3364  -12.2157 N   0  0  0  0  0  0  0  0  0  0  0  0
   19.8340    4.9546  -12.1763 C   0  0  0  0  0  0  0  0  0  0  0  0
   20.2480    4.3141  -10.8596 C   0  0  0  0  0  0  0  0  0  0  0  0
   19.7722    2.8667  -10.7954 C   0  0  0  0  0  0  0  0  0  0  0  0
   20.1943    2.2439   -9.4749 C   0  0  0  0  0  0  0  0  0  0  0  0
   19.7419    0.8599   -9.4282 N   0  0  0  0  0  0  0  0  0  0  0  0
   20.1642    0.2659   -8.1703 C   0  0  0  0  0  0  0  0  0  0  0  0
   19.7139   -1.1789   -8.1492 C   0  0  0  0  0  0  0  0  0  0  0  0
   20.1646   -1.8263   -6.8408 C   0  0  0  0  0  0  0  0  0  0  0  0
   19.5873   -3.2715   -6.7183 C   0  0  0  0  0  0  0  0  0  0  0  0
   20.0912   -4.0250   -5.1286 P   0  0  1  0  0  0  0  0  0  0  0  0
   20.0637   -2.6570   -4.4197 O   0  0  0  0  0  0  0  0  0  0  0  0
   18.4914   -4.6487   -4.9172 O   0  0  0  0  0  0  0  0  0  0  0  0
   17.5091   -4.1850   -6.2637 P   0  0  0  0  0  0  0  0  0  0  0  0
   17.8075   -5.5173   -6.9427 O   0  0  0  0  0  0  0  0  0  0  0  0
   16.1872   -4.3332   -5.3330 O   0  0  0  0  0  0  0  0  0  0  0  0
   16.5268   -3.7213   -7.6101 O   0  0  0  0  0  0  0  0  0  0  0  0
   20.5950   -4.7785   -3.5388 C   0  0  0  0  0  0  0  0  0  0  0  0
   19.6774   -4.4852   -2.4636 N   0  0  0  0  0  0  0  0  0  0  0  0
   19.8965   -4.9686   -1.1968 C   0  0  0  0  0  0  0  0  0  0  0  0
   20.9335   -5.5485   -0.8852 O   0  0  0  0  0  0  0  0  0  0  0  0
   18.8083   -4.5959   -0.1729 C   0  0  2  0  0  0  0  0  0  0  0  0
   18.9010   -5.2726    0.6841 H   0  0  0  0  0  0  0  0  0  0  0  0
   17.4947   -4.8036   -0.7779 N   0  0  0  0  0  0  0  0  0  0  0  0
   17.1379   -6.0979   -1.0970 C   0  0  0  0  0  0  0  0  0  0  0  0
   17.8999   -7.0485   -1.0021 O   0  0  0  0  0  0  0  0  0  0  0  0
   15.7437   -6.2254   -1.6383 C   0  0  0  0  0  0  0  0  0  0  0  0
   15.5096   -7.6531   -2.1434 C   0  0  0  0  0  0  0  0  0  0  0  0
   14.1100   -7.8838   -2.7121 C   0  0  2  0  0  0  0  0  0  0  0  0
   13.4311   -8.2319   -1.9252 H   0  0  0  0  0  0  0  0  0  0  0  0
   14.1443   -8.9425   -3.8322 C   0  0  0  0  0  0  0  0  0  0  0  0
   13.7801   -8.7125   -4.9854 O   0  0  0  0  0  0  0  0  0  0  0  0
   14.5772  -10.1636   -3.4580 O   0  0  0  0  0  0  0  0  0  0  0  0
   13.5663   -6.6173   -3.2568 N   0  0  0  0  0  0  0  0  0  0  0  0
   18.9830   -3.1500    0.2614 C   0  0  0  0  0  0  0  0  0  0  0  0
   20.0388    6.7481  -13.1128 H   0  0  0  0  0  0  0  0  0  0  0  0
   21.3075    6.3643  -12.1606 H   0  0  0  0  0  0  0  0  0  0  0  0
   20.2641    4.4002  -13.0177 H   0  0  0  0  0  0  0  0  0  0  0  0
   18.7441    4.9288  -12.2798 H   0  0  0  0  0  0  0  0  0  0  0  0
   19.8246    4.8764  -10.0172 H   0  0  0  0  0  0  0  0  0  0  0  0
   21.3399    4.3444  -10.7506 H   0  0  0  0  0  0  0  0  0  0  0  0
   20.1975    2.2984  -11.6324 H   0  0  0  0  0  0  0  0  0  0  0  0
   18.6802    2.8277  -10.8964 H   0  0  0  0  0  0  0  0  0  0  0  0
   19.7557    2.8095   -8.6440 H   0  0  0  0  0  0  0  0  0  0  0  0
   21.2859    2.2847   -9.3779 H   0  0  0  0  0  0  0  0  0  0  0  0
   20.1396    0.3389  -10.2090 H   0  0  0  0  0  0  0  0  0  0  0  0
   19.7099    0.8046   -7.3283 H   0  0  0  0  0  0  0  0  0  0  0  0
   21.2527    0.3075   -8.0592 H   0  0  0  0  0  0  0  0  0  0  0  0
   20.1126   -1.7465   -8.9959 H   0  0  0  0  0  0  0  0  0  0  0  0
   18.6156   -1.2025   -8.2307 H   0  0  0  0  0  0  0  0  0  0  0  0
   19.7267   -1.2051   -6.0453 H   0  0  0  0  0  0  0  0  0  0  0  0
   21.2503   -1.8139   -6.7215 H   0  0  0  0  0  0  0  0  0  0  0  0
   20.0505   -3.8848   -7.5026 H   0  0  0  0  0  0  0  0  0  0  0  0
   18.6569   -2.9168   -7.1212 H   0  0  0  0  0  0  0  0  0  0  0  0
   16.4334   -4.6732   -4.4570 H   0  0  0  0  0  0  0  0  0  0  0  0
   17.0562   -3.7236   -8.4263 H   0  0  0  0  0  0  0  0  0  0  0  0
   21.5942   -4.4270   -3.2583 H   0  0  0  0  0  0  0  0  0  0  0  0
   20.6439   -5.8661   -3.6591 H   0  0  0  0  0  0  0  0  0  0  0  0
   18.8590   -3.9282   -2.6744 H   0  0  0  0  0  0  0  0  0  0  0  0
   16.7788   -4.0923   -0.6891 H   0  0  0  0  0  0  0  0  0  0  0  0
   15.6543   -5.5071   -2.4613 H   0  0  0  0  0  0  0  0  0  0  0  0
   15.0246   -5.9634   -0.8553 H   0  0  0  0  0  0  0  0  0  0  0  0
   15.6728   -8.3569   -1.3141 H   0  0  0  0  0  0  0  0  0  0  0  0
   16.2735   -7.8980   -2.8942 H   0  0  0  0  0  0  0  0  0  0  0  0
   14.8539  -10.2479   -2.5260 H   0  0  0  0  0  0  0  0  0  0  0  0
   12.6632   -6.8203   -3.6930 H   0  0  0  0  0  0  0  0  0  0  0  0
   14.1449   -6.3550   -4.0636 H   0  0  0  0  0  0  0  0  0  0  0  0
   18.2558   -2.8883    1.0371 H   0  0  0  0  0  0  0  0  0  0  0  0
   18.8385   -2.4574   -0.5755 H   0  0  0  0  0  0  0  0  0  0  0  0
   19.9889   -2.9859    0.6609 H   0  0  0  0  0  0  0  0  0  0  0  0
  1  2  1  0  0  0  0
  1 36  1  0  0  0  0
  1 37  1  0  0  0  0
  2  3  1  0  0  0  0
  2 38  1  0  0  0  0
  2 39  1  0  0  0  0
  3  4  1  0  0  0  0
  3 40  1  0  0  0  0
  3 41  1  0  0  0  0
  4  5  1  0  0  0  0
  4 42  1  0  0  0  0
  4 43  1  0  0  0  0
  5  6  1  0  0  0  0
  5 44  1  0  0  0  0
  5 45  1  0  0  0  0
  6  7  1  0  0  0  0
  6 46  1  0  0  0  0
  7  8  1  0  0  0  0
  7 47  1  0  0  0  0
  7 48  1  0  0  0  0
  8  9  1  0  0  0  0
  8 49  1  0  0  0  0
  8 50  1  0  0  0  0
  9 10  1  0  0  0  0
  9 51  1  0  0  0  0
  9 52  1  0  0  0  0
 10 53  1  0  0  0  0
 10 54  1  0  0  0  0
 11 10  1  6  0  0  0
 11 12  2  0  0  0  0
 11 13  1  0  0  0  0
 11 18  1  0  0  0  0
 13 14  1  0  0  0  0
 14 15  2  0  0  0  0
 14 16  1  0  0  0  0
 14 17  1  0  0  0  0
 16 55  1  0  0  0  0
 17 56  1  0  0  0  0
 18 19  1  0  0  0  0
 18 57  1  0  0  0  0
 18 58  1  0  0  0  0
 19 20  1  0  0  0  0
 19 59  1  0  0  0  0
 20 21  2  0  0  0  0
 22 24  1  0  0  0  0
 22 35  1  0  0  0  0
 22 23  1  1  0  0  0
 22 20  1  0  0  0  0
 24 25  1  0  0  0  0
 24 60  1  0  0  0  0
 25 26  2  0  0  0  0
 25 27  1  0  0  0  0
 27 28  1  0  0  0  0
 27 61  1  0  0  0  0
 27 62  1  0  0  0  0
 28 63  1  0  0  0  0
 28 64  1  0  0  0  0
 29 31  1  0  0  0  0
 29 34  1  0  0  0  0
 29 30  1  1  0  0  0
 29 28  1  0  0  0  0
 31 32  2  0  0  0  0
 31 33  1  0  0  0  0
 33 65  1  0  0  0  0
 34 66  1  0  0  0  0
 34 67  1  0  0  0  0
 35 68  1  0  0  0  0
 35 69  1  0  0  0  0
 35 70  1  0  0  0  0
M  END
$$$$
