GGB
 OpenBabel04121316123D

 24 23  0  0  1  0  0  0  0  0999 V2000
    0.9879    0.0158   -0.0236 N   0  0  0  0  0  0  0  0  0  0  0  0
    2.3347    0.0644    0.0065 C   0  0  0  0  0  0  0  0  0  0  0  0
    2.9629    1.0241    0.5896 N   0  0  0  0  0  0  0  0  0  0  0  0
    2.9438   -0.9563   -0.6458 N   0  0  0  0  0  0  0  0  0  0  0  0
    4.3310   -1.0339   -0.4768 O   0  0  0  0  0  0  0  0  0  0  0  0
    4.7866   -2.1030   -1.2847 C   0  0  0  0  0  0  0  0  0  0  0  0
    6.3069   -2.1513   -1.3487 C   0  0  0  0  0  0  0  0  0  0  0  0
    6.8087   -3.3863   -2.1118 C   0  0  1  0  0  0  0  0  0  0  0  0
    6.4334   -4.3078   -1.6513 H   0  0  0  0  0  0  0  0  0  0  0  0
    6.3965   -3.3919   -3.6113 C   0  0  0  0  0  0  0  0  0  0  0  0
    7.1842   -3.2641   -4.5472 O   0  0  0  0  0  0  0  0  0  0  0  0
    5.0772   -3.5575   -3.8585 O   0  0  0  0  0  0  0  0  0  0  0  0
    8.2849   -3.4365   -2.0249 N   0  0  0  0  0  0  0  0  0  0  0  0
    0.4435    0.7450    0.4133 H   0  0  0  0  0  0  0  0  0  0  0  0
    0.4761   -0.7241   -0.4784 H   0  0  0  0  0  0  0  0  0  0  0  0
    2.3043    1.6862    0.9889 H   0  0  0  0  0  0  0  0  0  0  0  0
    2.4316   -1.7385   -1.0256 H   0  0  0  0  0  0  0  0  0  0  0  0
    4.3823   -1.9464   -2.2867 H   0  0  0  0  0  0  0  0  0  0  0  0
    4.4047   -3.0402   -0.8620 H   0  0  0  0  0  0  0  0  0  0  0  0
    6.7018   -2.1510   -0.3228 H   0  0  0  0  0  0  0  0  0  0  0  0
    6.6792   -1.2290   -1.8122 H   0  0  0  0  0  0  0  0  0  0  0  0
    4.5020   -3.7411   -3.0973 H   0  0  0  0  0  0  0  0  0  0  0  0
    8.6123   -3.3452   -1.0667 H   0  0  0  0  0  0  0  0  0  0  0  0
    8.6683   -2.6424   -2.5465 H   0  0  0  0  0  0  0  0  0  0  0  0
  1  2  1  0  0  0  0
  1 14  1  0  0  0  0
  1 15  1  0  0  0  0
  2  3  2  0  0  0  0
  2  4  1  0  0  0  0
  3 16  1  0  0  0  0
  4  5  1  0  0  0  0
  4 17  1  0  0  0  0
  5  6  1  0  0  0  0
  6  7  1  0  0  0  0
  6 18  1  0  0  0  0
  6 19  1  0  0  0  0
  7  8  1  0  0  0  0
  7 20  1  0  0  0  0
  7 21  1  0  0  0  0
  8  9  1  1  0  0  0
  8 10  1  0  0  0  0
  8 13  1  0  0  0  0
 10 11  2  0  0  0  0
 10 12  1  0  0  0  0
 12 22  1  0  0  0  0
 13 23  1  0  0  0  0
 13 24  1  0  0  0  0
M  END
$$$$
