GHC
 OpenBabel04121316123D

 52 54  0  0  1  0  0  0  0  0999 V2000
    1.6004    4.4531    4.6256 C   0  0  0  0  0  0  0  0  0  0  0  0
    2.4878    3.4370    3.9128 C   0  0  0  0  0  0  0  0  0  0  0  0
    3.9285    3.7753    4.1946 C   0  0  0  0  0  0  0  0  0  0  0  0
    4.5777    5.1378    3.3910 S   0  0  0  0  0  0  0  0  0  0  0  0
    5.9887    5.1002    4.3129 C   0  0  0  0  0  0  0  0  0  0  0  0
    6.0139    4.0555    5.2166 C   0  0  0  0  0  0  0  0  0  0  0  0
    4.8329    3.1985    5.0794 C   0  0  0  0  0  0  0  0  0  0  0  0
    4.3225    1.6689    5.8466 S   0  0  0  0  0  0  0  0  0  0  0  0
    5.6940    0.8777    6.5727 C   0  0  0  0  0  0  0  0  0  0  0  0
    6.9866    1.2825    6.2977 C   0  0  0  0  0  0  0  0  0  0  0  0
    8.1247    0.9423    7.0097 C   0  0  0  0  0  0  0  0  0  0  0  0
    8.0052   -0.0608    7.9163 C   0  0  0  0  0  0  0  0  0  0  0  0
    6.6858   -0.5480    8.1290 C   0  0  0  0  0  0  0  0  0  0  0  0
    5.5455   -0.1326    7.4688 C   0  0  0  0  0  0  0  0  0  0  0  0
    9.2906   -0.4945    8.5623 C   0  0  0  0  0  0  0  0  0  0  0  0
   10.3636    0.0523    8.3233 O   0  0  0  0  0  0  0  0  0  0  0  0
    9.2731   -1.5317    9.4406 N   0  0  0  0  0  0  0  0  0  0  0  0
    8.0959   -2.2186    9.9009 C   0  0  2  0  0  0  0  0  0  0  0  0
    7.5196   -2.4391    9.0044 H   0  0  0  0  0  0  0  0  0  0  0  0
    7.3179   -1.4245   11.0247 C   0  0  0  0  0  0  0  0  0  0  0  0
    6.7657   -1.9881   11.9624 O   0  0  0  0  0  0  0  0  0  0  0  0
    7.1700   -0.0847   10.9137 O   0  0  0  0  0  0  0  0  0  0  0  0
    8.3220   -3.6473   10.2924 C   0  0  0  0  0  0  0  0  0  0  0  0
    9.1994   -3.7126   11.5116 C   0  0  0  0  0  0  0  0  0  0  0  0
    9.3445   -5.1410   11.9121 C   0  0  0  0  0  0  0  0  0  0  0  0
    8.8531   -6.0853   11.3159 O   0  0  0  0  0  0  0  0  0  0  0  0
   10.1064   -5.2744   13.0151 O   0  0  0  0  0  0  0  0  0  0  0  0
    7.2235    4.0950    6.0610 C   0  0  0  0  0  0  0  0  0  0  0  0
    7.3567    3.7107    7.1993 O   0  0  0  0  0  0  0  0  0  0  0  0
    8.2968    4.7106    5.4665 N   0  0  0  0  0  0  0  0  0  0  0  0
    9.1209    4.6858    6.0426 H   0  0  0  0  0  0  0  0  0  0  0  0
    8.0548    5.8401    4.7656 C   0  0  0  0  0  0  0  0  0  0  0  0
    6.9321    6.0718    4.1621 N   0  0  0  0  0  0  0  0  0  0  0  0
    9.0708    6.7215    4.7697 N   0  0  0  0  0  0  0  0  0  0  0  0
    0.5443    4.2467    4.4437 H   0  0  0  0  0  0  0  0  0  0  0  0
    1.8081    5.4709    4.2763 H   0  0  0  0  0  0  0  0  0  0  0  0
    1.7846    4.4383    5.7064 H   0  0  0  0  0  0  0  0  0  0  0  0
    2.3004    3.4568    2.8331 H   0  0  0  0  0  0  0  0  0  0  0  0
    2.2143    2.4295    4.2460 H   0  0  0  0  0  0  0  0  0  0  0  0
    7.1109    1.9716    5.4983 H   0  0  0  0  0  0  0  0  0  0  0  0
    9.0499    1.4943    6.8580 H   0  0  0  0  0  0  0  0  0  0  0  0
    6.3599   -1.2143    8.9016 H   0  0  0  0  0  0  0  0  0  0  0  0
    4.5993   -0.6095    7.7196 H   0  0  0  0  0  0  0  0  0  0  0  0
   10.1962   -1.8278    9.7392 H   0  0  0  0  0  0  0  0  0  0  0  0
    7.4659    0.4173   10.1328 H   0  0  0  0  0  0  0  0  0  0  0  0
    8.7626   -4.1972    9.4472 H   0  0  0  0  0  0  0  0  0  0  0  0
    7.3384   -4.1093   10.4706 H   0  0  0  0  0  0  0  0  0  0  0  0
    8.7577   -3.1575   12.3423 H   0  0  0  0  0  0  0  0  0  0  0  0
   10.1778   -3.2801   11.2874 H   0  0  0  0  0  0  0  0  0  0  0  0
   10.4024   -4.4213   13.3876 H   0  0  0  0  0  0  0  0  0  0  0  0
    9.9178    6.5646    5.2933 H   0  0  0  0  0  0  0  0  0  0  0  0
    8.9563    7.5905    4.2668 H   0  0  0  0  0  0  0  0  0  0  0  0
  1  2  1  0  0  0  0
  1 35  1  0  0  0  0
  1 36  1  0  0  0  0
  1 37  1  0  0  0  0
  2  3  1  0  0  0  0
  2 38  1  0  0  0  0
  2 39  1  0  0  0  0
  3  4  1  0  0  0  0
  3  7  2  0  0  0  0
  4  5  1  0  0  0  0
  5  6  2  0  0  0  0
  5 33  1  0  0  0  0
  6  7  1  0  0  0  0
  6 28  1  0  0  0  0
  7  8  1  0  0  0  0
  8  9  1  0  0  0  0
  9 10  2  0  0  0  0
  9 14  1  0  0  0  0
 10 11  1  0  0  0  0
 10 40  1  0  0  0  0
 11 12  2  0  0  0  0
 11 41  1  0  0  0  0
 12 13  1  0  0  0  0
 12 15  1  0  0  0  0
 13 14  2  0  0  0  0
 13 42  1  0  0  0  0
 14 43  1  0  0  0  0
 15 16  2  0  0  0  0
 15 17  1  0  0  0  0
 17 44  1  0  0  0  0
 18 20  1  0  0  0  0
 18 23  1  0  0  0  0
 18 19  1  6  0  0  0
 18 17  1  0  0  0  0
 20 21  2  0  0  0  0
 20 22  1  0  0  0  0
 22 45  1  0  0  0  0
 23 24  1  0  0  0  0
 23 46  1  0  0  0  0
 23 47  1  0  0  0  0
 24 25  1  0  0  0  0
 24 48  1  0  0  0  0
 24 49  1  0  0  0  0
 25 26  2  0  0  0  0
 25 27  1  0  0  0  0
 27 50  1  0  0  0  0
 28 29  2  0  0  0  0
 28 30  1  0  0  0  0
 30 31  1  0  0  0  0
 30 32  1  0  0  0  0
 32 33  2  0  0  0  0
 32 34  1  0  0  0  0
 34 51  1  0  0  0  0
 34 52  1  0  0  0  0
M  END
$$$$
