GI1
 OpenBabel04121316123D

 35 36  0  0  1  0  0  0  0  0999 V2000
   -0.6535    8.8522    1.2624 O   0  0  0  0  0  0  0  0  0  0  0  0
   -1.7708    8.4498    2.0493 C   0  0  0  0  0  0  0  0  0  0  0  0
   -2.7682    7.6007    1.2364 C   0  0  2  0  0  0  0  0  0  0  0  0
   -3.1675    8.2023    0.4087 H   0  0  0  0  0  0  0  0  0  0  0  0
   -3.9214    7.0709    2.1092 C   0  0  1  0  0  0  0  0  0  0  0  0
   -4.3543    7.9159    2.6561 H   0  0  0  0  0  0  0  0  0  0  0  0
   -4.9661    6.5594    1.2693 O   0  0  0  0  0  0  0  0  0  0  0  0
   -3.4809    5.9775    3.1202 C   0  0  2  0  0  0  0  0  0  0  0  0
   -4.3865    5.4472    3.4356 H   0  0  0  0  0  0  0  0  0  0  0  0
   -2.9860    6.6032    4.3131 O   0  0  0  0  0  0  0  0  0  0  0  0
   -2.4656    4.9310    2.5901 C   0  0  2  0  0  0  0  0  0  0  0  0
   -1.5636    4.9042    3.2118 H   0  0  0  0  0  0  0  0  0  0  0  0
   -1.9375    5.2647    1.2208 C   0  0  0  0  0  0  0  0  0  0  0  0
   -2.1052    6.4422    0.6115 N   0  3  0  0  0  0  0  0  0  0  0  0
   -1.5878    6.3962   -0.6589 C   0  0  0  0  0  0  0  0  0  0  0  0
   -0.9527    5.1874   -0.7958 C   0  0  0  0  0  0  0  0  0  0  0  0
   -1.2327    4.4927    0.3790 N   0  0  0  0  0  0  0  0  0  0  0  0
   -0.9925    3.5235    0.5723 H   0  0  0  0  0  0  0  0  0  0  0  0
   -0.0809    4.7434   -1.9153 C   0  0  2  0  0  0  0  0  0  0  0  0
    0.7000    4.0639   -1.5586 H   0  0  0  0  0  0  0  0  0  0  0  0
    0.4909    5.8807   -2.5556 O   0  0  0  0  0  0  0  0  0  0  0  0
    1.3831    6.6213   -1.7195 C   0  0  0  0  0  0  0  0  0  0  0  0
   -0.9117    4.0596   -2.8328 O   0  0  0  0  0  0  0  0  0  0  0  0
   -3.0143    3.6143    2.5835 O   0  0  0  0  0  0  0  0  0  0  0  0
   -0.0506    9.3391    1.8589 H   0  0  0  0  0  0  0  0  0  0  0  0
   -2.2694    9.3417    2.4412 H   0  0  0  0  0  0  0  0  0  0  0  0
   -1.3524    7.8823    2.8778 H   0  0  0  0  0  0  0  0  0  0  0  0
   -4.6361    5.8612    0.6768 H   0  0  0  0  0  0  0  0  0  0  0  0
   -2.0257    6.7467    4.2926 H   0  0  0  0  0  0  0  0  0  0  0  0
   -1.6305    7.2726   -1.2858 H   0  0  0  0  0  0  0  0  0  0  0  0
    1.7713    7.4665   -2.2914 H   0  0  0  0  0  0  0  0  0  0  0  0
    2.2045    5.9887   -1.3781 H   0  0  0  0  0  0  0  0  0  0  0  0
    0.8728    7.0433   -0.8471 H   0  0  0  0  0  0  0  0  0  0  0  0
   -0.3314    3.7889   -3.5651 H   0  0  0  0  0  0  0  0  0  0  0  0
   -3.4304    3.4583    3.4542 H   0  0  0  0  0  0  0  0  0  0  0  0
  1  2  1  0  0  0  0
  1 25  1  0  0  0  0
  2  3  1  0  0  0  0
  2 26  1  0  0  0  0
  2 27  1  0  0  0  0
  3  4  1  6  0  0  0
  3  5  1  0  0  0  0
  3 14  1  0  0  0  0
  5  8  1  0  0  0  0
  5  7  1  0  0  0  0
  5  6  1  1  0  0  0
  7 28  1  0  0  0  0
  8 11  1  0  0  0  0
  8 10  1  0  0  0  0
  8  9  1  1  0  0  0
 10 29  1  0  0  0  0
 11 12  1  1  0  0  0
 11 13  1  0  0  0  0
 11 24  1  0  0  0  0
 13 14  2  0  0  0  0
 13 17  1  0  0  0  0
 14 15  1  0  0  0  0
 15 16  2  0  0  0  0
 15 30  1  0  0  0  0
 16 17  1  0  0  0  0
 17 18  1  0  0  0  0
 19 21  1  0  0  0  0
 19 23  1  0  0  0  0
 19 20  1  1  0  0  0
 19 16  1  0  0  0  0
 21 22  1  0  0  0  0
 22 31  1  0  0  0  0
 22 32  1  0  0  0  0
 22 33  1  0  0  0  0
 23 34  1  0  0  0  0
 24 35  1  0  0  0  0
M  CHG  1  14   1
M  END
$$$$
