GI4
 OpenBabel04121316123D

 33 34  0  0  1  0  0  0  0  0999 V2000
    0.9617    0.0155   -0.0603 O   0  0  0  0  0  0  0  0  0  0  0  0
    2.3715   -0.0497    0.0198 C   0  0  0  0  0  0  0  0  0  0  0  0
    2.8448    0.2265    1.4596 C   0  0  2  0  0  0  0  0  0  0  0  0
    2.8779   -0.7199    2.0176 H   0  0  0  0  0  0  0  0  0  0  0  0
    1.9607    1.2183    2.2386 C   0  0  1  0  0  0  0  0  0  0  0  0
    0.9196    0.8836    2.1917 H   0  0  0  0  0  0  0  0  0  0  0  0
    2.3105    1.1838    3.6336 O   0  0  0  0  0  0  0  0  0  0  0  0
    2.0665    2.6661    1.6982 C   0  0  2  0  0  0  0  0  0  0  0  0
    1.6508    3.3246    2.4683 H   0  0  0  0  0  0  0  0  0  0  0  0
    1.2417    2.8662    0.5447 O   0  0  0  0  0  0  0  0  0  0  0  0
    3.4923    3.1552    1.3397 C   0  0  2  0  0  0  0  0  0  0  0  0
    3.5236    3.5131    0.3035 H   0  0  0  0  0  0  0  0  0  0  0  0
    4.5206    2.0545    1.3525 C   0  0  0  0  0  0  0  0  0  0  0  0
    4.2142    0.7550    1.4238 N   0  3  0  0  0  0  0  0  0  0  0  0
    5.3418   -0.0036    1.4396 C   0  0  0  0  0  0  0  0  0  0  0  0
    6.4288    0.8308    1.3423 C   0  0  0  0  0  0  0  0  0  0  0  0
    5.8656    2.1162    1.2941 N   0  0  0  0  0  0  0  0  0  0  0  0
    6.3614    3.0081    1.2570 H   0  0  0  0  0  0  0  0  0  0  0  0
    7.8806    0.4990    1.2966 C   0  0  0  0  0  0  0  0  0  0  0  0
    8.0909   -1.0091    1.3613 C   0  0  0  0  0  0  0  0  0  0  0  0
    7.1943   -1.8476    1.4307 O   0  0  0  0  0  0  0  0  0  0  0  0
    9.3670   -1.4170    1.3299 O   0  0  0  0  0  0  0  0  0  0  0  0
    3.9036    4.2319    2.1776 O   0  0  0  0  0  0  0  0  0  0  0  0
    0.6711   -0.1899   -0.9674 H   0  0  0  0  0  0  0  0  0  0  0  0
    2.7833    0.7022   -0.6626 H   0  0  0  0  0  0  0  0  0  0  0  0
    2.7299   -1.0252   -0.3244 H   0  0  0  0  0  0  0  0  0  0  0  0
    3.2504    1.3856    3.7719 H   0  0  0  0  0  0  0  0  0  0  0  0
    1.4435    2.2166   -0.1501 H   0  0  0  0  0  0  0  0  0  0  0  0
    5.1922   -1.0654    1.5081 H   0  0  0  0  0  0  0  0  0  0  0  0
    8.3737    0.9743    2.1498 H   0  0  0  0  0  0  0  0  0  0  0  0
    8.2957    0.8815    0.3586 H   0  0  0  0  0  0  0  0  0  0  0  0
   10.0686   -0.7444    1.2724 H   0  0  0  0  0  0  0  0  0  0  0  0
    3.1618    4.8710    2.2006 H   0  0  0  0  0  0  0  0  0  0  0  0
  1  2  1  0  0  0  0
  1 24  1  0  0  0  0
  2  3  1  0  0  0  0
  2 25  1  0  0  0  0
  2 26  1  0  0  0  0
  3  4  1  1  0  0  0
  3  5  1  0  0  0  0
  3 14  1  0  0  0  0
  5  8  1  0  0  0  0
  5  7  1  0  0  0  0
  5  6  1  6  0  0  0
  7 27  1  0  0  0  0
  8 11  1  0  0  0  0
  8 10  1  0  0  0  0
  8  9  1  1  0  0  0
 10 28  1  0  0  0  0
 11 12  1  6  0  0  0
 11 13  1  0  0  0  0
 11 23  1  0  0  0  0
 13 14  2  0  0  0  0
 13 17  1  0  0  0  0
 14 15  1  0  0  0  0
 15 16  2  0  0  0  0
 15 29  1  0  0  0  0
 16 17  1  0  0  0  0
 16 19  1  0  0  0  0
 17 18  1  0  0  0  0
 19 20  1  0  0  0  0
 19 30  1  0  0  0  0
 19 31  1  0  0  0  0
 20 21  2  0  0  0  0
 20 22  1  0  0  0  0
 22 32  1  0  0  0  0
 23 33  1  0  0  0  0
M  CHG  1  14   1
M  END
$$$$
