GIA
 OpenBabel04121316123D

 41 43  0  0  1  0  0  0  0  0999 V2000
    1.9314   -0.5508    4.4479 F   0  0  0  0  0  0  0  0  0  0  0  0
    2.6274   -0.7696    3.3263 C   0  0  0  0  0  0  0  0  0  0  0  0
    3.0607    0.3153    2.5705 C   0  0  0  0  0  0  0  0  0  0  0  0
    3.7855    0.1001    1.4097 C   0  0  0  0  0  0  0  0  0  0  0  0
    3.9659   -1.1948    0.9575 C   0  0  0  0  0  0  0  0  0  0  0  0
    3.4725   -2.2961    1.6763 C   0  0  0  0  0  0  0  0  0  0  0  0
    2.8751   -2.0744    2.9206 C   0  0  0  0  0  0  0  0  0  0  0  0
    3.5029   -3.6979    1.1253 C   0  0  0  0  0  0  0  0  0  0  0  0
    4.0135   -3.7947   -0.3212 C   0  0  2  0  0  0  0  0  0  0  0  0
    4.8195   -3.0889   -0.5282 H   0  0  0  0  0  0  0  0  0  0  0  0
    2.9267   -3.5976   -1.4131 C   0  0  0  0  0  0  0  0  0  0  0  0
    2.7957   -4.3354   -2.3927 O   0  0  0  0  0  0  0  0  0  0  0  0
    2.1855   -2.4727   -1.3262 O   0  0  0  0  0  0  0  0  0  0  0  0
    4.6882   -5.0503   -0.5285 N   0  0  0  0  0  0  0  0  0  0  0  0
    3.9700   -6.2047   -0.3888 C   0  0  0  0  0  0  0  0  0  0  0  0
    2.7882   -6.2156   -0.0433 O   0  0  0  0  0  0  0  0  0  0  0  0
    4.6822   -7.4582   -0.6287 C   0  0  0  0  0  0  0  0  0  0  0  0
    4.0139   -8.6268   -0.2629 C   0  0  0  0  0  0  0  0  0  0  0  0
    4.6141   -9.8545   -0.4692 C   0  0  0  0  0  0  0  0  0  0  0  0
    5.8699   -9.9141   -1.0777 C   0  0  0  0  0  0  0  0  0  0  0  0
    6.5566   -8.7277   -1.4299 C   0  0  0  0  0  0  0  0  0  0  0  0
    5.9553   -7.4984   -1.2028 C   0  0  0  0  0  0  0  0  0  0  0  0
    7.8063   -8.7942   -2.0476 C   0  0  0  0  0  0  0  0  0  0  0  0
    8.2800  -10.0230   -2.4878 C   0  0  0  0  0  0  0  0  0  0  0  0
    7.5547  -11.1840   -2.2269 C   0  0  0  0  0  0  0  0  0  0  0  0
    6.4247  -11.1420   -1.4155 C   0  0  0  0  0  0  0  0  0  0  0  0
    2.8361    1.3250    2.8898 H   0  0  0  0  0  0  0  0  0  0  0  0
    4.1899    0.9228    0.8279 H   0  0  0  0  0  0  0  0  0  0  0  0
    4.4570   -1.2874   -0.0060 H   0  0  0  0  0  0  0  0  0  0  0  0
    2.5648   -2.9002    3.5579 H   0  0  0  0  0  0  0  0  0  0  0  0
    2.4836   -4.1061    1.1795 H   0  0  0  0  0  0  0  0  0  0  0  0
    4.1238   -4.3096    1.7978 H   0  0  0  0  0  0  0  0  0  0  0  0
    2.3025   -1.9140   -0.5380 H   0  0  0  0  0  0  0  0  0  0  0  0
    5.6787   -5.0378   -0.7190 H   0  0  0  0  0  0  0  0  0  0  0  0
    3.0122   -8.5752    0.1594 H   0  0  0  0  0  0  0  0  0  0  0  0
    4.0650  -10.7540   -0.2080 H   0  0  0  0  0  0  0  0  0  0  0  0
    6.4627   -6.6024   -1.5432 H   0  0  0  0  0  0  0  0  0  0  0  0
    8.3860   -7.8942   -2.2393 H   0  0  0  0  0  0  0  0  0  0  0  0
    9.2089  -10.0739   -3.0463 H   0  0  0  0  0  0  0  0  0  0  0  0
    7.8599  -12.1281   -2.6654 H   0  0  0  0  0  0  0  0  0  0  0  0
    5.9490  -12.0659   -1.1001 H   0  0  0  0  0  0  0  0  0  0  0  0
  1  2  1  0  0  0  0
  2  3  2  0  0  0  0
  2  7  1  0  0  0  0
  3  4  1  0  0  0  0
  3 27  1  0  0  0  0
  4  5  2  0  0  0  0
  4 28  1  0  0  0  0
  5  6  1  0  0  0  0
  5 29  1  0  0  0  0
  6  7  2  0  0  0  0
  6  8  1  0  0  0  0
  7 30  1  0  0  0  0
  8 31  1  0  0  0  0
  8 32  1  0  0  0  0
  9 11  1  0  0  0  0
  9 14  1  0  0  0  0
  9 10  1  6  0  0  0
  9  8  1  0  0  0  0
 11 12  2  0  0  0  0
 11 13  1  0  0  0  0
 13 33  1  0  0  0  0
 14 15  1  0  0  0  0
 14 34  1  0  0  0  0
 15 16  2  0  0  0  0
 15 17  1  0  0  0  0
 17 18  2  0  0  0  0
 17 22  1  0  0  0  0
 18 19  1  0  0  0  0
 18 35  1  0  0  0  0
 19 20  2  0  0  0  0
 19 36  1  0  0  0  0
 20 21  1  0  0  0  0
 20 26  1  0  0  0  0
 21 22  2  0  0  0  0
 21 23  1  0  0  0  0
 22 37  1  0  0  0  0
 23 24  2  0  0  0  0
 23 38  1  0  0  0  0
 24 25  1  0  0  0  0
 24 39  1  0  0  0  0
 25 26  2  0  0  0  0
 25 40  1  0  0  0  0
 26 41  1  0  0  0  0
M  END
$$$$
