GIM
 OpenBabel04121316123D

 27 28  0  0  1  0  0  0  0  0999 V2000
    0.6235    0.1427   -0.0979 O   0  0  0  0  0  0  0  0  0  0  0  0
    1.9815   -0.0500   -0.3952 C   0  0  0  0  0  0  0  0  0  0  0  0
    2.9252    1.1809   -0.4073 C   0  0  2  0  0  0  0  0  0  0  0  0
    3.0055    1.5345   -1.4454 H   0  0  0  0  0  0  0  0  0  0  0  0
    4.2613    0.5817    0.1055 C   0  0  1  0  0  0  0  0  0  0  0  0
    4.4029   -0.3938   -0.3779 H   0  0  0  0  0  0  0  0  0  0  0  0
    5.3762    1.3632   -0.3204 O   0  0  0  0  0  0  0  0  0  0  0  0
    4.2335    0.3567    1.6612 C   0  0  2  0  0  0  0  0  0  0  0  0
    5.2550    0.0933    1.9476 H   0  0  0  0  0  0  0  0  0  0  0  0
    3.4459   -0.7746    2.0736 O   0  0  0  0  0  0  0  0  0  0  0  0
    3.7502    1.5562    2.4868 C   0  0  2  0  0  0  0  0  0  0  0  0
    2.9562    1.2788    3.1898 H   0  0  0  0  0  0  0  0  0  0  0  0
    3.0702    2.5986    1.6549 C   0  0  0  0  0  0  0  0  0  0  0  0
    2.6330    2.4285    0.3963 N   0  3  0  0  0  0  0  0  0  0  0  0
    2.1888    3.6700   -0.0829 C   0  0  0  0  0  0  0  0  0  0  0  0
    2.2937    4.5653    0.9499 C   0  0  0  0  0  0  0  0  0  0  0  0
    2.8339    3.8775    2.0054 N   0  0  0  0  0  0  0  0  0  0  0  0
    3.0888    4.2563    2.9114 H   0  0  0  0  0  0  0  0  0  0  0  0
    4.8203    2.0852    3.2635 O   0  0  0  0  0  0  0  0  0  0  0  0
    0.2697   -0.7658    0.0314 H   0  0  0  0  0  0  0  0  0  0  0  0
    2.1004   -0.5870   -1.3456 H   0  0  0  0  0  0  0  0  0  0  0  0
    2.3091   -0.8024    0.3118 H   0  0  0  0  0  0  0  0  0  0  0  0
    5.3562    2.2641    0.0381 H   0  0  0  0  0  0  0  0  0  0  0  0
    2.5162   -0.5238    2.2512 H   0  0  0  0  0  0  0  0  0  0  0  0
    1.8885    3.7797   -1.1119 H   0  0  0  0  0  0  0  0  0  0  0  0
    2.0953    5.6202    1.0738 H   0  0  0  0  0  0  0  0  0  0  0  0
    5.2180    1.3227    3.7348 H   0  0  0  0  0  0  0  0  0  0  0  0
  1  2  1  0  0  0  0
  1 20  1  0  0  0  0
  2  3  1  0  0  0  0
  2 21  1  0  0  0  0
  2 22  1  0  0  0  0
  3  4  1  6  0  0  0
  3  5  1  0  0  0  0
  3 14  1  0  0  0  0
  5  8  1  0  0  0  0
  5  7  1  0  0  0  0
  5  6  1  6  0  0  0
  7 23  1  0  0  0  0
  8 11  1  0  0  0  0
  8 10  1  0  0  0  0
  8  9  1  1  0  0  0
 10 24  1  0  0  0  0
 11 12  1  1  0  0  0
 11 13  1  0  0  0  0
 11 19  1  0  0  0  0
 13 14  2  0  0  0  0
 13 17  1  0  0  0  0
 14 15  1  0  0  0  0
 15 16  2  0  0  0  0
 15 25  1  0  0  0  0
 16 17  1  0  0  0  0
 16 26  1  0  0  0  0
 17 18  1  0  0  0  0
 19 27  1  0  0  0  0
M  CHG  1  14   1
M  END
$$$$
