GIN
 OpenBabel04121316123D

 53 55  0  0  0  0  0  0  0  0999 V2000
    0.9537    0.1352    0.0722 C   0  0  0  0  0  0  0  0  0  0  0  0
    2.4610    0.1893    0.0801 C   0  0  0  0  0  0  0  0  0  0  0  0
    2.9710   -0.6470   -1.0719 C   0  0  0  0  0  0  0  0  0  0  0  0
    4.4614   -0.6928   -1.0919 C   0  0  0  0  0  0  0  0  0  0  0  0
    5.1826    0.5313   -1.0962 C   0  0  0  0  0  0  0  0  0  0  0  0
    6.5518    0.5868   -1.3054 C   0  0  0  0  0  0  0  0  0  0  0  0
    7.2460   -0.5923   -1.3813 C   0  0  0  0  0  0  0  0  0  0  0  0
    6.5293   -1.8106   -1.1989 C   0  0  0  0  0  0  0  0  0  0  0  0
    5.1382   -1.9028   -1.1584 C   0  0  0  0  0  0  0  0  0  0  0  0
    4.5455   -3.3046   -1.2390 C   0  0  0  0  0  0  0  0  0  0  0  0
    4.9714   -3.9649   -2.3598 F   0  0  0  0  0  0  0  0  0  0  0  0
    4.9193   -4.0953   -0.1929 F   0  0  0  0  0  0  0  0  0  0  0  0
    3.1907   -3.4083   -1.2921 F   0  0  0  0  0  0  0  0  0  0  0  0
    8.6344   -0.4989   -1.6964 N   0  0  0  0  0  0  0  0  0  0  0  0
    9.4199   -1.6142   -1.6105 C   0  0  0  0  0  0  0  0  0  0  0  0
    8.9456   -2.5459   -0.9736 O   0  0  0  0  0  0  0  0  0  0  0  0
   10.8068   -1.7483   -2.0992 C   0  0  0  0  0  0  0  0  0  0  0  0
   11.5194   -0.5505   -2.2515 C   0  0  0  0  0  0  0  0  0  0  0  0
   12.8083   -0.5636   -2.7643 C   0  0  0  0  0  0  0  0  0  0  0  0
   13.4504   -1.7745   -2.9843 C   0  0  0  0  0  0  0  0  0  0  0  0
   12.8021   -2.9776   -2.7042 C   0  0  0  0  0  0  0  0  0  0  0  0
   11.4448   -3.0165   -2.3436 C   0  0  0  0  0  0  0  0  0  0  0  0
   10.8968   -4.3066   -2.2823 N   0  0  0  0  0  0  0  0  0  0  0  0
    9.5046   -4.5342   -1.9767 C   0  0  0  0  0  0  0  0  0  0  0  0
    8.9681   -5.8974   -2.0040 C   0  0  0  0  0  0  0  0  0  0  0  0
    9.8154   -6.9526   -1.5362 C   0  0  0  0  0  0  0  0  0  0  0  0
    9.4352   -8.2161   -1.7193 C   0  0  0  0  0  0  0  0  0  0  0  0
    8.0440   -8.4960   -2.1709 C   0  0  0  0  0  0  0  0  0  0  0  0
    7.6705   -9.6447   -2.3670 O   0  0  0  0  0  0  0  0  0  0  0  0
    7.2127   -7.4070   -2.3069 N   0  0  0  0  0  0  0  0  0  0  0  0
    6.2393   -7.5894   -2.5184 H   0  0  0  0  0  0  0  0  0  0  0  0
    7.6766   -6.1239   -2.2940 C   0  0  0  0  0  0  0  0  0  0  0  0
    0.5598    0.7576    0.8748 H   0  0  0  0  0  0  0  0  0  0  0  0
    0.6049   -0.8934    0.2119 H   0  0  0  0  0  0  0  0  0  0  0  0
    0.5732    0.4980   -0.8880 H   0  0  0  0  0  0  0  0  0  0  0  0
    2.8557   -0.2060    1.0253 H   0  0  0  0  0  0  0  0  0  0  0  0
    2.7909    1.2275   -0.0059 H   0  0  0  0  0  0  0  0  0  0  0  0
    2.6273   -0.2975   -2.0517 H   0  0  0  0  0  0  0  0  0  0  0  0
    2.5308   -1.6282   -0.9298 H   0  0  0  0  0  0  0  0  0  0  0  0
    4.6724    1.4795   -0.9607 H   0  0  0  0  0  0  0  0  0  0  0  0
    7.0594    1.5405   -1.3954 H   0  0  0  0  0  0  0  0  0  0  0  0
    6.9966   -2.7858   -1.0995 H   0  0  0  0  0  0  0  0  0  0  0  0
    9.0261    0.4066   -1.9141 H   0  0  0  0  0  0  0  0  0  0  0  0
   11.0897    0.4016   -1.9619 H   0  0  0  0  0  0  0  0  0  0  0  0
   13.3135    0.3741   -2.9732 H   0  0  0  0  0  0  0  0  0  0  0  0
   14.4638   -1.7888   -3.3731 H   0  0  0  0  0  0  0  0  0  0  0  0
   13.3644   -3.9054   -2.7952 H   0  0  0  0  0  0  0  0  0  0  0  0
   11.4538   -5.1056   -2.5494 H   0  0  0  0  0  0  0  0  0  0  0  0
    8.9040   -3.9633   -2.6963 H   0  0  0  0  0  0  0  0  0  0  0  0
    9.3945   -4.3548   -0.9067 H   0  0  0  0  0  0  0  0  0  0  0  0
   10.7514   -6.6819   -1.0557 H   0  0  0  0  0  0  0  0  0  0  0  0
   10.0840   -9.0425   -1.4871 H   0  0  0  0  0  0  0  0  0  0  0  0
    6.9681   -5.3356   -2.5463 H   0  0  0  0  0  0  0  0  0  0  0  0
  1  2  1  0  0  0  0
  1 33  1  0  0  0  0
  1 34  1  0  0  0  0
  1 35  1  0  0  0  0
  2  3  1  0  0  0  0
  2 36  1  0  0  0  0
  2 37  1  0  0  0  0
  3  4  1  0  0  0  0
  3 38  1  0  0  0  0
  3 39  1  0  0  0  0
  4  5  2  0  0  0  0
  4  9  1  0  0  0  0
  5  6  1  0  0  0  0
  5 40  1  0  0  0  0
  6  7  2  0  0  0  0
  6 41  1  0  0  0  0
  7  8  1  0  0  0  0
  7 14  1  0  0  0  0
  8  9  2  0  0  0  0
  8 42  1  0  0  0  0
  9 10  1  0  0  0  0
 10 11  1  0  0  0  0
 10 12  1  0  0  0  0
 10 13  1  0  0  0  0
 14 15  1  0  0  0  0
 14 43  1  0  0  0  0
 15 16  2  0  0  0  0
 15 17  1  0  0  0  0
 17 18  2  0  0  0  0
 17 22  1  0  0  0  0
 18 19  1  0  0  0  0
 18 44  1  0  0  0  0
 19 20  2  0  0  0  0
 19 45  1  0  0  0  0
 20 21  1  0  0  0  0
 20 46  1  0  0  0  0
 21 22  2  0  0  0  0
 21 47  1  0  0  0  0
 22 23  1  0  0  0  0
 23 24  1  0  0  0  0
 23 48  1  0  0  0  0
 24 25  1  0  0  0  0
 24 49  1  0  0  0  0
 24 50  1  0  0  0  0
 25 26  1  0  0  0  0
 25 32  2  0  0  0  0
 26 27  2  0  0  0  0
 26 51  1  0  0  0  0
 27 28  1  0  0  0  0
 27 52  1  0  0  0  0
 28 29  2  0  0  0  0
 28 30  1  0  0  0  0
 30 31  1  0  0  0  0
 30 32  1  0  0  0  0
 32 53  1  0  0  0  0
M  END
$$$$
