GIO
 OpenBabel04121316123D

 21 22  0  0  1  0  0  0  0  0999 V2000
    1.0841    0.0079    0.4488 O   0  0  0  0  0  0  0  0  0  0  0  0
    2.1094   -0.0616   -0.2274 C   0  0  0  0  0  0  0  0  0  0  0  0
    2.7370    1.1901   -0.8488 C   0  0  0  0  0  0  0  0  0  0  0  0
    3.7782    0.9816   -1.8408 N   0  0  0  0  0  0  0  0  0  0  0  0
    3.8842   -0.2370   -2.4769 C   0  0  0  0  0  0  0  0  0  0  0  0
    4.3128   -0.3197   -3.6235 O   0  0  0  0  0  0  0  0  0  0  0  0
    3.7369   -1.4244   -1.5227 C   0  0  1  0  0  0  0  0  0  0  0  0
    4.7215   -1.5523   -1.0534 H   0  0  0  0  0  0  0  0  0  0  0  0
    2.7798   -1.2431   -0.4415 N   0  0  0  0  0  0  0  0  0  0  0  0
    2.2565   -2.5123    0.0203 C   0  0  0  0  0  0  0  0  0  0  0  0
    2.8966   -3.5519   -0.8941 C   0  0  0  0  0  0  0  0  0  0  0  0
    3.3038   -2.7500   -2.1343 C   0  0  0  0  0  0  0  0  0  0  0  0
    3.1755    1.7856   -0.0423 H   0  0  0  0  0  0  0  0  0  0  0  0
    1.9408    1.7686   -1.3283 H   0  0  0  0  0  0  0  0  0  0  0  0
    4.0490    1.7771   -2.4049 H   0  0  0  0  0  0  0  0  0  0  0  0
    1.1661   -2.5126   -0.0613 H   0  0  0  0  0  0  0  0  0  0  0  0
    2.5367   -2.6577    1.0695 H   0  0  0  0  0  0  0  0  0  0  0  0
    2.2120   -4.3738   -1.1200 H   0  0  0  0  0  0  0  0  0  0  0  0
    3.7880   -3.9756   -0.4151 H   0  0  0  0  0  0  0  0  0  0  0  0
    2.4391   -2.6196   -2.7969 H   0  0  0  0  0  0  0  0  0  0  0  0
    4.1002   -3.2377   -2.7030 H   0  0  0  0  0  0  0  0  0  0  0  0
  1  2  2  0  0  0  0
  2  3  1  0  0  0  0
  2  9  1  0  0  0  0
  3  4  1  0  0  0  0
  3 13  1  0  0  0  0
  3 14  1  0  0  0  0
  4  5  1  0  0  0  0
  4 15  1  0  0  0  0
  5  7  1  0  0  0  0
  5  6  2  0  0  0  0
  7  9  1  0  0  0  0
  7 12  1  0  0  0  0
  7  8  1  1  0  0  0
  9 10  1  0  0  0  0
 10 11  1  0  0  0  0
 10 16  1  0  0  0  0
 10 17  1  0  0  0  0
 11 12  1  0  0  0  0
 11 18  1  0  0  0  0
 11 19  1  0  0  0  0
 12 20  1  0  0  0  0
 12 21  1  0  0  0  0
M  END
$$$$
