GJW
 OpenBabel04121316123D

 37 40  0  0  0  0  0  0  0  0999 V2000
    0.7845    0.0041   -0.0772 O   0  0  0  0  0  0  0  0  0  0  0  0
    2.0016    0.0590   -0.0593 C   0  0  0  0  0  0  0  0  0  0  0  0
    2.7514   -1.1001   -0.0420 N   0  0  0  0  0  0  0  0  0  0  0  0
    2.2269   -1.9625   -0.0682 H   0  0  0  0  0  0  0  0  0  0  0  0
    4.1476   -1.1181   -0.0344 C   0  0  0  0  0  0  0  0  0  0  0  0
    4.8209   -2.3468   -0.0426 C   0  0  0  0  0  0  0  0  0  0  0  0
    6.2069   -2.3355   -0.1713 C   0  0  0  0  0  0  0  0  0  0  0  0
    6.8057   -1.0999   -0.4260 C   0  0  0  0  0  0  0  0  0  0  0  0
    6.2191    0.1144   -0.1688 C   0  0  0  0  0  0  0  0  0  0  0  0
    4.8587    0.1002   -0.0389 C   0  0  0  0  0  0  0  0  0  0  0  0
    4.1307    1.2968   -0.0343 N   0  0  0  0  0  0  0  0  0  0  0  0
    2.7623    1.2855   -0.0513 C   0  0  0  0  0  0  0  0  0  0  0  0
    2.3321    2.5959   -0.0655 C   0  0  0  0  0  0  0  0  0  0  0  0
    3.4761    3.4261   -0.0660 C   0  0  0  0  0  0  0  0  0  0  0  0
    4.5796    2.5996   -0.0589 C   0  0  0  0  0  0  0  0  0  0  0  0
    7.0776   -3.5734   -0.0364 C   0  0  0  0  0  0  0  0  0  0  0  0
    8.5500   -3.3310    0.0996 N   0  0  0  0  0  0  0  0  0  0  0  0
    8.9685   -2.1585    0.8888 C   0  0  0  0  0  0  0  0  0  0  0  0
   10.3999   -2.4093    1.2414 C   0  0  0  0  0  0  0  0  0  0  0  0
   10.4015   -3.8816    1.5302 C   0  0  0  0  0  0  0  0  0  0  0  0
    9.2095   -4.4655    0.7657 C   0  0  0  0  0  0  0  0  0  0  0  0
    4.2757   -3.2876    0.0009 H   0  0  0  0  0  0  0  0  0  0  0  0
    7.7952   -1.0754   -0.8491 H   0  0  0  0  0  0  0  0  0  0  0  0
    6.8359    1.0040   -0.1845 H   0  0  0  0  0  0  0  0  0  0  0  0
    1.2947    2.8984   -0.0756 H   0  0  0  0  0  0  0  0  0  0  0  0
    3.4940    4.5083   -0.0738 H   0  0  0  0  0  0  0  0  0  0  0  0
    5.6322    2.8549   -0.0646 H   0  0  0  0  0  0  0  0  0  0  0  0
    6.8942   -4.2103   -0.9131 H   0  0  0  0  0  0  0  0  0  0  0  0
    6.7099   -4.1320    0.8380 H   0  0  0  0  0  0  0  0  0  0  0  0
    8.3368   -2.0089    1.7693 H   0  0  0  0  0  0  0  0  0  0  0  0
    9.0646   -1.2192    0.3439 H   0  0  0  0  0  0  0  0  0  0  0  0
   10.6958   -1.7742    2.0809 H   0  0  0  0  0  0  0  0  0  0  0  0
   11.0434   -2.1648    0.3848 H   0  0  0  0  0  0  0  0  0  0  0  0
   10.2529   -4.0187    2.6060 H   0  0  0  0  0  0  0  0  0  0  0  0
   11.3527   -4.3253    1.2340 H   0  0  0  0  0  0  0  0  0  0  0  0
    8.5514   -4.9580    1.4914 H   0  0  0  0  0  0  0  0  0  0  0  0
    9.5290   -5.2164    0.0368 H   0  0  0  0  0  0  0  0  0  0  0  0
  1  2  2  0  0  0  0
  2  3  1  0  0  0  0
  2 12  1  0  0  0  0
  3  4  1  0  0  0  0
  3  5  1  0  0  0  0
  5  6  2  0  0  0  0
  5 10  1  0  0  0  0
  6  7  1  0  0  0  0
  6 22  1  0  0  0  0
  7  8  2  0  0  0  0
  7 16  1  0  0  0  0
  8  9  1  0  0  0  0
  8 23  1  0  0  0  0
  9 10  2  0  0  0  0
  9 24  1  0  0  0  0
 10 11  1  0  0  0  0
 11 12  1  0  0  0  0
 11 15  1  0  0  0  0
 12 13  2  0  0  0  0
 13 14  1  0  0  0  0
 13 25  1  0  0  0  0
 14 15  2  0  0  0  0
 14 26  1  0  0  0  0
 15 27  1  0  0  0  0
 16 17  1  0  0  0  0
 16 28  1  0  0  0  0
 16 29  1  0  0  0  0
 17 18  1  0  0  0  0
 17 21  1  0  0  0  0
 18 19  1  0  0  0  0
 18 30  1  0  0  0  0
 18 31  1  0  0  0  0
 19 20  1  0  0  0  0
 19 32  1  0  0  0  0
 19 33  1  0  0  0  0
 20 21  1  0  0  0  0
 20 34  1  0  0  0  0
 20 35  1  0  0  0  0
 21 36  1  0  0  0  0
 21 37  1  0  0  0  0
M  END
$$$$
