GK1
 OpenBabel04121316123D

 41 44  0  0  0  0  0  0  0  0999 V2000
    1.0187   -0.1811    0.1749 O   0  0  0  0  0  0  0  0  0  0  0  0
    2.2337   -0.0952    0.0185 C   0  0  0  0  0  0  0  0  0  0  0  0
    2.8835    0.9598   -0.6989 C   0  0  0  0  0  0  0  0  0  0  0  0
    2.4125    2.5684   -0.3733 S   0  0  0  0  0  0  0  0  0  0  0  0
    3.4352    3.0822   -1.6166 C   0  0  0  0  0  0  0  0  0  0  0  0
    4.0690    1.9995   -2.1888 C   0  0  0  0  0  0  0  0  0  0  0  0
    3.8103    0.7739   -1.6099 N   0  0  0  0  0  0  0  0  0  0  0  0
    5.0045    2.1683   -3.2557 C   0  0  0  0  0  0  0  0  0  0  0  0
    5.2160    3.4569   -3.7917 C   0  0  0  0  0  0  0  0  0  0  0  0
    6.2983    3.7302   -4.5600 C   0  0  0  0  0  0  0  0  0  0  0  0
    6.9203    2.6385   -5.1176 C   0  0  0  0  0  0  0  0  0  0  0  0
    6.5953    1.2740   -4.6982 C   0  0  0  0  0  0  0  0  0  0  0  0
    5.7363    1.0752   -3.6950 C   0  0  0  0  0  0  0  0  0  0  0  0
    7.0968    0.1582   -5.2469 N   0  0  0  0  0  0  0  0  0  0  0  0
    8.0169    0.3717   -6.1408 C   0  0  0  0  0  0  0  0  0  0  0  0
    8.4292    1.6634   -6.3751 C   0  0  0  0  0  0  0  0  0  0  0  0
    7.8378    2.8389   -6.0743 C   0  0  0  0  0  0  0  0  0  0  0  0
    8.3702    3.9933   -6.6846 N   0  0  0  0  0  0  0  0  0  0  0  0
    9.2440    4.1280   -7.8397 C   0  0  0  0  0  0  0  0  0  0  0  0
    9.5610    5.4607   -8.2101 C   0  0  0  0  0  0  0  0  0  0  0  0
   10.2955    5.7109   -9.3764 C   0  0  0  0  0  0  0  0  0  0  0  0
   10.4868    6.9632   -9.8805 O   0  0  0  0  0  0  0  0  0  0  0  0
   10.8766    4.6889  -10.1031 C   0  0  0  0  0  0  0  0  0  0  0  0
   10.7402    3.3957   -9.6746 C   0  0  0  0  0  0  0  0  0  0  0  0
    9.8629    3.0772   -8.6370 C   0  0  0  0  0  0  0  0  0  0  0  0
    9.7271    1.5639   -8.6173 C   0  0  0  0  0  0  0  0  0  0  0  0
    2.9107   -0.8400    0.4654 H   0  0  0  0  0  0  0  0  0  0  0  0
    3.5236    4.1266   -1.8675 H   0  0  0  0  0  0  0  0  0  0  0  0
    4.5444    4.2852   -3.6040 H   0  0  0  0  0  0  0  0  0  0  0  0
    6.5902    4.7497   -4.7741 H   0  0  0  0  0  0  0  0  0  0  0  0
    5.5999    0.0693   -3.2918 H   0  0  0  0  0  0  0  0  0  0  0  0
    8.5162   -0.4586   -6.6288 H   0  0  0  0  0  0  0  0  0  0  0  0
    9.4252    1.8804   -6.6094 H   0  0  0  0  0  0  0  0  0  0  0  0
    7.9361    4.8676   -6.3988 H   0  0  0  0  0  0  0  0  0  0  0  0
    9.2218    6.3029   -7.6099 H   0  0  0  0  0  0  0  0  0  0  0  0
    9.9894    7.6035   -9.3522 H   0  0  0  0  0  0  0  0  0  0  0  0
   11.4309    4.8765  -11.0129 H   0  0  0  0  0  0  0  0  0  0  0  0
   11.2681    2.5953  -10.1886 H   0  0  0  0  0  0  0  0  0  0  0  0
   10.1833    0.9807   -9.4188 H   0  0  0  0  0  0  0  0  0  0  0  0
    8.6627    1.3197   -8.6827 H   0  0  0  0  0  0  0  0  0  0  0  0
   10.3148    1.1457   -7.7883 H   0  0  0  0  0  0  0  0  0  0  0  0
  1  2  2  0  0  0  0
  2  3  1  0  0  0  0
  2 27  1  0  0  0  0
  3  4  1  0  0  0  0
  3  7  2  0  0  0  0
  4  5  1  0  0  0  0
  5  6  2  0  0  0  0
  5 28  1  0  0  0  0
  6  7  1  0  0  0  0
  6  8  1  0  0  0  0
  8  9  2  0  0  0  0
  8 13  1  0  0  0  0
  9 10  1  0  0  0  0
  9 29  1  0  0  0  0
 10 11  2  0  0  0  0
 10 30  1  0  0  0  0
 11 12  1  0  0  0  0
 11 17  1  0  0  0  0
 12 13  2  0  0  0  0
 12 14  1  0  0  0  0
 13 31  1  0  0  0  0
 14 15  2  0  0  0  0
 15 16  1  0  0  0  0
 15 32  1  0  0  0  0
 16 17  2  0  0  0  0
 16 33  1  0  0  0  0
 17 18  1  0  0  0  0
 18 19  1  0  0  0  0
 18 34  1  0  0  0  0
 19 20  2  0  0  0  0
 19 25  1  0  0  0  0
 20 21  1  0  0  0  0
 20 35  1  0  0  0  0
 21 22  1  0  0  0  0
 21 23  2  0  0  0  0
 22 36  1  0  0  0  0
 23 24  1  0  0  0  0
 23 37  1  0  0  0  0
 24 25  2  0  0  0  0
 24 38  1  0  0  0  0
 25 26  1  0  0  0  0
 26 39  1  0  0  0  0
 26 40  1  0  0  0  0
 26 41  1  0  0  0  0
M  END
$$$$
