GK3
 OpenBabel04121316123D

 48 51  0  0  0  0  0  0  0  0999 V2000
    0.8632    0.0699    0.0046 N   0  0  0  0  0  0  0  0  0  0  0  0
    2.0152    0.0973    0.0231 C   0  0  0  0  0  0  0  0  0  0  0  0
    3.4516    0.1081    0.0093 C   0  0  0  0  0  0  0  0  0  0  0  0
    4.1877    1.2791   -0.0791 C   0  0  0  0  0  0  0  0  0  0  0  0
    5.5849    1.2275   -0.1434 C   0  0  0  0  0  0  0  0  0  0  0  0
    6.2381    0.0063   -0.2872 C   0  0  0  0  0  0  0  0  0  0  0  0
    5.4958   -1.1621   -0.1969 C   0  0  0  0  0  0  0  0  0  0  0  0
    4.1247   -1.0943    0.0581 C   0  0  0  0  0  0  0  0  0  0  0  0
    6.1441   -2.3817   -0.3987 N   0  0  0  0  0  0  0  0  0  0  0  0
    5.4782   -3.5771   -0.3913 C   0  0  0  0  0  0  0  0  0  0  0  0
    4.2849   -3.7637   -0.1720 O   0  0  0  0  0  0  0  0  0  0  0  0
    6.2581   -4.7640   -0.6771 C   0  0  0  0  0  0  0  0  0  0  0  0
    7.4868   -4.7980   -1.3285 C   0  0  0  0  0  0  0  0  0  0  0  0
    8.0021   -6.0224   -1.7481 C   0  0  0  0  0  0  0  0  0  0  0  0
    7.3841   -7.2248   -1.3945 C   0  0  0  0  0  0  0  0  0  0  0  0
    6.2543   -7.1039   -0.5636 C   0  0  0  0  0  0  0  0  0  0  0  0
    5.6408   -5.9211   -0.2783 C   0  0  0  0  0  0  0  0  0  0  0  0
    7.8569   -8.5368   -1.9234 C   0  0  0  0  0  0  0  0  0  0  0  0
    8.5775   -8.6079   -3.1622 C   0  0  0  0  0  0  0  0  0  0  0  0
    8.7834   -9.8155   -3.8576 C   0  0  0  0  0  0  0  0  0  0  0  0
    8.4147  -10.9884   -3.1949 C   0  0  0  0  0  0  0  0  0  0  0  0
    7.8746  -10.9612   -1.9069 C   0  0  0  0  0  0  0  0  0  0  0  0
    7.5291   -9.7589   -1.2928 C   0  0  0  0  0  0  0  0  0  0  0  0
    6.7272   -9.8639   -0.0226 C   0  0  0  0  0  0  0  0  0  0  0  0
    9.3176   -9.8424   -5.2338 C   0  0  0  0  0  0  0  0  0  0  0  0
    9.6518   -8.8651   -6.0582 N   0  0  0  0  0  0  0  0  0  0  0  0
   10.0624   -9.4580   -7.2477 N   0  0  0  0  0  0  0  0  0  0  0  0
    9.9484  -10.7575   -7.0741 C   0  0  0  0  0  0  0  0  0  0  0  0
    9.4791  -11.0800   -5.8248 O   0  0  0  0  0  0  0  0  0  0  0  0
   10.2485  -11.8770   -7.9967 C   0  0  0  0  0  0  0  0  0  0  0  0
    3.6740    2.2338   -0.0883 H   0  0  0  0  0  0  0  0  0  0  0  0
    6.1628    2.1444   -0.1010 H   0  0  0  0  0  0  0  0  0  0  0  0
    7.3112   -0.0202   -0.4593 H   0  0  0  0  0  0  0  0  0  0  0  0
    3.5243   -1.9690    0.2741 H   0  0  0  0  0  0  0  0  0  0  0  0
    7.1295   -2.3625   -0.6193 H   0  0  0  0  0  0  0  0  0  0  0  0
    8.0433   -3.9031   -1.5653 H   0  0  0  0  0  0  0  0  0  0  0  0
    8.8966   -6.0101   -2.3619 H   0  0  0  0  0  0  0  0  0  0  0  0
    5.7258   -7.8853   -0.0616 H   0  0  0  0  0  0  0  0  0  0  0  0
    4.6900   -5.9391    0.2569 H   0  0  0  0  0  0  0  0  0  0  0  0
    8.9523   -7.6998   -3.6341 H   0  0  0  0  0  0  0  0  0  0  0  0
    8.5257  -11.9563   -3.6730 H   0  0  0  0  0  0  0  0  0  0  0  0
    7.6698  -11.8915   -1.3839 H   0  0  0  0  0  0  0  0  0  0  0  0
    6.6660  -10.8622    0.4046 H   0  0  0  0  0  0  0  0  0  0  0  0
    5.6807   -9.6361   -0.2618 H   0  0  0  0  0  0  0  0  0  0  0  0
    7.1477   -9.2061    0.7497 H   0  0  0  0  0  0  0  0  0  0  0  0
   10.6205  -11.5208   -8.9637 H   0  0  0  0  0  0  0  0  0  0  0  0
    9.3524  -12.4768   -8.1865 H   0  0  0  0  0  0  0  0  0  0  0  0
   11.0118  -12.5366   -7.5708 H   0  0  0  0  0  0  0  0  0  0  0  0
  1  2  3  0  0  0  0
  2  3  1  0  0  0  0
  3  4  2  0  0  0  0
  3  8  1  0  0  0  0
  4  5  1  0  0  0  0
  4 31  1  0  0  0  0
  5  6  2  0  0  0  0
  5 32  1  0  0  0  0
  6  7  1  0  0  0  0
  6 33  1  0  0  0  0
  7  8  2  0  0  0  0
  7  9  1  0  0  0  0
  8 34  1  0  0  0  0
  9 10  1  0  0  0  0
  9 35  1  0  0  0  0
 10 11  2  0  0  0  0
 10 12  1  0  0  0  0
 12 13  2  0  0  0  0
 12 17  1  0  0  0  0
 13 14  1  0  0  0  0
 13 36  1  0  0  0  0
 14 15  2  0  0  0  0
 14 37  1  0  0  0  0
 15 16  1  0  0  0  0
 15 18  1  0  0  0  0
 16 17  2  0  0  0  0
 16 38  1  0  0  0  0
 17 39  1  0  0  0  0
 18 19  2  0  0  0  0
 18 23  1  0  0  0  0
 19 20  1  0  0  0  0
 19 40  1  0  0  0  0
 20 21  2  0  0  0  0
 20 25  1  0  0  0  0
 21 22  1  0  0  0  0
 21 41  1  0  0  0  0
 22 23  2  0  0  0  0
 22 42  1  0  0  0  0
 23 24  1  0  0  0  0
 24 43  1  0  0  0  0
 24 44  1  0  0  0  0
 24 45  1  0  0  0  0
 25 26  2  0  0  0  0
 25 29  1  0  0  0  0
 26 27  1  0  0  0  0
 27 28  2  0  0  0  0
 28 29  1  0  0  0  0
 28 30  1  0  0  0  0
 30 46  1  0  0  0  0
 30 47  1  0  0  0  0
 30 48  1  0  0  0  0
M  END
$$$$
