GKK
 OpenBabel04121316123D

 46 48  0  0  1  0  0  0  0  0999 V2000
    0.8556   -0.0664   -0.0251 N   0  0  0  0  0  0  0  0  0  0  0  0
    2.0239   -0.1419    0.0218 C   0  0  0  0  0  0  0  0  0  0  0  0
    3.4373   -0.1537    0.0348 C   0  0  0  0  0  0  0  0  0  0  0  0
    4.0705    1.0635    0.0459 C   0  0  0  0  0  0  0  0  0  0  0  0
    5.4033    1.0776   -0.2711 C   0  0  0  0  0  0  0  0  0  0  0  0
    6.2401   -0.0360   -0.3144 C   0  0  0  0  0  0  0  0  0  0  0  0
    5.6007   -1.2591   -0.1221 C   0  0  0  0  0  0  0  0  0  0  0  0
    4.2013   -1.3206   -0.0550 C   0  0  0  0  0  0  0  0  0  0  0  0
    3.4535   -2.8713   -0.1427 Cl  0  0  0  0  0  0  0  0  0  0  0  0
    7.5897    0.0990   -0.5564 N   0  0  0  0  0  0  0  0  0  0  0  0
    8.2576    1.3910   -0.6212 C   0  0  1  0  0  0  0  0  0  0  0  0
    8.4469    1.4329   -1.7036 H   0  0  0  0  0  0  0  0  0  0  0  0
    7.6742    2.7705   -0.5194 C   0  0  0  0  0  0  0  0  0  0  0  0
    8.8583    3.6660   -0.2789 C   0  0  0  0  0  0  0  0  0  0  0  0
    9.7133    2.9084    0.6378 N   0  0  0  0  0  0  0  0  0  0  0  0
    9.3391    1.4916    0.5076 C   0  0  0  0  0  0  0  0  0  0  0  0
   11.1157    3.1543    0.3105 C   0  0  0  0  0  0  0  0  0  0  0  0
    8.4341   -1.1019   -0.8036 C   0  0  0  0  0  0  0  0  0  0  0  0
    9.8891   -0.9155   -1.3131 C   0  0  0  0  0  0  0  0  0  0  0  0
   10.4851    0.3017   -1.7093 C   0  0  0  0  0  0  0  0  0  0  0  0
   11.8011    0.5554   -2.0024 C   0  0  0  0  0  0  0  0  0  0  0  0
   12.6375   -0.5001   -2.0488 C   0  0  0  0  0  0  0  0  0  0  0  0
   12.1278   -1.7646   -1.7405 C   0  0  0  0  0  0  0  0  0  0  0  0
   10.7584   -2.0009   -1.4052 C   0  0  0  0  0  0  0  0  0  0  0  0
   10.2770   -3.4298   -1.3243 C   0  0  0  0  0  0  0  0  0  0  0  0
   10.4028   -4.0419   -2.5338 F   0  0  0  0  0  0  0  0  0  0  0  0
   10.9804   -4.1761   -0.4351 F   0  0  0  0  0  0  0  0  0  0  0  0
    8.9688   -3.5911   -0.9801 F   0  0  0  0  0  0  0  0  0  0  0  0
    3.5740    2.0219    0.1703 H   0  0  0  0  0  0  0  0  0  0  0  0
    5.7035    2.0572   -0.5637 H   0  0  0  0  0  0  0  0  0  0  0  0
    6.1650   -2.1868   -0.0706 H   0  0  0  0  0  0  0  0  0  0  0  0
    7.0500    2.8684    0.3649 H   0  0  0  0  0  0  0  0  0  0  0  0
    7.1566    3.0654   -1.4464 H   0  0  0  0  0  0  0  0  0  0  0  0
    8.5113    4.5848    0.1931 H   0  0  0  0  0  0  0  0  0  0  0  0
    9.3427    3.9176   -1.2330 H   0  0  0  0  0  0  0  0  0  0  0  0
    8.8988    1.0756    1.4245 H   0  0  0  0  0  0  0  0  0  0  0  0
   10.2452    0.8830    0.4496 H   0  0  0  0  0  0  0  0  0  0  0  0
   11.3741    4.1883    0.5491 H   0  0  0  0  0  0  0  0  0  0  0  0
   11.3236    3.0184   -0.7543 H   0  0  0  0  0  0  0  0  0  0  0  0
   11.7894    2.4999    0.8737 H   0  0  0  0  0  0  0  0  0  0  0  0
    7.9264   -1.7317   -1.5455 H   0  0  0  0  0  0  0  0  0  0  0  0
    8.4693   -1.6509    0.1541 H   0  0  0  0  0  0  0  0  0  0  0  0
   10.0531    1.2736   -1.7156 H   0  0  0  0  0  0  0  0  0  0  0  0
   12.0947    1.5888   -2.1650 H   0  0  0  0  0  0  0  0  0  0  0  0
   13.6490   -0.3038   -2.3711 H   0  0  0  0  0  0  0  0  0  0  0  0
   12.8190   -2.5974   -1.7962 H   0  0  0  0  0  0  0  0  0  0  0  0
  1  2  3  0  0  0  0
  2  3  1  0  0  0  0
  3  4  2  0  0  0  0
  3  8  1  0  0  0  0
  4  5  1  0  0  0  0
  4 29  1  0  0  0  0
  5  6  2  0  0  0  0
  5 30  1  0  0  0  0
  6  7  1  0  0  0  0
  6 10  1  0  0  0  0
  7  8  2  0  0  0  0
  7 31  1  0  0  0  0
  8  9  1  0  0  0  0
 10 11  1  0  0  0  0
 10 18  1  0  0  0  0
 11 12  1  6  0  0  0
 11 13  1  0  0  0  0
 11 16  1  0  0  0  0
 13 14  1  0  0  0  0
 13 32  1  0  0  0  0
 13 33  1  0  0  0  0
 14 15  1  0  0  0  0
 14 34  1  0  0  0  0
 14 35  1  0  0  0  0
 15 16  1  0  0  0  0
 15 17  1  0  0  0  0
 16 36  1  0  0  0  0
 16 37  1  0  0  0  0
 17 38  1  0  0  0  0
 17 39  1  0  0  0  0
 17 40  1  0  0  0  0
 18 19  1  0  0  0  0
 18 41  1  0  0  0  0
 18 42  1  0  0  0  0
 19 20  2  0  0  0  0
 19 24  1  0  0  0  0
 20 21  1  0  0  0  0
 20 43  1  0  0  0  0
 21 22  2  0  0  0  0
 21 44  1  0  0  0  0
 22 23  1  0  0  0  0
 22 45  1  0  0  0  0
 23 24  2  0  0  0  0
 23 46  1  0  0  0  0
 24 25  1  0  0  0  0
 25 26  1  0  0  0  0
 25 27  1  0  0  0  0
 25 28  1  0  0  0  0
M  END
$$$$
