GKR
 OpenBabel04121316123D

 22 21  0  0  1  0  0  0  0  0999 V2000
    2.7646   -1.6317    3.3654 O   0  0  0  0  0  0  0  0  0  0  0  0
    2.3063   -1.3389    2.0329 C   0  0  2  0  0  0  0  0  0  0  0  0
    2.5488   -2.2194    1.4259 H   0  0  0  0  0  0  0  0  0  0  0  0
    3.0238   -0.1184    1.4301 C   0  0  2  0  0  0  0  0  0  0  0  0
    2.7036   -0.0469    0.3841 H   0  0  0  0  0  0  0  0  0  0  0  0
    4.5647   -0.2053    1.3942 C   0  0  0  0  0  0  0  0  0  0  0  0
    5.1715    0.8018    1.8567 O   0  0  0  0  0  0  0  0  0  0  0  0
    5.0386   -1.2034    0.7598 O   0  5  0  0  0  0  0  0  0  0  0  0
    2.5784    1.1440    2.0125 O   0  0  0  0  0  0  0  0  0  0  0  0
    0.7712   -1.0476    2.0249 C   0  0  1  0  0  0  0  0  0  0  0  0
    0.4896   -0.8075    0.9907 H   0  0  0  0  0  0  0  0  0  0  0  0
   -0.1029   -2.1977    2.5284 C   0  0  1  0  0  0  0  0  0  0  0  0
    0.0935   -2.3956    3.5879 H   0  0  0  0  0  0  0  0  0  0  0  0
   -1.6147   -1.7654    2.3910 C   0  0  0  0  0  0  0  0  0  0  0  0
   -2.3240   -2.4402    1.5851 O   0  0  0  0  0  0  0  0  0  0  0  0
   -2.0190   -0.8309    3.1496 O   0  5  0  0  0  0  0  0  0  0  0  0
    0.1721   -3.4274    1.8008 O   0  0  0  0  0  0  0  0  0  0  0  0
    0.5244    0.1024    2.8452 O   0  0  0  0  0  0  0  0  0  0  0  0
    2.2874   -2.4194    3.6709 H   0  0  0  0  0  0  0  0  0  0  0  0
    3.2640    1.7817    1.7344 H   0  0  0  0  0  0  0  0  0  0  0  0
    1.1178   -3.6149    1.8574 H   0  0  0  0  0  0  0  0  0  0  0  0
    1.1923    0.7732    2.5903 H   0  0  0  0  0  0  0  0  0  0  0  0
  1 19  1  0  0  0  0
  2 10  1  0  0  0  0
  2  3  1  6  0  0  0
  2  1  1  0  0  0  0
  4  6  1  0  0  0  0
  4  9  1  0  0  0  0
  4  5  1  6  0  0  0
  4  2  1  0  0  0  0
  6  7  2  0  0  0  0
  6  8  1  0  0  0  0
  9 20  1  0  0  0  0
 10 11  1  6  0  0  0
 10 12  1  0  0  0  0
 10 18  1  0  0  0  0
 12 13  1  1  0  0  0
 12 14  1  0  0  0  0
 12 17  1  0  0  0  0
 14 15  2  0  0  0  0
 14 16  1  0  0  0  0
 17 21  1  0  0  0  0
 18 22  1  0  0  0  0
M  CHG  2   8  -1  16  -1
M  END
$$$$
