GL1
 OpenBabel04121316123D

 29 29  0  0  1  0  0  0  0  0999 V2000
    0.8804    0.0800    0.2960 O   0  0  0  0  0  0  0  0  0  0  0  0
    2.2942    0.1843    0.2862 C   0  0  0  0  0  0  0  0  0  0  0  0
    2.9852   -0.8917    1.1688 C   0  0  1  0  0  0  0  0  0  0  0  0
    2.9056   -0.5214    2.1982 H   0  0  0  0  0  0  0  0  0  0  0  0
    2.3542   -2.1976    1.1863 O   0  0  0  0  0  0  0  0  0  0  0  0
    2.4451   -2.8775   -0.0638 C   0  0  2  0  0  0  0  0  0  0  0  0
    1.9815   -2.2060   -0.7868 H   0  0  0  0  0  0  0  0  0  0  0  0
    1.7066   -4.1082   -0.1029 O   0  0  0  0  0  0  0  0  0  0  0  0
    1.8559   -4.8966   -1.6356 P   0  0  0  0  0  0  0  0  0  0  0  0
    0.4756   -5.5300   -1.5315 O   0  0  0  0  0  0  0  0  0  0  0  0
    1.7149   -3.5141   -2.5003 O   0  0  0  0  0  0  0  0  0  0  0  0
    2.0051   -5.6849   -3.1683 O   0  0  0  0  0  0  0  0  0  0  0  0
    3.9345   -3.1578   -0.4060 C   0  0  1  0  0  0  0  0  0  0  0  0
    4.0304   -3.6511   -1.3754 H   0  0  0  0  0  0  0  0  0  0  0  0
    4.7180   -1.8481   -0.4602 C   0  0  2  0  0  0  0  0  0  0  0  0
    5.7892   -2.0582   -0.5476 H   0  0  0  0  0  0  0  0  0  0  0  0
    4.4856   -1.0299    0.8256 C   0  0  1  0  0  0  0  0  0  0  0  0
    4.9631   -1.5785    1.6466 H   0  0  0  0  0  0  0  0  0  0  0  0
    5.1231    0.2452    0.7359 O   0  0  0  0  0  0  0  0  0  0  0  0
    4.3944   -1.0902   -1.6425 O   0  0  0  0  0  0  0  0  0  0  0  0
    4.5290   -4.0620    0.5314 O   0  0  0  0  0  0  0  0  0  0  0  0
    0.5414    0.6738   -0.3980 H   0  0  0  0  0  0  0  0  0  0  0  0
    2.5762    1.1860    0.6318 H   0  0  0  0  0  0  0  0  0  0  0  0
    2.5974    0.1298   -0.7575 H   0  0  0  0  0  0  0  0  0  0  0  0
    2.5222   -3.3283   -2.9922 H   0  0  0  0  0  0  0  0  0  0  0  0
    1.2908   -6.3589   -3.1337 H   0  0  0  0  0  0  0  0  0  0  0  0
    5.0231    0.5611   -0.1823 H   0  0  0  0  0  0  0  0  0  0  0  0
    3.4630   -1.2024   -1.8928 H   0  0  0  0  0  0  0  0  0  0  0  0
    3.8300   -4.6452    0.8885 H   0  0  0  0  0  0  0  0  0  0  0  0
  1  2  1  0  0  0  0
  1 22  1  0  0  0  0
  2  3  1  0  0  0  0
  2 23  1  0  0  0  0
  2 24  1  0  0  0  0
  3  4  1  1  0  0  0
  3  5  1  0  0  0  0
  3 17  1  0  0  0  0
  5  6  1  0  0  0  0
  6  7  1  6  0  0  0
  6  8  1  0  0  0  0
  6 13  1  0  0  0  0
  8  9  1  0  0  0  0
  9 10  2  0  0  0  0
  9 11  1  0  0  0  0
  9 12  1  0  0  0  0
 11 25  1  0  0  0  0
 12 26  1  0  0  0  0
 13 14  1  6  0  0  0
 13 15  1  0  0  0  0
 13 21  1  0  0  0  0
 15 17  1  0  0  0  0
 15 20  1  0  0  0  0
 15 16  1  6  0  0  0
 17 19  1  0  0  0  0
 17 18  1  1  0  0  0
 19 27  1  0  0  0  0
 20 28  1  0  0  0  0
 21 29  1  0  0  0  0
M  END
$$$$
