GLA
 OpenBabel04121316123D

 24 24  0  0  1  0  0  0  0  0999 V2000
    0.9979    0.1107    0.0589 O   0  0  0  0  0  0  0  0  0  0  0  0
    2.4175    0.1560   -0.0253 C   0  0  0  0  0  0  0  0  0  0  0  0
    3.0292   -1.1452   -0.6000 C   0  0  1  0  0  0  0  0  0  0  0  0
    3.4243   -0.8753   -1.5891 H   0  0  0  0  0  0  0  0  0  0  0  0
    4.1655   -1.5215    0.2009 O   0  0  0  0  0  0  0  0  0  0  0  0
    3.8005   -2.0633    1.4690 C   0  0  2  0  0  0  0  0  0  0  0  0
    3.2652   -1.3207    2.0679 H   0  0  0  0  0  0  0  0  0  0  0  0
    5.0052   -2.3720    2.1574 O   0  0  0  0  0  0  0  0  0  0  0  0
    2.9464   -3.3384    1.3392 C   0  0  1  0  0  0  0  0  0  0  0  0
    2.6719   -3.6871    2.3411 H   0  0  0  0  0  0  0  0  0  0  0  0
    1.6956   -3.0361    0.5118 C   0  0  2  0  0  0  0  0  0  0  0  0
    1.1583   -3.9623    0.2826 H   0  0  0  0  0  0  0  0  0  0  0  0
    2.0965   -2.3602   -0.8170 C   0  0  1  0  0  0  0  0  0  0  0  0
    2.6634   -3.1048   -1.3932 H   0  0  0  0  0  0  0  0  0  0  0  0
    0.9552   -2.0335   -1.6098 O   0  0  0  0  0  0  0  0  0  0  0  0
    0.7939   -2.2439    1.3050 O   0  0  0  0  0  0  0  0  0  0  0  0
    3.7112   -4.3855    0.7263 O   0  0  0  0  0  0  0  0  0  0  0  0
    0.7101    0.9625    0.4455 H   0  0  0  0  0  0  0  0  0  0  0  0
    2.7847    0.3606    0.9840 H   0  0  0  0  0  0  0  0  0  0  0  0
    2.7197    1.0163   -0.6319 H   0  0  0  0  0  0  0  0  0  0  0  0
    5.4154   -1.5118    2.3260 H   0  0  0  0  0  0  0  0  0  0  0  0
    0.4254   -1.3960   -1.0928 H   0  0  0  0  0  0  0  0  0  0  0  0
    0.9151   -1.3048    1.0977 H   0  0  0  0  0  0  0  0  0  0  0  0
    4.5892   -4.3391    1.1578 H   0  0  0  0  0  0  0  0  0  0  0  0
  1  2  1  0  0  0  0
  1 18  1  0  0  0  0
  2  3  1  0  0  0  0
  2 19  1  0  0  0  0
  2 20  1  0  0  0  0
  3  4  1  6  0  0  0
  3  5  1  0  0  0  0
  3 13  1  0  0  0  0
  5  6  1  0  0  0  0
  6  7  1  1  0  0  0
  6  8  1  0  0  0  0
  6  9  1  0  0  0  0
  8 21  1  0  0  0  0
  9 10  1  1  0  0  0
  9 11  1  0  0  0  0
  9 17  1  0  0  0  0
 11 13  1  0  0  0  0
 11 16  1  0  0  0  0
 11 12  1  6  0  0  0
 13 15  1  0  0  0  0
 13 14  1  6  0  0  0
 15 22  1  0  0  0  0
 16 23  1  0  0  0  0
 17 24  1  0  0  0  0
M  END
$$$$
