GLC
 OpenBabel04121316123D

 24 24  0  0  1  0  0  0  0  0999 V2000
    0.8909    0.0278    0.0537 O   0  0  0  0  0  0  0  0  0  0  0  0
    2.2914   -0.0420   -0.1898 C   0  0  0  0  0  0  0  0  0  0  0  0
    2.8827    1.2727   -0.7561 C   0  0  1  0  0  0  0  0  0  0  0  0
    3.6202    0.9784   -1.5150 H   0  0  0  0  0  0  0  0  0  0  0  0
    1.9509    2.1152   -1.4663 O   0  0  0  0  0  0  0  0  0  0  0  0
    1.0634    2.8879   -0.6677 C   0  0  2  0  0  0  0  0  0  0  0  0
    0.2870    2.2486   -0.2412 H   0  0  0  0  0  0  0  0  0  0  0  0
    0.3962    3.8205   -1.5210 O   0  0  0  0  0  0  0  0  0  0  0  0
    1.7530    3.6894    0.4564 C   0  0  1  0  0  0  0  0  0  0  0  0
    0.9812    4.1327    1.0960 H   0  0  0  0  0  0  0  0  0  0  0  0
    2.6574    2.7670    1.2691 C   0  0  2  0  0  0  0  0  0  0  0  0
    3.2336    3.3674    1.9805 H   0  0  0  0  0  0  0  0  0  0  0  0
    3.6454    2.0216    0.3525 C   0  0  2  0  0  0  0  0  0  0  0  0
    4.2264    1.3041    0.9419 H   0  0  0  0  0  0  0  0  0  0  0  0
    4.6152    2.8835   -0.2531 O   0  0  0  0  0  0  0  0  0  0  0  0
    1.8771    1.8486    2.0514 O   0  0  0  0  0  0  0  0  0  0  0  0
    2.5141    4.7933   -0.0596 O   0  0  0  0  0  0  0  0  0  0  0  0
    0.6116   -0.8684    0.3174 H   0  0  0  0  0  0  0  0  0  0  0  0
    2.5066   -0.8804   -0.8597 H   0  0  0  0  0  0  0  0  0  0  0  0
    2.7600   -0.2933    0.7692 H   0  0  0  0  0  0  0  0  0  0  0  0
   -0.1398    3.2674   -2.1034 H   0  0  0  0  0  0  0  0  0  0  0  0
    4.8798    3.5515    0.3990 H   0  0  0  0  0  0  0  0  0  0  0  0
    1.2523    1.3673    1.4705 H   0  0  0  0  0  0  0  0  0  0  0  0
    1.9933    5.1243   -0.8209 H   0  0  0  0  0  0  0  0  0  0  0  0
  1  2  1  0  0  0  0
  1 18  1  0  0  0  0
  2  3  1  0  0  0  0
  2 19  1  0  0  0  0
  2 20  1  0  0  0  0
  3  4  1  6  0  0  0
  3  5  1  0  0  0  0
  3 13  1  0  0  0  0
  5  6  1  0  0  0  0
  6  7  1  1  0  0  0
  6  8  1  0  0  0  0
  6  9  1  0  0  0  0
  8 21  1  0  0  0  0
  9 10  1  1  0  0  0
  9 11  1  0  0  0  0
  9 17  1  0  0  0  0
 11 13  1  0  0  0  0
 11 16  1  0  0  0  0
 11 12  1  1  0  0  0
 13 14  1  1  0  0  0
 13 15  1  0  0  0  0
 15 22  1  0  0  0  0
 16 23  1  0  0  0  0
 17 24  1  0  0  0  0
M  END
$$$$
