GLE
 OpenBabel04121316123D

 58 57  0  0  1  0  0  0  0  0999 V2000
   -1.6554   -0.3410  -15.7511 C   0  0  0  0  0  0  0  0  0  0  0  0
   -0.9982   -0.5466  -14.3987 C   0  0  0  0  0  0  0  0  0  0  0  0
    0.2857    0.2671  -14.2965 C   0  0  0  0  0  0  0  0  0  0  0  0
    0.9508    0.0635  -12.9426 C   0  0  0  0  0  0  0  0  0  0  0  0
    2.2319    0.8829  -12.8582 C   0  0  0  0  0  0  0  0  0  0  0  0
    2.8976    0.6782  -11.5093 C   0  0  0  0  0  0  0  0  0  0  0  0
    4.1785    1.4984  -11.4036 C   0  0  0  0  0  0  0  0  0  0  0  0
    4.7802    1.2759  -10.0266 C   0  0  0  0  0  0  0  0  0  0  0  0
    6.0067    2.1328   -9.7625 C   0  0  0  0  0  0  0  0  0  0  0  0
    6.4550    1.8994   -8.3138 C   0  0  0  0  0  0  0  0  0  0  0  0
    7.2007    3.0197   -7.8505 O   0  0  0  0  0  0  0  0  0  0  0  0
    8.2403    2.6620   -6.9021 C   0  0  0  0  0  0  0  0  0  0  0  0
    9.4429    3.6682   -7.0781 C   0  0  2  0  0  0  0  0  0  0  0  0
    9.1640    4.4881   -7.7510 H   0  0  0  0  0  0  0  0  0  0  0  0
   10.7069    3.1312   -7.5851 O   0  0  0  0  0  0  0  0  0  0  0  0
   10.8914    2.3064   -9.0298 P   0  0  2  0  0  0  0  0  0  0  0  0
   12.4357    2.3065   -9.0298 O   0  0  0  0  0  0  0  0  0  0  0  0
   10.7683    3.5596  -10.1210 O   0  0  0  0  0  0  0  0  0  0  0  0
   11.9613    3.8888  -10.8484 C   0  0  0  0  0  0  0  0  0  0  0  0
    9.1614    2.3064   -9.0298 O   0  0  0  0  0  0  0  0  0  0  0  0
    9.6980    4.2477   -5.6889 C   0  0  0  0  0  0  0  0  0  0  0  0
    9.9530    3.1716   -4.7759 O   0  0  0  0  0  0  0  0  0  0  0  0
    9.9357    3.6177   -3.4180 C   0  0  0  0  0  0  0  0  0  0  0  0
   10.2062    2.4781   -2.4430 C   0  0  0  0  0  0  0  0  0  0  0  0
    9.2598    1.5178   -2.5199 F   0  0  0  0  0  0  0  0  0  0  0  0
   11.4087    1.9052   -2.6534 F   0  0  0  0  0  0  0  0  0  0  0  0
   10.1983    2.9491   -1.1701 F   0  0  0  0  0  0  0  0  0  0  0  0
   -2.5761   -0.9272  -15.8181 H   0  0  0  0  0  0  0  0  0  0  0  0
   -0.9873   -0.6561  -16.5592 H   0  0  0  0  0  0  0  0  0  0  0  0
   -1.9064    0.7131  -15.9050 H   0  0  0  0  0  0  0  0  0  0  0  0
   -0.7786   -1.6106  -14.2561 H   0  0  0  0  0  0  0  0  0  0  0  0
   -1.6931   -0.2479  -13.6049 H   0  0  0  0  0  0  0  0  0  0  0  0
    0.0650    1.3310  -14.4415 H   0  0  0  0  0  0  0  0  0  0  0  0
    0.9790   -0.0310  -15.0932 H   0  0  0  0  0  0  0  0  0  0  0  0
    1.1769   -0.9981  -12.7918 H   0  0  0  0  0  0  0  0  0  0  0  0
    0.2642    0.3653  -12.1406 H   0  0  0  0  0  0  0  0  0  0  0  0
    2.0064    1.9446  -13.0034 H   0  0  0  0  0  0  0  0  0  0  0  0
    2.9209    0.5819  -13.6581 H   0  0  0  0  0  0  0  0  0  0  0  0
    3.1210   -0.3834  -11.3586 H   0  0  0  0  0  0  0  0  0  0  0  0
    2.2037    0.9761  -10.7101 H   0  0  0  0  0  0  0  0  0  0  0  0
    3.9570    2.5591  -11.5556 H   0  0  0  0  0  0  0  0  0  0  0  0
    4.8880    1.1942  -12.1855 H   0  0  0  0  0  0  0  0  0  0  0  0
    5.0360    0.2187   -9.9019 H   0  0  0  0  0  0  0  0  0  0  0  0
    4.0203    1.5177   -9.2710 H   0  0  0  0  0  0  0  0  0  0  0  0
    5.8045    3.1908   -9.9540 H   0  0  0  0  0  0  0  0  0  0  0  0
    6.8052    1.8476  -10.4643 H   0  0  0  0  0  0  0  0  0  0  0  0
    7.0287    0.9666   -8.2811 H   0  0  0  0  0  0  0  0  0  0  0  0
    5.5928    1.7958   -7.6496 H   0  0  0  0  0  0  0  0  0  0  0  0
    8.5807    1.6221   -7.0114 H   0  0  0  0  0  0  0  0  0  0  0  0
    7.7589    2.7300   -5.9228 H   0  0  0  0  0  0  0  0  0  0  0  0
   11.7272    4.5429  -11.6888 H   0  0  0  0  0  0  0  0  0  0  0  0
   12.4338    2.9848  -11.2578 H   0  0  0  0  0  0  0  0  0  0  0  0
   12.6680    4.4066  -10.1888 H   0  0  0  0  0  0  0  0  0  0  0  0
    8.8636    2.1111   -9.9347 H   0  0  0  0  0  0  0  0  0  0  0  0
    8.7983    4.7885   -5.3669 H   0  0  0  0  0  0  0  0  0  0  0  0
   10.5525    4.9285   -5.6897 H   0  0  0  0  0  0  0  0  0  0  0  0
    8.9502    4.0438   -3.1988 H   0  0  0  0  0  0  0  0  0  0  0  0
   10.6937    4.3962   -3.2944 H   0  0  0  0  0  0  0  0  0  0  0  0
  1  2  1  0  0  0  0
  1 28  1  0  0  0  0
  1 29  1  0  0  0  0
  1 30  1  0  0  0  0
  2  3  1  0  0  0  0
  2 31  1  0  0  0  0
  2 32  1  0  0  0  0
  3  4  1  0  0  0  0
  3 33  1  0  0  0  0
  3 34  1  0  0  0  0
  4  5  1  0  0  0  0
  4 35  1  0  0  0  0
  4 36  1  0  0  0  0
  5  6  1  0  0  0  0
  5 37  1  0  0  0  0
  5 38  1  0  0  0  0
  6  7  1  0  0  0  0
  6 39  1  0  0  0  0
  6 40  1  0  0  0  0
  7  8  1  0  0  0  0
  7 41  1  0  0  0  0
  7 42  1  0  0  0  0
  8  9  1  0  0  0  0
  8 43  1  0  0  0  0
  8 44  1  0  0  0  0
  9 10  1  0  0  0  0
  9 45  1  0  0  0  0
  9 46  1  0  0  0  0
 10 11  1  0  0  0  0
 10 47  1  0  0  0  0
 10 48  1  0  0  0  0
 11 12  1  0  0  0  0
 12 49  1  0  0  0  0
 12 50  1  0  0  0  0
 13 15  1  0  0  0  0
 13 21  1  0  0  0  0
 13 14  1  6  0  0  0
 13 12  1  0  0  0  0
 16 18  1  6  0  0  0
 16 20  1  0  0  0  0
 16 17  2  0  0  0  0
 16 15  1  0  0  0  0
 18 19  1  0  0  0  0
 19 51  1  0  0  0  0
 19 52  1  0  0  0  0
 19 53  1  0  0  0  0
 20 54  1  0  0  0  0
 21 22  1  0  0  0  0
 21 55  1  0  0  0  0
 21 56  1  0  0  0  0
 22 23  1  0  0  0  0
 23 24  1  0  0  0  0
 23 57  1  0  0  0  0
 23 58  1  0  0  0  0
 24 25  1  0  0  0  0
 24 26  1  0  0  0  0
 24 27  1  0  0  0  0
M  END
$$$$
