GM1
 OpenBabel04121316123D

 11 10  0  0  0  0  0  0  0  0999 V2000
    0.9782    0.0744   -0.0558 N   0  0  0  0  0  0  0  0  0  0  0  0
    2.4418    0.0295   -0.1024 C   0  0  0  0  0  0  0  0  0  0  0  0
    2.9285   -0.5876   -1.4221 C   0  0  0  0  0  0  0  0  0  0  0  0
    2.2018   -1.0408   -2.2984 O   0  0  0  0  0  0  0  0  0  0  0  0
    4.2864   -0.6480   -1.5675 N   0  0  0  0  0  0  0  0  0  0  0  0
    0.6554    0.3746    0.8590 H   0  0  0  0  0  0  0  0  0  0  0  0
    0.6195   -0.8680   -0.2184 H   0  0  0  0  0  0  0  0  0  0  0  0
    2.8213   -0.5752    0.7278 H   0  0  0  0  0  0  0  0  0  0  0  0
    2.8380    1.0458   -0.0159 H   0  0  0  0  0  0  0  0  0  0  0  0
    4.9447   -0.3135   -0.8799 H   0  0  0  0  0  0  0  0  0  0  0  0
    4.6347   -1.0468   -2.4299 H   0  0  0  0  0  0  0  0  0  0  0  0
  1  2  1  0  0  0  0
  1  6  1  0  0  0  0
  1  7  1  0  0  0  0
  2  3  1  0  0  0  0
  2  8  1  0  0  0  0
  2  9  1  0  0  0  0
  3  4  2  0  0  0  0
  3  5  1  0  0  0  0
  5 10  1  0  0  0  0
  5 11  1  0  0  0  0
M  END
$$$$
