GMH
 OpenBabel04121316123D

 28 28  0  0  1  0  0  0  0  0999 V2000
    0.9045    0.1119   -0.0169 O   0  0  0  0  0  0  0  0  0  0  0  0
    2.3254    0.1003   -0.0947 C   0  0  0  0  0  0  0  0  0  0  0  0
    2.8405   -1.2057    0.5091 C   0  0  1  0  0  0  0  0  0  0  0  0
    2.4214   -1.2206    1.5216 H   0  0  0  0  0  0  0  0  0  0  0  0
    2.3245   -2.4627   -0.2591 C   0  0  1  0  0  0  0  0  0  0  0  0
    1.5773   -2.1467   -0.9986 H   0  0  0  0  0  0  0  0  0  0  0  0
    3.3302   -3.1365   -1.0454 O   0  0  0  0  0  0  0  0  0  0  0  0
    4.2600   -3.9430   -0.3352 C   0  0  2  0  0  0  0  0  0  0  0  0
    4.9919   -3.3235    0.1876 H   0  0  0  0  0  0  0  0  0  0  0  0
    5.0127   -4.6812   -1.2943 O   0  0  0  0  0  0  0  0  0  0  0  0
    3.6063   -4.9243    0.6589 C   0  0  2  0  0  0  0  0  0  0  0  0
    3.0686   -5.7034    0.1056 H   0  0  0  0  0  0  0  0  0  0  0  0
    2.6336   -4.1750    1.5733 C   0  0  2  0  0  0  0  0  0  0  0  0
    2.1141   -4.8983    2.2108 H   0  0  0  0  0  0  0  0  0  0  0  0
    1.6087   -3.4164    0.7211 C   0  0  2  0  0  0  0  0  0  0  0  0
    0.9243   -2.8375    1.3525 H   0  0  0  0  0  0  0  0  0  0  0  0
    0.8024   -4.3428   -0.0179 O   0  0  0  0  0  0  0  0  0  0  0  0
    3.3480   -3.3141    2.4797 O   0  0  0  0  0  0  0  0  0  0  0  0
    4.5895   -5.5925    1.4689 O   0  0  0  0  0  0  0  0  0  0  0  0
    4.2600   -1.2127    0.6749 O   0  0  0  0  0  0  0  0  0  0  0  0
    0.5906    0.9300   -0.4384 H   0  0  0  0  0  0  0  0  0  0  0  0
    2.7057    0.9481    0.4853 H   0  0  0  0  0  0  0  0  0  0  0  0
    2.6477    0.2224   -1.1322 H   0  0  0  0  0  0  0  0  0  0  0  0
    5.5320   -4.0167   -1.7628 H   0  0  0  0  0  0  0  0  0  0  0  0
    0.3242   -4.9003    0.6202 H   0  0  0  0  0  0  0  0  0  0  0  0
    3.9396   -2.7236    1.9728 H   0  0  0  0  0  0  0  0  0  0  0  0
    5.0355   -4.9073    1.9965 H   0  0  0  0  0  0  0  0  0  0  0  0
    4.5174   -0.3805    1.1114 H   0  0  0  0  0  0  0  0  0  0  0  0
  1  2  1  0  0  0  0
  1 21  1  0  0  0  0
  2  3  1  0  0  0  0
  2 22  1  0  0  0  0
  2 23  1  0  0  0  0
  3  4  1  1  0  0  0
  3  5  1  0  0  0  0
  3 20  1  0  0  0  0
  5  6  1  6  0  0  0
  5  7  1  0  0  0  0
  5 15  1  0  0  0  0
  7  8  1  0  0  0  0
  8  9  1  1  0  0  0
  8 10  1  0  0  0  0
  8 11  1  0  0  0  0
 10 24  1  0  0  0  0
 11 13  1  0  0  0  0
 11 19  1  0  0  0  0
 11 12  1  6  0  0  0
 13 15  1  0  0  0  0
 13 18  1  0  0  0  0
 13 14  1  1  0  0  0
 15 16  1  1  0  0  0
 15 17  1  0  0  0  0
 17 25  1  0  0  0  0
 18 26  1  0  0  0  0
 19 27  1  0  0  0  0
 20 28  1  0  0  0  0
M  END
$$$$
