GNP
 OpenBabel04121316123D

 49 51  0  0  1  0  0  0  0  0999 V2000
    3.1949    0.4321   -1.4525 O   0  0  0  0  0  0  0  0  0  0  0  0
    2.8559    0.1775   -0.0828 C   0  0  2  0  0  0  0  0  0  0  0  0
    1.7715    0.3319   -0.1749 H   0  0  0  0  0  0  0  0  0  0  0  0
    3.2944    1.2538    0.9193 C   0  0  1  0  0  0  0  0  0  0  0  0
    3.5326    2.1450    0.3245 H   0  0  0  0  0  0  0  0  0  0  0  0
    2.2635    1.8656    2.0536 C   0  0  0  0  0  0  0  0  0  0  0  0
    0.7549    1.7305    1.7451 O   0  0  0  0  0  0  0  0  0  0  0  0
   -0.2096    1.9483    3.1646 P   0  0  1  0  0  0  0  0  0  0  0  0
   -1.3806    2.4215    2.3058 O   0  0  0  0  0  0  0  0  0  0  0  0
   -0.3140    0.2322    3.3570 O   0  0  0  0  0  0  0  0  0  0  0  0
    0.5605   -0.5451    2.0827 P   0  0  1  0  0  0  0  0  0  0  0  0
    1.9283   -0.2614    2.6723 O   0  0  0  0  0  0  0  0  0  0  0  0
    0.7311   -2.0033    3.0893 N   0  0  0  0  0  0  0  0  0  0  0  0
   -0.0604   -1.7352    4.6609 P   0  0  0  0  0  0  0  0  0  0  0  0
    0.5412   -0.4143    5.0960 O   0  0  0  0  0  0  0  0  0  0  0  0
   -1.4336   -2.2954    4.0589 O   0  0  0  0  0  0  0  0  0  0  0  0
   -0.8297   -1.4747    6.1884 O   0  0  0  0  0  0  0  0  0  0  0  0
    1.4351   -1.3225    0.8084 O   0  0  0  0  0  0  0  0  0  0  0  0
   -1.1742    2.1661    4.5842 O   0  0  0  0  0  0  0  0  0  0  0  0
    4.5242    0.6798    1.4979 O   0  0  0  0  0  0  0  0  0  0  0  0
    4.5332   -0.8190    1.4745 C   0  0  2  0  0  0  0  0  0  0  0  0
    5.5157   -1.1940    1.1807 H   0  0  0  0  0  0  0  0  0  0  0  0
    3.5433   -1.2206    0.4217 C   0  0  2  0  0  0  0  0  0  0  0  0
    3.0412   -1.9125    1.0822 H   0  0  0  0  0  0  0  0  0  0  0  0
    3.8468   -2.1824   -0.5979 O   0  0  0  0  0  0  0  0  0  0  0  0
    4.3363   -1.3879    2.8616 N   0  0  0  0  0  0  0  0  0  0  0  0
    4.8590   -0.6826    3.9311 C   0  0  0  0  0  0  0  0  0  0  0  0
    4.4833   -1.1445    5.1001 N   0  0  0  0  0  0  0  0  0  0  0  0
    3.7355   -2.2512    4.8095 C   0  0  0  0  0  0  0  0  0  0  0  0
    3.6817   -2.5145    3.4468 C   0  0  0  0  0  0  0  0  0  0  0  0
    2.8646   -3.4960    2.8870 N   0  0  0  0  0  0  0  0  0  0  0  0
    2.0476   -4.1286    3.7226 C   0  0  0  0  0  0  0  0  0  0  0  0
    1.0061   -4.9269    3.2996 N   0  0  0  0  0  0  0  0  0  0  0  0
    2.0718   -3.9279    5.0875 N   0  0  0  0  0  0  0  0  0  0  0  0
    1.4403   -4.4184    5.7055 H   0  0  0  0  0  0  0  0  0  0  0  0
    2.9344   -3.0458    5.7466 C   0  0  0  0  0  0  0  0  0  0  0  0
    2.9299   -2.9584    6.9452 O   0  0  0  0  0  0  0  0  0  0  0  0
    4.0073   -0.0641   -1.6391 H   0  0  0  0  0  0  0  0  0  0  0  0
    2.5016    2.8895    2.3630 H   0  0  0  0  0  0  0  0  0  0  0  0
    2.5018    1.4552    3.0550 H   0  0  0  0  0  0  0  0  0  0  0  0
    1.7161   -1.8747    3.2304 H   0  0  0  0  0  0  0  0  0  0  0  0
   -1.1755   -3.1243    3.5913 H   0  0  0  0  0  0  0  0  0  0  0  0
   -0.4783   -0.5934    6.4424 H   0  0  0  0  0  0  0  0  0  0  0  0
    0.9808   -1.2498   -0.0598 H   0  0  0  0  0  0  0  0  0  0  0  0
   -1.2519    3.1158    4.7780 H   0  0  0  0  0  0  0  0  0  0  0  0
    3.6456   -3.0568   -0.1785 H   0  0  0  0  0  0  0  0  0  0  0  0
    5.4822    0.1845    3.7617 H   0  0  0  0  0  0  0  0  0  0  0  0
    0.6860   -4.7860    2.3439 H   0  0  0  0  0  0  0  0  0  0  0  0
    0.2859   -5.2721    3.9283 H   0  0  0  0  0  0  0  0  0  0  0  0
  1 38  1  0  0  0  0
  2  4  1  0  0  0  0
  2 23  1  0  0  0  0
  2  3  1  1  0  0  0
  2  1  1  0  0  0  0
  4  5  1  6  0  0  0
  4  6  1  0  0  0  0
  4 20  1  0  0  0  0
  6  7  1  0  0  0  0
  6 39  1  0  0  0  0
  6 40  1  0  0  0  0
  8  7  1  6  0  0  0
  8  9  2  0  0  0  0
  8 10  1  0  0  0  0
  8 19  1  0  0  0  0
 11 10  1  6  0  0  0
 11 12  2  0  0  0  0
 11 13  1  0  0  0  0
 11 18  1  0  0  0  0
 13 14  1  0  0  0  0
 13 41  1  0  0  0  0
 14 15  2  0  0  0  0
 14 16  1  0  0  0  0
 14 17  1  0  0  0  0
 16 42  1  0  0  0  0
 17 43  1  0  0  0  0
 18 44  1  0  0  0  0
 19 45  1  0  0  0  0
 20 21  1  0  0  0  0
 21 23  1  0  0  0  0
 21 26  1  0  0  0  0
 21 22  1  6  0  0  0
 23 24  1  1  0  0  0
 23 25  1  0  0  0  0
 25 46  1  0  0  0  0
 26 27  1  0  0  0  0
 26 30  1  0  0  0  0
 27 28  2  0  0  0  0
 27 47  1  0  0  0  0
 28 29  1  0  0  0  0
 29 30  2  0  0  0  0
 29 36  1  0  0  0  0
 30 31  1  0  0  0  0
 31 32  2  0  0  0  0
 32 33  1  0  0  0  0
 32 34  1  0  0  0  0
 33 48  1  0  0  0  0
 33 49  1  0  0  0  0
 34 35  1  0  0  0  0
 34 36  1  0  0  0  0
 36 37  2  0  0  0  0
M  END
$$$$
