GO0
 OpenBabel04121316123D

 25 26  0  0  0  0  0  0  0  0999 V2000
    0.9899   -0.0504    0.0124 O   0  0  0  0  0  0  0  0  0  0  0  0
    2.3030   -0.2178    0.2763 C   0  0  0  0  0  0  0  0  0  0  0  0
    2.8309    0.3610    1.2135 O   0  0  0  0  0  0  0  0  0  0  0  0
    3.0506   -1.0090   -0.7879 C   0  0  0  0  0  0  0  0  0  0  0  0
    4.5378   -0.7989   -0.6899 C   0  0  0  0  0  0  0  0  0  0  0  0
    5.1987    0.4387   -0.6584 C   0  0  0  0  0  0  0  0  0  0  0  0
    6.5359    0.1497   -0.4416 N   0  0  0  0  0  0  0  0  0  0  0  0
    7.2476    0.8638   -0.3242 H   0  0  0  0  0  0  0  0  0  0  0  0
    6.7746   -1.2048   -0.4113 C   0  0  0  0  0  0  0  0  0  0  0  0
    5.5388   -1.8449   -0.5749 C   0  0  0  0  0  0  0  0  0  0  0  0
    5.5628   -3.2658   -0.5713 C   0  0  0  0  0  0  0  0  0  0  0  0
    4.1044   -4.1288   -0.7962 Cl  0  0  0  0  0  0  0  0  0  0  0  0
    6.7444   -3.9901   -0.4128 C   0  0  0  0  0  0  0  0  0  0  0  0
    7.9456   -3.3179   -0.2477 C   0  0  0  0  0  0  0  0  0  0  0  0
    7.9782   -1.9196   -0.2439 C   0  0  0  0  0  0  0  0  0  0  0  0
    9.4835   -1.1126   -0.0424 Cl  0  0  0  0  0  0  0  0  0  0  0  0
    4.7817    1.8372   -0.7444 C   0  0  0  0  0  0  0  0  0  0  0  0
    5.5418    2.7821   -0.5539 O   0  0  0  0  0  0  0  0  0  0  0  0
    3.5145    2.0649   -1.1521 O   0  0  0  0  0  0  0  0  0  0  0  0
    0.6434   -0.4185   -0.8214 H   0  0  0  0  0  0  0  0  0  0  0  0
    2.7459   -0.7033   -1.7964 H   0  0  0  0  0  0  0  0  0  0  0  0
    2.7509   -2.0424   -0.6523 H   0  0  0  0  0  0  0  0  0  0  0  0
    6.7211   -5.0771   -0.4207 H   0  0  0  0  0  0  0  0  0  0  0  0
    8.8604   -3.8934   -0.1234 H   0  0  0  0  0  0  0  0  0  0  0  0
    2.9135    1.3157   -1.1744 H   0  0  0  0  0  0  0  0  0  0  0  0
  1  2  1  0  0  0  0
  1 20  1  0  0  0  0
  2  3  2  0  0  0  0
  2  4  1  0  0  0  0
  4  5  1  0  0  0  0
  4 21  1  0  0  0  0
  4 22  1  0  0  0  0
  5  6  2  0  0  0  0
  5 10  1  0  0  0  0
  6  7  1  0  0  0  0
  6 17  1  0  0  0  0
  7  8  1  0  0  0  0
  7  9  1  0  0  0  0
  9 10  2  0  0  0  0
  9 15  1  0  0  0  0
 10 11  1  0  0  0  0
 11 12  1  0  0  0  0
 11 13  2  0  0  0  0
 13 14  1  0  0  0  0
 13 23  1  0  0  0  0
 14 15  2  0  0  0  0
 14 24  1  0  0  0  0
 15 16  1  0  0  0  0
 17 18  2  0  0  0  0
 17 19  1  0  0  0  0
 19 25  1  0  0  0  0
M  END
$$$$
