GOO
 OpenBabel04121316123D

 24 24  0  0  1  0  0  0  0  0999 V2000
    0.9461   -0.0353   -0.1518 C   0  0  0  0  0  0  0  0  0  0  0  0
    2.3569    0.1005   -0.0590 O   0  0  0  0  0  0  0  0  0  0  0  0
    2.8497    1.3246    0.5010 C   0  0  1  0  0  0  0  0  0  0  0  0
    3.9229    1.1498    0.6590 H   0  0  0  0  0  0  0  0  0  0  0  0
    2.6954    2.5378   -0.4391 C   0  0  2  0  0  0  0  0  0  0  0  0
    1.7123    2.5478   -0.9165 H   0  0  0  0  0  0  0  0  0  0  0  0
    3.6719    2.5905   -1.4820 O   0  0  0  0  0  0  0  0  0  0  0  0
    2.8530    3.7395    0.4946 C   0  0  1  0  0  0  0  0  0  0  0  0
    2.4118    4.6447    0.0651 H   0  0  0  0  0  0  0  0  0  0  0  0
    2.1250    3.3130    1.7778 C   0  0  1  0  0  0  0  0  0  0  0  0
    1.0694    3.5998    1.6966 H   0  0  0  0  0  0  0  0  0  0  0  0
    2.1907    1.7665    1.8345 C   0  0  2  0  0  0  0  0  0  0  0  0
    1.1584    1.4201    1.9026 H   0  0  0  0  0  0  0  0  0  0  0  0
    2.8679    1.2196    3.0230 N   0  0  0  0  0  0  0  0  0  0  0  0
    2.6220    3.9096    2.9721 O   0  0  0  0  0  0  0  0  0  0  0  0
    4.2337    4.0161    0.7390 O   0  0  0  0  0  0  0  0  0  0  0  0
    0.7206   -0.9629   -0.6833 H   0  0  0  0  0  0  0  0  0  0  0  0
    0.4977    0.7943   -0.7028 H   0  0  0  0  0  0  0  0  0  0  0  0
    0.4889   -0.1224    0.8370 H   0  0  0  0  0  0  0  0  0  0  0  0
    4.5327    2.3570   -1.0875 H   0  0  0  0  0  0  0  0  0  0  0  0
    2.3945    1.6089    3.8421 H   0  0  0  0  0  0  0  0  0  0  0  0
    3.7923    1.6553    3.0776 H   0  0  0  0  0  0  0  0  0  0  0  0
    2.8497    4.8348    2.7624 H   0  0  0  0  0  0  0  0  0  0  0  0
    4.5940    4.3453   -0.1073 H   0  0  0  0  0  0  0  0  0  0  0  0
  1  2  1  0  0  0  0
  1 17  1  0  0  0  0
  1 18  1  0  0  0  0
  1 19  1  0  0  0  0
  2  3  1  0  0  0  0
  3  4  1  1  0  0  0
  3  5  1  0  0  0  0
  3 12  1  0  0  0  0
  5  8  1  0  0  0  0
  5  7  1  0  0  0  0
  5  6  1  6  0  0  0
  7 20  1  0  0  0  0
  8  9  1  6  0  0  0
  8 10  1  0  0  0  0
  8 16  1  0  0  0  0
 10 11  1  6  0  0  0
 10 12  1  0  0  0  0
 10 15  1  0  0  0  0
 12 13  1  1  0  0  0
 12 14  1  0  0  0  0
 14 21  1  0  0  0  0
 14 22  1  0  0  0  0
 15 23  1  0  0  0  0
 16 24  1  0  0  0  0
M  END
$$$$
