GP8
 OpenBabel04121316123D

 44 46  0  0  0  0  0  0  0  0999 V2000
    0.9616    0.1214    0.1524 O   0  0  0  0  0  0  0  0  0  0  0  0
    2.1765    0.0830    0.0713 C   0  0  0  0  0  0  0  0  0  0  0  0
    2.8697   -0.6862   -0.8376 N   0  0  0  0  0  0  0  0  0  0  0  0
    2.2564   -1.5191   -1.7651 C   0  0  0  0  0  0  0  0  0  0  0  0
    2.4587   -2.8930   -1.6763 C   0  0  0  0  0  0  0  0  0  0  0  0
    2.0686   -3.7149   -2.7312 C   0  0  0  0  0  0  0  0  0  0  0  0
    1.4288   -3.1664   -3.8507 C   0  0  0  0  0  0  0  0  0  0  0  0
    1.1357   -1.7921   -3.8642 C   0  0  0  0  0  0  0  0  0  0  0  0
    1.5951   -0.9604   -2.8483 C   0  0  0  0  0  0  0  0  0  0  0  0
    1.1036   -4.0077   -5.0454 C   0  0  0  0  0  0  0  0  0  0  0  0
    1.4038   -5.2653   -5.1491 N   0  0  0  0  0  0  0  0  0  0  0  0
    0.4820   -3.4733   -6.1257 N   0  0  0  0  0  0  0  0  0  0  0  0
    2.9419    0.8822    0.8967 N   0  0  0  0  0  0  0  0  0  0  0  0
    4.3324    0.9248    0.9681 C   0  0  0  0  0  0  0  0  0  0  0  0
    5.0430    2.1239    1.0057 C   0  0  0  0  0  0  0  0  0  0  0  0
    6.4397    2.1031    0.7985 C   0  0  0  0  0  0  0  0  0  0  0  0
    7.1306    0.8911    0.8203 C   0  0  0  0  0  0  0  0  0  0  0  0
    6.3856   -0.2106    1.2065 C   0  0  0  0  0  0  0  0  0  0  0  0
    5.0194   -0.2604    1.0796 C   0  0  0  0  0  0  0  0  0  0  0  0
    8.4847    0.8758    0.5403 O   0  0  0  0  0  0  0  0  0  0  0  0
    9.1912   -0.2996    0.3098 C   0  0  0  0  0  0  0  0  0  0  0  0
   10.5420   -0.1912   -0.0228 C   0  0  0  0  0  0  0  0  0  0  0  0
   11.2815   -1.3501   -0.3359 C   0  0  0  0  0  0  0  0  0  0  0  0
   10.7434   -2.6238   -0.1402 C   0  0  0  0  0  0  0  0  0  0  0  0
    9.4541   -2.7426    0.3090 C   0  0  0  0  0  0  0  0  0  0  0  0
    8.6791   -1.5990    0.3497 C   0  0  0  0  0  0  0  0  0  0  0  0
    3.8762   -0.7099   -0.8406 H   0  0  0  0  0  0  0  0  0  0  0  0
    2.8953   -3.3333   -0.7840 H   0  0  0  0  0  0  0  0  0  0  0  0
    2.2855   -4.7734   -2.6486 H   0  0  0  0  0  0  0  0  0  0  0  0
    0.5725   -1.3292   -4.6649 H   0  0  0  0  0  0  0  0  0  0  0  0
    1.4796    0.1171   -2.9301 H   0  0  0  0  0  0  0  0  0  0  0  0
    1.8795   -5.6298   -4.3258 H   0  0  0  0  0  0  0  0  0  0  0  0
    0.2664   -2.4971   -6.2375 H   0  0  0  0  0  0  0  0  0  0  0  0
    0.3549   -4.0818   -6.9230 H   0  0  0  0  0  0  0  0  0  0  0  0
    2.4035    1.5493    1.4328 H   0  0  0  0  0  0  0  0  0  0  0  0
    4.5256    3.0715    1.1153 H   0  0  0  0  0  0  0  0  0  0  0  0
    6.9759    3.0391    0.6585 H   0  0  0  0  0  0  0  0  0  0  0  0
    6.8188   -1.0800    1.6701 H   0  0  0  0  0  0  0  0  0  0  0  0
    4.5197   -1.2214    1.1673 H   0  0  0  0  0  0  0  0  0  0  0  0
   11.0241    0.7807   -0.0987 H   0  0  0  0  0  0  0  0  0  0  0  0
   12.2861   -1.2687   -0.7394 H   0  0  0  0  0  0  0  0  0  0  0  0
   11.2914   -3.5269   -0.3831 H   0  0  0  0  0  0  0  0  0  0  0  0
    8.9871   -3.6977    0.5298 H   0  0  0  0  0  0  0  0  0  0  0  0
    7.6349   -1.8431    0.3284 H   0  0  0  0  0  0  0  0  0  0  0  0
  1  2  2  0  0  0  0
  2  3  1  0  0  0  0
  2 13  1  0  0  0  0
  3  4  1  0  0  0  0
  3 27  1  0  0  0  0
  4  5  2  0  0  0  0
  4  9  1  0  0  0  0
  5  6  1  0  0  0  0
  5 28  1  0  0  0  0
  6  7  2  0  0  0  0
  6 29  1  0  0  0  0
  7  8  1  0  0  0  0
  7 10  1  0  0  0  0
  8  9  2  0  0  0  0
  8 30  1  0  0  0  0
  9 31  1  0  0  0  0
 10 11  2  0  0  0  0
 10 12  1  0  0  0  0
 11 32  1  0  0  0  0
 12 33  1  0  0  0  0
 12 34  1  0  0  0  0
 13 14  1  0  0  0  0
 13 35  1  0  0  0  0
 14 15  2  0  0  0  0
 14 19  1  0  0  0  0
 15 16  1  0  0  0  0
 15 36  1  0  0  0  0
 16 17  2  0  0  0  0
 16 37  1  0  0  0  0
 17 18  1  0  0  0  0
 17 20  1  0  0  0  0
 18 19  2  0  0  0  0
 18 38  1  0  0  0  0
 19 39  1  0  0  0  0
 20 21  1  0  0  0  0
 21 22  2  0  0  0  0
 21 26  1  0  0  0  0
 22 23  1  0  0  0  0
 22 40  1  0  0  0  0
 23 24  2  0  0  0  0
 23 41  1  0  0  0  0
 24 25  1  0  0  0  0
 24 42  1  0  0  0  0
 25 26  2  0  0  0  0
 25 43  1  0  0  0  0
 26 44  1  0  0  0  0
M  END
$$$$
