GP9
 OpenBabel04121316123D

 17 16  0  0  1  0  0  0  0  0999 V2000
    2.3639   -0.9839   -2.6076 O   0  0  0  0  0  0  0  0  0  0  0  0
    2.3356    0.4463   -2.4744 C   0  0  0  0  0  0  0  0  0  0  0  0
    2.8098    0.8718   -1.0923 C   0  0  2  0  0  0  0  0  0  0  0  0
    2.4156    0.1908   -0.3298 H   0  0  0  0  0  0  0  0  0  0  0  0
    2.3459    2.2896   -0.8098 C   0  0  0  0  0  0  0  0  0  0  0  0
    0.9134    2.3675   -0.7594 O   0  0  0  0  0  0  0  0  0  0  0  0
    0.3367    3.9682   -0.4464 P   0  0  0  0  0  0  0  0  0  0  0  0
    1.4623    4.1245    0.5992 O   0  0  0  0  0  0  0  0  0  0  0  0
    0.5467    4.1990   -1.9592 O   0  5  0  0  0  0  0  0  0  0  0  0
   -0.2399    5.5689   -0.1333 O   0  5  0  0  0  0  0  0  0  0  0  0
    4.2524    0.7844   -1.0121 O   0  0  0  0  0  0  0  0  0  0  0  0
    1.9045   -1.1536   -3.4405 H   0  0  0  0  0  0  0  0  0  0  0  0
    1.3075    0.7709   -2.6614 H   0  0  0  0  0  0  0  0  0  0  0  0
    2.9910    0.8573   -3.2489 H   0  0  0  0  0  0  0  0  0  0  0  0
    2.7455    2.9906   -1.5523 H   0  0  0  0  0  0  0  0  0  0  0  0
    2.7898    2.5463    0.1583 H   0  0  0  0  0  0  0  0  0  0  0  0
    4.4942    1.3159   -0.2325 H   0  0  0  0  0  0  0  0  0  0  0  0
  1  2  1  0  0  0  0
  1 12  1  0  0  0  0
  2 13  1  0  0  0  0
  2 14  1  0  0  0  0
  3  5  1  0  0  0  0
  3 11  1  0  0  0  0
  3  4  1  1  0  0  0
  3  2  1  0  0  0  0
  5  6  1  0  0  0  0
  5 15  1  0  0  0  0
  5 16  1  0  0  0  0
  6  7  1  0  0  0  0
  7  8  2  0  0  0  0
  7  9  1  0  0  0  0
  7 10  1  0  0  0  0
 11 17  1  0  0  0  0
M  CHG  2   9  -1  10  -1
M  END
$$$$
