GPD
 OpenBabel04121316123D

 63 66  0  0  1  0  0  0  0  0999 V2000
    0.8648    6.7030   -2.1823 O   0  0  0  0  0  0  0  0  0  0  0  0
    2.0687    6.2658   -1.6185 C   0  0  2  0  0  0  0  0  0  0  0  0
    2.1986    5.1938   -1.8680 H   0  0  0  0  0  0  0  0  0  0  0  0
    2.0079    6.4665   -0.1617 C   0  0  1  0  0  0  0  0  0  0  0  0
    1.0634    6.1974    0.3375 H   0  0  0  0  0  0  0  0  0  0  0  0
    3.1748    5.5840    0.1229 C   0  0  0  0  0  0  0  0  0  0  0  0
    2.4121    3.6780    0.2863 O   0  0  0  0  0  0  0  0  0  0  0  0
    3.4378    2.4818    1.0004 P   0  0  1  0  0  0  0  0  0  0  0  0
    4.7364    3.3129    1.0528 O   0  0  0  0  0  0  0  0  0  0  0  0
    2.4183    2.5334    2.2403 O   0  0  0  0  0  0  0  0  0  0  0  0
    1.6639    3.9860    2.1317 P   0  0  2  0  0  0  0  0  0  0  0  0
    0.6682    3.6912    3.2747 O   0  0  0  0  0  0  0  0  0  0  0  0
    0.3788    3.8605    1.0601 O   0  0  0  0  0  0  0  0  0  0  0  0
   -0.9623    3.8613    1.6182 C   0  0  1  0  0  0  0  0  0  0  0  0
   -1.0755    3.4681    2.6289 H   0  0  0  0  0  0  0  0  0  0  0  0
   -1.5475    5.1693    1.6977 O   0  0  0  0  0  0  0  0  0  0  0  0
   -1.9075    5.7068    0.4393 C   0  0  2  0  0  0  0  0  0  0  0  0
   -0.9761    5.8909   -0.0973 H   0  0  0  0  0  0  0  0  0  0  0  0
   -2.6228    7.0388    0.6369 C   0  0  0  0  0  0  0  0  0  0  0  0
   -2.7879    4.7442   -0.3768 C   0  0  2  0  0  0  0  0  0  0  0  0
   -3.7384    4.5876    0.1518 H   0  0  0  0  0  0  0  0  0  0  0  0
   -2.0776    3.4014   -0.5243 C   0  0  0  0  0  0  0  0  0  0  0  0
   -1.7724    2.8377    0.8437 C   0  0  2  0  0  0  0  0  0  0  0  0
   -1.1884    1.9129    0.7668 H   0  0  0  0  0  0  0  0  0  0  0  0
   -2.9735    2.5506    1.5620 O   0  0  0  0  0  0  0  0  0  0  0  0
   -3.0490    5.2816   -1.7145 N   0  0  0  0  0  0  0  0  0  0  0  0
    2.7793    4.3161    0.8511 O   0  0  0  0  0  0  0  0  0  0  0  0
    4.4635    1.2856    1.7146 O   0  0  0  0  0  0  0  0  0  0  0  0
    2.4131    7.7662    0.2273 O   0  0  0  0  0  0  0  0  0  0  0  0
    3.5978    7.9989   -0.5760 C   0  0  2  0  0  0  0  0  0  0  0  0
    3.5921    9.0584   -0.7950 H   0  0  0  0  0  0  0  0  0  0  0  0
    3.3469    7.0891   -1.8607 C   0  0  2  0  0  0  0  0  0  0  0  0
    4.1475    6.3571   -2.0127 H   0  0  0  0  0  0  0  0  0  0  0  0
    3.2382    7.8490   -3.0258 O   0  0  0  0  0  0  0  0  0  0  0  0
    4.8519    7.7167    0.1754 N   0  0  0  0  0  0  0  0  0  0  0  0
    5.8335    6.7918   -0.1703 C   0  0  0  0  0  0  0  0  0  0  0  0
    6.8338    6.7379    0.6693 N   0  0  0  0  0  0  0  0  0  0  0  0
    6.5168    7.6682    1.5987 C   0  0  0  0  0  0  0  0  0  0  0  0
    5.3016    8.2797    1.3504 C   0  0  0  0  0  0  0  0  0  0  0  0
    4.7241    9.2625    2.0859 N   0  0  0  0  0  0  0  0  0  0  0  0
    5.4553    9.6515    3.1025 C   0  0  0  0  0  0  0  0  0  0  0  0
    5.0304   10.6393    3.9212 N   0  0  0  0  0  0  0  0  0  0  0  0
    6.6903    9.1160    3.4185 N   0  0  0  0  0  0  0  0  0  0  0  0
    7.2219    9.4608    4.1977 H   0  0  0  0  0  0  0  0  0  0  0  0
    7.3064    8.0987    2.7194 C   0  0  0  0  0  0  0  0  0  0  0  0
    8.4096    7.6593    3.0262 O   0  0  0  0  0  0  0  0  0  0  0  0
    0.7698    7.6272   -1.9022 H   0  0  0  0  0  0  0  0  0  0  0  0
    3.3135    5.9089    1.3241 H   0  0  0  0  0  0  0  0  0  0  0  0
    4.1766    5.3396   -0.1789 H   0  0  0  0  0  0  0  0  0  0  0  0
   -2.0351    7.7224    1.2529 H   0  0  0  0  0  0  0  0  0  0  0  0
   -3.5930    6.8916    1.1255 H   0  0  0  0  0  0  0  0  0  0  0  0
   -2.7979    7.5295   -0.3251 H   0  0  0  0  0  0  0  0  0  0  0  0
   -1.1352    3.5400   -1.0726 H   0  0  0  0  0  0  0  0  0  0  0  0
   -2.6991    2.6975   -1.0806 H   0  0  0  0  0  0  0  0  0  0  0  0
   -3.4761    1.8955    1.0559 H   0  0  0  0  0  0  0  0  0  0  0  0
   -2.1553    5.5237   -2.1490 H   0  0  0  0  0  0  0  0  0  0  0  0
   -3.5440    6.1689   -1.6195 H   0  0  0  0  0  0  0  0  0  0  0  0
    1.8046    4.5527    0.3824 H   0  0  0  0  0  0  0  0  0  0  0  0
    5.3043    1.3147    1.2210 H   0  0  0  0  0  0  0  0  0  0  0  0
    4.0868    8.3133   -3.0948 H   0  0  0  0  0  0  0  0  0  0  0  0
    5.7643    6.0830   -0.9868 H   0  0  0  0  0  0  0  0  0  0  0  0
    4.1220   11.0489    3.7473 H   0  0  0  0  0  0  0  0  0  0  0  0
    5.5541   10.9696    4.7178 H   0  0  0  0  0  0  0  0  0  0  0  0
  1 47  1  0  0  0  0
  2  4  1  0  0  0  0
  2 32  1  0  0  0  0
  2  3  1  6  0  0  0
  2  1  1  0  0  0  0
  4  5  1  1  0  0  0
  4  6  1  0  0  0  0
  4 29  1  0  0  0  0
  6  7  1  0  0  0  0
  6 48  1  0  0  0  0
  6 49  1  0  0  0  0
  8  7  1  6  0  0  0
  8  9  2  0  0  0  0
  8 10  1  0  0  0  0
  8 28  1  0  0  0  0
 11 13  1  6  0  0  0
 11 27  1  0  0  0  0
 11 12  2  0  0  0  0
 11 10  1  0  0  0  0
 13 14  1  0  0  0  0
 14 15  1  1  0  0  0
 14 16  1  0  0  0  0
 14 23  1  0  0  0  0
 16 17  1  0  0  0  0
 17 18  1  6  0  0  0
 17 19  1  0  0  0  0
 17 20  1  0  0  0  0
 19 50  1  0  0  0  0
 19 51  1  0  0  0  0
 19 52  1  0  0  0  0
 20 22  1  0  0  0  0
 20 26  1  0  0  0  0
 20 21  1  1  0  0  0
 22 23  1  0  0  0  0
 22 53  1  0  0  0  0
 22 54  1  0  0  0  0
 23 24  1  6  0  0  0
 23 25  1  0  0  0  0
 25 55  1  0  0  0  0
 26 56  1  0  0  0  0
 26 57  1  0  0  0  0
 27 58  1  0  0  0  0
 28 59  1  0  0  0  0
 29 30  1  0  0  0  0
 30 32  1  0  0  0  0
 30 35  1  0  0  0  0
 30 31  1  6  0  0  0
 32 33  1  6  0  0  0
 32 34  1  0  0  0  0
 34 60  1  0  0  0  0
 35 36  1  0  0  0  0
 35 39  1  0  0  0  0
 36 37  2  0  0  0  0
 36 61  1  0  0  0  0
 37 38  1  0  0  0  0
 38 39  2  0  0  0  0
 38 45  1  0  0  0  0
 39 40  1  0  0  0  0
 40 41  2  0  0  0  0
 41 42  1  0  0  0  0
 41 43  1  0  0  0  0
 42 62  1  0  0  0  0
 42 63  1  0  0  0  0
 43 44  1  0  0  0  0
 43 45  1  0  0  0  0
 45 46  2  0  0  0  0
M  END
$$$$
