GPF
 OpenBabel04121316123D

 18 17  0  0  0  0  0  0  0  0999 V2000
    0.9807    0.1597    0.1632 O   0  0  0  0  0  0  0  0  0  0  0  0
    2.3206   -0.0022    0.0801 C   0  0  0  0  0  0  0  0  0  0  0  0
    2.8351   -1.1070   -0.0698 O   0  0  0  0  0  0  0  0  0  0  0  0
    3.0416    1.3415    0.1308 C   0  0  0  0  0  0  0  0  0  0  0  0
    4.4787    1.1362    0.1368 N   0  0  0  0  0  0  0  0  0  0  0  0
    5.2698    2.3519    0.2060 C   0  0  0  0  0  0  0  0  0  0  0  0
    7.0690    2.0181    0.1866 P   0  0  0  0  0  0  0  0  0  0  0  0
    6.8739    0.5039    0.0844 O   0  0  0  0  0  0  0  0  0  0  0  0
    7.2281    2.6361   -1.3241 O   0  0  0  0  0  0  0  0  0  0  0  0
    8.7699    1.7025    0.1683 O   0  0  0  0  0  0  0  0  0  0  0  0
    0.6290    0.3359   -0.7311 H   0  0  0  0  0  0  0  0  0  0  0  0
    2.7431    1.8459    1.0559 H   0  0  0  0  0  0  0  0  0  0  0  0
    2.7348    1.9373   -0.7357 H   0  0  0  0  0  0  0  0  0  0  0  0
    4.8173    0.5097   -0.6011 H   0  0  0  0  0  0  0  0  0  0  0  0
    5.0681    2.8563    1.1579 H   0  0  0  0  0  0  0  0  0  0  0  0
    4.9741    3.0494   -0.5844 H   0  0  0  0  0  0  0  0  0  0  0  0
    6.4313    2.7501   -1.8690 H   0  0  0  0  0  0  0  0  0  0  0  0
    8.9520    1.0377    0.8583 H   0  0  0  0  0  0  0  0  0  0  0  0
  1  2  1  0  0  0  0
  1 11  1  0  0  0  0
  2  3  2  0  0  0  0
  2  4  1  0  0  0  0
  4  5  1  0  0  0  0
  4 12  1  0  0  0  0
  4 13  1  0  0  0  0
  5  6  1  0  0  0  0
  5 14  1  0  0  0  0
  6  7  1  0  0  0  0
  6 15  1  0  0  0  0
  6 16  1  0  0  0  0
  7  8  2  0  0  0  0
  7  9  1  0  0  0  0
  7 10  1  0  0  0  0
  9 17  1  0  0  0  0
 10 18  1  0  0  0  0
M  END
$$$$
