GPR
 OpenBabel04121316123D

 62 64  0  0  1  0  0  0  0  0999 V2000
    4.7685    7.2014    9.5255 O   0  0  0  0  0  0  0  0  0  0  0  0
    5.2886    6.4388    8.7139 C   0  0  0  0  0  0  0  0  0  0  0  0
    5.4304    6.6857    7.3977 N   0  0  0  0  0  0  0  0  0  0  0  0
    4.8785    7.8408    6.6937 C   0  0  2  0  0  0  0  0  0  0  0  0
    5.5622    8.6818    6.8534 H   0  0  0  0  0  0  0  0  0  0  0  0
    3.4353    8.2718    7.1409 C   0  0  0  0  0  0  0  0  0  0  0  0
    2.4472    8.2358    6.4095 O   0  0  0  0  0  0  0  0  0  0  0  0
    3.3423    8.7582    8.4244 N   0  0  0  0  0  0  0  0  0  0  0  0
    2.0722    8.7551    9.1200 C   0  0  0  0  0  0  0  0  0  0  0  0
    2.2821    8.9188   10.6305 C   0  0  0  0  0  0  0  0  0  0  0  0
    3.3607    8.8676   11.2051 O   0  0  0  0  0  0  0  0  0  0  0  0
    1.1332    9.1207   11.3174 O   0  0  0  0  0  0  0  0  0  0  0  0
    4.8356    7.4744    5.1992 C   0  0  0  0  0  0  0  0  0  0  0  0
    3.8857    5.8656    5.0039 S   0  0  0  0  0  0  0  0  0  0  0  0
    3.4948    5.8725    3.2075 C   0  0  1  0  0  0  0  0  0  0  0  0
    2.6573    5.1755    3.0559 H   0  0  0  0  0  0  0  0  0  0  0  0
    3.0074    7.2656    2.7935 C   0  0  2  0  0  0  0  0  0  0  0  0
    2.8372    7.8859    3.6765 H   0  0  0  0  0  0  0  0  0  0  0  0
    1.6983    7.1850    2.2213 O   0  0  0  0  0  0  0  0  0  0  0  0
    3.9430    8.0325    1.8985 C   0  0  0  0  0  0  0  0  0  0  0  0
    3.6542    9.3958    1.7096 C   0  0  0  0  0  0  0  0  0  0  0  0
    4.4490   10.1814    0.8919 C   0  0  0  0  0  0  0  0  0  0  0  0
    5.5431    9.6118    0.2582 C   0  0  0  0  0  0  0  0  0  0  0  0
    5.8574    8.2651    0.4665 C   0  0  0  0  0  0  0  0  0  0  0  0
    5.0801    7.4423    1.3026 C   0  0  0  0  0  0  0  0  0  0  0  0
    5.4214    6.0220    1.5615 C   0  0  0  0  0  0  0  0  0  0  0  0
    4.6436    5.2630    2.4499 C   0  0  0  0  0  0  0  0  0  0  0  0
    4.9176    3.8950    2.6758 C   0  0  0  0  0  0  0  0  0  0  0  0
    5.9889    3.2727    2.0605 C   0  0  0  0  0  0  0  0  0  0  0  0
    6.7903    4.0108    1.2046 C   0  0  0  0  0  0  0  0  0  0  0  0
    6.5081    5.3612    0.9569 C   0  0  0  0  0  0  0  0  0  0  0  0
    5.6299    5.0989    9.2117 C   0  0  0  0  0  0  0  0  0  0  0  0
    6.4296    4.2213    8.2917 C   0  0  0  0  0  0  0  0  0  0  0  0
    6.8345    2.9485    9.0182 C   0  0  1  0  0  0  0  0  0  0  0  0
    7.4031    3.1809    9.9252 H   0  0  0  0  0  0  0  0  0  0  0  0
    5.6155    2.0615    9.3985 C   0  0  0  0  0  0  0  0  0  0  0  0
    5.3611    0.9887    8.8661 O   0  0  0  0  0  0  0  0  0  0  0  0
    4.7999    2.5489   10.3642 O   0  0  0  0  0  0  0  0  0  0  0  0
    7.7209    2.2136    8.0947 N   0  0  0  0  0  0  0  0  0  0  0  0
    6.0030    6.0723    6.8283 H   0  0  0  0  0  0  0  0  0  0  0  0
    4.1138    8.4849    9.0419 H   0  0  0  0  0  0  0  0  0  0  0  0
    1.5563    7.8061    8.9303 H   0  0  0  0  0  0  0  0  0  0  0  0
    1.4974    9.5930    8.7251 H   0  0  0  0  0  0  0  0  0  0  0  0
    0.3323    9.1518   10.7634 H   0  0  0  0  0  0  0  0  0  0  0  0
    5.8386    7.3016    4.7935 H   0  0  0  0  0  0  0  0  0  0  0  0
    4.4178    8.3351    4.6757 H   0  0  0  0  0  0  0  0  0  0  0  0
    1.1534    6.7430    2.8996 H   0  0  0  0  0  0  0  0  0  0  0  0
    2.7919    9.8335    2.2101 H   0  0  0  0  0  0  0  0  0  0  0  0
    4.2014   11.2271    0.7419 H   0  0  0  0  0  0  0  0  0  0  0  0
    6.1589   10.2115   -0.4054 H   0  0  0  0  0  0  0  0  0  0  0  0
    6.7284    7.8800   -0.0546 H   0  0  0  0  0  0  0  0  0  0  0  0
    4.2843    3.3195    3.3508 H   0  0  0  0  0  0  0  0  0  0  0  0
    6.1886    2.2226    2.2507 H   0  0  0  0  0  0  0  0  0  0  0  0
    7.6343    3.5366    0.7123 H   0  0  0  0  0  0  0  0  0  0  0  0
    7.1672    5.8758    0.2647 H   0  0  0  0  0  0  0  0  0  0  0  0
    4.6483    4.6571    9.4033 H   0  0  0  0  0  0  0  0  0  0  0  0
    6.1647    5.2566   10.1554 H   0  0  0  0  0  0  0  0  0  0  0  0
    7.3193    4.7749    7.9590 H   0  0  0  0  0  0  0  0  0  0  0  0
    5.8387    3.9883    7.3952 H   0  0  0  0  0  0  0  0  0  0  0  0
    5.0354    3.3880   10.8003 H   0  0  0  0  0  0  0  0  0  0  0  0
    8.4671    2.8105    7.7453 H   0  0  0  0  0  0  0  0  0  0  0  0
    7.1661    1.9288    7.2819 H   0  0  0  0  0  0  0  0  0  0  0  0
  1  2  2  0  0  0  0
  2  3  1  0  0  0  0
  2 32  1  0  0  0  0
  3 40  1  0  0  0  0
  4  6  1  0  0  0  0
  4 13  1  0  0  0  0
  4  5  1  1  0  0  0
  4  3  1  0  0  0  0
  6  7  2  0  0  0  0
  6  8  1  0  0  0  0
  8  9  1  0  0  0  0
  8 41  1  0  0  0  0
  9 10  1  0  0  0  0
  9 42  1  0  0  0  0
  9 43  1  0  0  0  0
 10 11  2  0  0  0  0
 10 12  1  0  0  0  0
 12 44  1  0  0  0  0
 13 14  1  0  0  0  0
 13 45  1  0  0  0  0
 13 46  1  0  0  0  0
 15 17  1  0  0  0  0
 15 27  1  0  0  0  0
 15 16  1  6  0  0  0
 15 14  1  0  0  0  0
 17 18  1  1  0  0  0
 17 19  1  0  0  0  0
 17 20  1  0  0  0  0
 19 47  1  0  0  0  0
 20 21  2  0  0  0  0
 20 25  1  0  0  0  0
 21 22  1  0  0  0  0
 21 48  1  0  0  0  0
 22 23  2  0  0  0  0
 22 49  1  0  0  0  0
 23 24  1  0  0  0  0
 23 50  1  0  0  0  0
 24 25  2  0  0  0  0
 24 51  1  0  0  0  0
 25 26  1  0  0  0  0
 26 27  2  0  0  0  0
 26 31  1  0  0  0  0
 27 28  1  0  0  0  0
 28 29  2  0  0  0  0
 28 52  1  0  0  0  0
 29 30  1  0  0  0  0
 29 53  1  0  0  0  0
 30 31  2  0  0  0  0
 30 54  1  0  0  0  0
 31 55  1  0  0  0  0
 32 33  1  0  0  0  0
 32 56  1  0  0  0  0
 32 57  1  0  0  0  0
 33 34  1  0  0  0  0
 33 58  1  0  0  0  0
 33 59  1  0  0  0  0
 34 35  1  1  0  0  0
 34 36  1  0  0  0  0
 34 39  1  0  0  0  0
 36 37  2  0  0  0  0
 36 38  1  0  0  0  0
 38 60  1  0  0  0  0
 39 61  1  0  0  0  0
 39 62  1  0  0  0  0
M  END
$$$$
