GPT
 OpenBabel04121316123D

 43 44  0  0  1  0  0  0  0  0999 V2000
    3.4017   -5.0758    1.0698 F   0  0  0  0  0  0  0  0  0  0  0  0
    4.2775   -4.1198    0.6760 C   0  0  0  0  0  0  0  0  0  0  0  0
    5.5285   -4.1844    1.5466 C   0  0  0  0  0  0  0  0  0  0  0  0
    6.5589   -3.1224    1.1551 C   0  0  1  0  0  0  0  0  0  0  0  0
    6.0314   -2.1858    0.9197 H   0  0  0  0  0  0  0  0  0  0  0  0
    7.5731   -2.6734    2.1760 C   0  0  0  0  0  0  0  0  0  0  0  0
    7.4184   -2.6365    3.3859 O   0  0  0  0  0  0  0  0  0  0  0  0
    8.6596   -2.1242    1.5100 N   0  0  0  0  0  0  0  0  0  0  0  0
    8.9177   -2.8233    0.2646 C   0  0  2  0  0  0  0  0  0  0  0  0
    7.4033   -3.5213   -0.0481 C   0  0  2  0  0  0  0  0  0  0  0  0
    6.5220   -3.1240   -1.3004 C   0  0  0  0  0  0  0  0  0  0  0  0
    7.4915   -4.9728   -0.0607 O   0  0  0  0  0  0  0  0  0  0  0  0
    9.9379   -3.9771    0.5736 C   0  0  0  0  0  0  0  0  0  0  0  0
    9.7977   -4.8023    1.4745 O   0  0  0  0  0  0  0  0  0  0  0  0
    9.6159   -1.8642   -0.8231 C   0  0  2  0  0  0  0  0  0  0  0  0
    9.4886   -0.8144   -0.5303 H   0  0  0  0  0  0  0  0  0  0  0  0
    8.9594   -2.1594   -2.1522 C   0  0  1  0  0  0  0  0  0  0  0  0
    7.9873   -1.6999   -1.9799 H   0  0  0  0  0  0  0  0  0  0  0  0
    9.3300   -1.4725   -3.4365 C   0  0  0  0  0  0  0  0  0  0  0  0
    9.7912   -2.3868   -4.5755 C   0  0  0  0  0  0  0  0  0  0  0  0
    9.7484   -3.9206   -4.4939 C   0  0  0  0  0  0  0  0  0  0  0  0
    9.2996   -4.4769   -3.2355 C   0  0  0  0  0  0  0  0  0  0  0  0
    9.0319   -3.6677   -2.2698 C   0  0  0  0  0  0  0  0  0  0  0  0
   11.0202   -2.0385   -1.0729 O   0  0  0  0  0  0  0  0  0  0  0  0
    3.8009   -3.1376    0.7407 H   0  0  0  0  0  0  0  0  0  0  0  0
    4.4467   -4.3391   -0.3689 H   0  0  0  0  0  0  0  0  0  0  0  0
    5.9289   -5.2023    1.4745 H   0  0  0  0  0  0  0  0  0  0  0  0
    5.2472   -4.0787    2.5934 H   0  0  0  0  0  0  0  0  0  0  0  0
    9.3864   -1.6794    2.0591 H   0  0  0  0  0  0  0  0  0  0  0  0
    6.2400   -2.0677   -1.2789 H   0  0  0  0  0  0  0  0  0  0  0  0
    5.6270   -3.7072   -1.4266 H   0  0  0  0  0  0  0  0  0  0  0  0
    6.8963   -3.3657   -2.2963 H   0  0  0  0  0  0  0  0  0  0  0  0
    8.0002   -5.2868    0.7215 H   0  0  0  0  0  0  0  0  0  0  0  0
   10.7724   -4.1134   -0.1420 H   0  0  0  0  0  0  0  0  0  0  0  0
   10.0315   -0.6535   -3.2489 H   0  0  0  0  0  0  0  0  0  0  0  0
    8.4193   -0.9611   -3.8037 H   0  0  0  0  0  0  0  0  0  0  0  0
   10.8265   -2.1095   -4.7743 H   0  0  0  0  0  0  0  0  0  0  0  0
    9.1964   -2.1211   -5.4537 H   0  0  0  0  0  0  0  0  0  0  0  0
   10.7569   -4.3191   -4.6146 H   0  0  0  0  0  0  0  0  0  0  0  0
    9.0819   -4.3355   -5.2496 H   0  0  0  0  0  0  0  0  0  0  0  0
    9.1971   -5.5516   -3.0428 H   0  0  0  0  0  0  0  0  0  0  0  0
    8.8155   -4.3098   -1.4462 H   0  0  0  0  0  0  0  0  0  0  0  0
   11.5443   -2.0946   -0.2630 H   0  0  0  0  0  0  0  0  0  0  0  0
  1  2  1  0  0  0  0
  2  3  1  0  0  0  0
  2 25  1  0  0  0  0
  2 26  1  0  0  0  0
  3  4  1  0  0  0  0
  3 27  1  0  0  0  0
  3 28  1  0  0  0  0
  4  5  1  6  0  0  0
  4  6  1  0  0  0  0
  4 10  1  0  0  0  0
  6  7  2  0  0  0  0
  6  8  1  0  0  0  0
  8  9  1  0  0  0  0
  8 29  1  0  0  0  0
  9 10  1  0  0  0  0
  9 13  1  1  0  0  0
 10 12  1  1  0  0  0
 10 11  1  0  0  0  0
 11 30  1  0  0  0  0
 11 31  1  0  0  0  0
 11 32  1  0  0  0  0
 12 33  1  0  0  0  0
 13 14  2  0  0  0  0
 13 34  1  0  0  0  0
 15 24  1  0  0  0  0
 15 16  1  1  0  0  0
 15  9  1  0  0  0  0
 17 19  1  0  0  0  0
 17 23  1  0  0  0  0
 17 18  1  1  0  0  0
 17 15  1  0  0  0  0
 19 20  1  0  0  0  0
 19 35  1  0  0  0  0
 19 36  1  0  0  0  0
 20 21  1  0  0  0  0
 20 37  1  0  0  0  0
 20 38  1  0  0  0  0
 21 22  1  0  0  0  0
 21 39  1  0  0  0  0
 21 40  1  0  0  0  0
 22 23  2  0  0  0  0
 22 41  1  0  0  0  0
 23 42  1  0  0  0  0
 24 43  1  0  0  0  0
M  END
$$$$
