GRA
 OpenBabel04121316123D

 98100  0  0  1  0  0  0  0  0999 V2000
    0.1718    0.1247    0.0066 O   0  0  0  0  0  0  0  0  0  0  0  0
    1.3989    0.1505    0.2010 C   0  0  0  0  0  0  0  0  0  0  0  0
    1.9878   -0.8438    1.0350 N   0  0  0  0  0  0  0  0  0  0  0  0
    1.5708   -2.2670    1.3665 C   0  0  0  0  0  0  0  0  0  0  0  0
    2.6321   -3.3451    1.8354 C   0  0  0  0  0  0  0  0  0  0  0  0
    1.8946   -4.7972    2.6045 S   0  0  0  0  0  0  0  0  0  0  0  0
    3.3018   -5.7027    3.2048 C   0  0  0  0  0  0  0  0  0  0  0  0
    4.4482   -5.3995    3.1025 O   0  0  0  0  0  0  0  0  0  0  0  0
    2.8451   -6.9496    3.9184 C   0  0  0  0  0  0  0  0  0  0  0  0
    4.0366   -7.7665    4.3755 C   0  0  0  0  0  0  0  0  0  0  0  0
    3.5799   -9.0380    5.0789 C   0  0  0  0  0  0  0  0  0  0  0  0
    4.7939   -9.8263    5.5114 C   0  0  0  0  0  0  0  0  0  0  0  0
    5.9436   -9.4845    5.3118 O   0  0  0  0  0  0  0  0  0  0  0  0
    4.4897  -10.9780    6.1487 O   0  0  0  0  0  0  0  0  0  0  0  0
    2.4253    1.3413   -0.7092 C   0  0  0  0  0  0  0  0  0  0  0  0
    4.1566    1.3724   -1.0352 C   0  0  0  0  0  0  0  0  0  0  0  0
    5.1272    2.2365   -1.6007 N   0  0  0  0  0  0  0  0  0  0  0  0
    6.5093    2.0456   -1.2861 C   0  0  0  0  0  0  0  0  0  0  0  0
    7.0279    1.0865   -0.7021 O   0  0  0  0  0  0  0  0  0  0  0  0
    7.3457    3.2101   -1.7738 C   0  0  1  0  0  0  0  0  0  0  0  0
    7.1337    3.2826   -2.8412 H   0  0  0  0  0  0  0  0  0  0  0  0
    6.9526    4.4968   -1.0207 C   0  0  0  0  0  0  0  0  0  0  0  0
    7.2841    4.3277    0.4663 C   0  0  0  0  0  0  0  0  0  0  0  0
    6.5435    3.2521    1.1272 O   0  0  0  0  0  0  0  0  0  0  0  0
    6.9614    3.1408    2.8022 P   0  0  1  0  0  0  0  0  0  0  0  0
    7.4994    4.5655    2.9376 O   0  0  0  0  0  0  0  0  0  0  0  0
    5.2835    3.0571    3.2153 O   0  0  0  0  0  0  0  0  0  0  0  0
    4.3302    3.1341    1.7737 P   0  0  1  0  0  0  0  0  0  0  0  0
    4.7053    4.5815    1.5498 O   0  0  0  0  0  0  0  0  0  0  0  0
    5.0183    1.6669    1.5618 O   0  0  0  0  0  0  0  0  0  0  0  0
    5.5785    0.7597    2.5680 C   0  0  0  0  0  0  0  0  0  0  0  0
    6.1135   -0.6289    2.1712 C   0  0  1  0  0  0  0  0  0  0  0  0
    6.6549   -0.5349    1.2285 H   0  0  0  0  0  0  0  0  0  0  0  0
    7.0307   -1.0156    3.2260 O   0  0  0  0  0  0  0  0  0  0  0  0
    7.1199   -2.4363    3.1323 C   0  0  2  0  0  0  0  0  0  0  0  0
    7.8382   -2.6798    2.3455 H   0  0  0  0  0  0  0  0  0  0  0  0
    5.7601   -2.9336    2.7808 C   0  0  1  0  0  0  0  0  0  0  0  0
    5.1362   -3.2149    3.6406 H   0  0  0  0  0  0  0  0  0  0  0  0
    5.1190   -1.7770    2.1057 C   0  0  2  0  0  0  0  0  0  0  0  0
    4.2436   -1.4128    2.6777 H   0  0  0  0  0  0  0  0  0  0  0  0
    4.8101   -2.3291    0.7869 O   0  0  0  0  0  0  0  0  0  0  0  0
    4.4978   -1.2310   -0.2298 P   0  0  0  0  0  0  0  0  0  0  0  0
    4.1342   -0.1782    0.6782 O   0  0  0  0  0  0  0  0  0  0  0  0
    5.4942   -1.2127   -1.4712 O   0  0  0  0  0  0  0  0  0  0  0  0
    3.1577   -1.4147   -1.0194 O   0  0  0  0  0  0  0  0  0  0  0  0
    5.9206   -3.9882    1.8297 O   0  0  0  0  0  0  0  0  0  0  0  0
    7.5354   -3.0364    4.3690 N   0  0  0  0  0  0  0  0  0  0  0  0
    7.2877   -2.5761    5.6296 C   0  0  0  0  0  0  0  0  0  0  0  0
    7.7358   -3.4093    6.5426 N   0  0  0  0  0  0  0  0  0  0  0  0
    8.2598   -4.4696    5.8260 C   0  0  0  0  0  0  0  0  0  0  0  0
    8.0992   -4.2786    4.4671 C   0  0  0  0  0  0  0  0  0  0  0  0
    8.4404   -5.1212    3.4766 N   0  0  0  0  0  0  0  0  0  0  0  0
    9.0374   -6.2254    3.9776 C   0  0  0  0  0  0  0  0  0  0  0  0
    9.2981   -6.5233    5.2698 N   0  0  0  0  0  0  0  0  0  0  0  0
    8.9020   -5.6499    6.2223 C   0  0  0  0  0  0  0  0  0  0  0  0
    9.1587   -5.9321    7.5430 N   0  0  0  0  0  0  0  0  0  0  0  0
    3.3769    3.2112    0.3321 O   0  0  0  0  0  0  0  0  0  0  0  0
    7.3794    3.0295    4.4773 O   0  0  0  0  0  0  0  0  0  0  0  0
    7.7355    5.6602   -1.6097 C   0  0  0  0  0  0  0  0  0  0  0  0
    5.4892    4.9260   -1.1784 C   0  0  0  0  0  0  0  0  0  0  0  0
    8.7489    2.9603   -1.6370 O   0  0  0  0  0  0  0  0  0  0  0  0
    2.8973   -0.6237    1.4215 H   0  0  0  0  0  0  0  0  0  0  0  0
    1.0672   -2.6902    0.4956 H   0  0  0  0  0  0  0  0  0  0  0  0
    0.9320   -2.1259    2.2323 H   0  0  0  0  0  0  0  0  0  0  0  0
    3.2100   -2.9424    2.6528 H   0  0  0  0  0  0  0  0  0  0  0  0
    3.2760   -3.7272    1.0341 H   0  0  0  0  0  0  0  0  0  0  0  0
    2.2380   -7.5272    3.2165 H   0  0  0  0  0  0  0  0  0  0  0  0
    2.2429   -6.6420    4.7779 H   0  0  0  0  0  0  0  0  0  0  0  0
    4.6661   -7.1697    5.0499 H   0  0  0  0  0  0  0  0  0  0  0  0
    4.6683   -8.0203    3.5132 H   0  0  0  0  0  0  0  0  0  0  0  0
    2.9759   -9.6392    4.3905 H   0  0  0  0  0  0  0  0  0  0  0  0
    2.9766   -8.7752    5.9547 H   0  0  0  0  0  0  0  0  0  0  0  0
    3.5398  -11.1633    6.2545 H   0  0  0  0  0  0  0  0  0  0  0  0
    1.9408    2.2422   -0.3246 H   0  0  0  0  0  0  0  0  0  0  0  0
    2.0954    1.3683   -1.7519 H   0  0  0  0  0  0  0  0  0  0  0  0
    4.3259    0.5825   -1.7298 H   0  0  0  0  0  0  0  0  0  0  0  0
    4.7766    1.2271   -0.1953 H   0  0  0  0  0  0  0  0  0  0  0  0
    4.7854    3.0314   -2.0912 H   0  0  0  0  0  0  0  0  0  0  0  0
    7.0340    5.2827    0.9463 H   0  0  0  0  0  0  0  0  0  0  0  0
    8.3545    4.1412    0.6145 H   0  0  0  0  0  0  0  0  0  0  0  0
    5.0517    0.7979    3.5320 H   0  0  0  0  0  0  0  0  0  0  0  0
    6.5737    1.1253    2.7585 H   0  0  0  0  0  0  0  0  0  0  0  0
    6.2923   -1.6897   -1.2947 H   0  0  0  0  0  0  0  0  0  0  0  0
    2.9133   -0.5831   -0.5662 H   0  0  0  0  0  0  0  0  0  0  0  0
    5.8748   -4.8217    2.3342 H   0  0  0  0  0  0  0  0  0  0  0  0
    6.7831   -1.6378    5.8244 H   0  0  0  0  0  0  0  0  0  0  0  0
    9.3670   -6.9654    3.2521 H   0  0  0  0  0  0  0  0  0  0  0  0
    9.6068   -6.8031    7.7725 H   0  0  0  0  0  0  0  0  0  0  0  0
    8.8477   -5.2753    8.2442 H   0  0  0  0  0  0  0  0  0  0  0  0
    3.0982    4.1510    0.3003 H   0  0  0  0  0  0  0  0  0  0  0  0
    8.2920    3.3650    4.5589 H   0  0  0  0  0  0  0  0  0  0  0  0
    8.8104    5.5099   -1.5121 H   0  0  0  0  0  0  0  0  0  0  0  0
    7.4619    6.5945   -1.1091 H   0  0  0  0  0  0  0  0  0  0  0  0
    7.4808    5.7546   -2.6715 H   0  0  0  0  0  0  0  0  0  0  0  0
    4.8673    4.2337   -0.6585 H   0  0  0  0  0  0  0  0  0  0  0  0
    5.1570    4.9352   -2.2195 H   0  0  0  0  0  0  0  0  0  0  0  0
    5.2407    5.8786   -0.7062 H   0  0  0  0  0  0  0  0  0  0  0  0
    8.8979    2.0415   -1.9283 H   0  0  0  0  0  0  0  0  0  0  0  0
  1  2  2  0  0  0  0
  2  3  1  0  0  0  0
  2 15  1  0  0  0  0
  3  4  1  0  0  0  0
  3 62  1  0  0  0  0
  4  5  1  0  0  0  0
  4 63  1  0  0  0  0
  4 64  1  0  0  0  0
  5  6  1  0  0  0  0
  5 65  1  0  0  0  0
  5 66  1  0  0  0  0
  6  7  1  0  0  0  0
  7  8  2  0  0  0  0
  7  9  1  0  0  0  0
  9 10  1  0  0  0  0
  9 67  1  0  0  0  0
  9 68  1  0  0  0  0
 10 11  1  0  0  0  0
 10 69  1  0  0  0  0
 10 70  1  0  0  0  0
 11 12  1  0  0  0  0
 11 71  1  0  0  0  0
 11 72  1  0  0  0  0
 12 13  2  0  0  0  0
 12 14  1  0  0  0  0
 14 73  1  0  0  0  0
 15 16  1  0  0  0  0
 15 74  1  0  0  0  0
 15 75  1  0  0  0  0
 16 17  1  0  0  0  0
 16 76  1  0  0  0  0
 16 77  1  0  0  0  0
 17 18  1  0  0  0  0
 17 78  1  0  0  0  0
 18 19  2  0  0  0  0
 18 20  1  0  0  0  0
 20 21  1  6  0  0  0
 20 22  1  0  0  0  0
 20 61  1  0  0  0  0
 22 23  1  0  0  0  0
 22 59  1  0  0  0  0
 22 60  1  0  0  0  0
 23 24  1  0  0  0  0
 23 79  1  0  0  0  0
 23 80  1  0  0  0  0
 25 24  1  6  0  0  0
 25 26  2  0  0  0  0
 25 27  1  0  0  0  0
 25 58  1  0  0  0  0
 28 27  1  1  0  0  0
 28 29  2  0  0  0  0
 28 30  1  0  0  0  0
 28 57  1  0  0  0  0
 30 31  1  0  0  0  0
 31 32  1  0  0  0  0
 31 81  1  0  0  0  0
 31 82  1  0  0  0  0
 32 33  1  6  0  0  0
 32 34  1  0  0  0  0
 32 39  1  0  0  0  0
 34 35  1  0  0  0  0
 35 37  1  0  0  0  0
 35 47  1  0  0  0  0
 35 36  1  6  0  0  0
 37 38  1  1  0  0  0
 37 39  1  0  0  0  0
 37 46  1  0  0  0  0
 39 40  1  1  0  0  0
 39 41  1  0  0  0  0
 41 42  1  0  0  0  0
 42 43  2  0  0  0  0
 42 44  1  0  0  0  0
 42 45  1  0  0  0  0
 44 83  1  0  0  0  0
 45 84  1  0  0  0  0
 46 85  1  0  0  0  0
 47 48  1  0  0  0  0
 47 51  1  0  0  0  0
 48 49  2  0  0  0  0
 48 86  1  0  0  0  0
 49 50  1  0  0  0  0
 50 51  2  0  0  0  0
 50 55  1  0  0  0  0
 51 52  1  0  0  0  0
 52 53  2  0  0  0  0
 53 54  1  0  0  0  0
 53 87  1  0  0  0  0
 54 55  2  0  0  0  0
 55 56  1  0  0  0  0
 56 88  1  0  0  0  0
 56 89  1  0  0  0  0
 57 90  1  0  0  0  0
 58 91  1  0  0  0  0
 59 92  1  0  0  0  0
 59 93  1  0  0  0  0
 59 94  1  0  0  0  0
 60 95  1  0  0  0  0
 60 96  1  0  0  0  0
 60 97  1  0  0  0  0
 61 98  1  0  0  0  0
M  END
$$$$
