GRD
 OpenBabel04121316123D

 78 80  0  0  1  0  0  0  0  0999 V2000
    1.0482   -0.0993   -0.2436 C   0  0  0  0  0  0  0  0  0  0  0  0
    2.5508   -0.0468   -0.0495 C   0  0  0  0  0  0  0  0  0  0  0  0
    3.0267    1.0155    0.9638 C   0  0  1  0  0  0  0  0  0  0  0  0
    2.6840    1.9982    0.6115 H   0  0  0  0  0  0  0  0  0  0  0  0
    2.5418    0.7769    2.4146 C   0  0  1  0  0  0  0  0  0  0  0  0
    2.8694   -0.2195    2.7437 H   0  0  0  0  0  0  0  0  0  0  0  0
    2.9783    1.8045    3.4995 C   0  0  0  0  0  0  0  0  0  0  0  0
    2.1903    2.6176    3.9877 O   0  0  0  0  0  0  0  0  0  0  0  0
    4.2855    1.7575    3.9699 N   0  0  0  0  0  0  0  0  0  0  0  0
    4.7421    2.9304    4.7380 C   0  0  0  0  0  0  0  0  0  0  0  0
    6.2531    2.9967    4.8221 C   0  0  0  0  0  0  0  0  0  0  0  0
    7.1510    3.8434    5.6801 C   0  0  0  0  0  0  0  0  0  0  0  0
    8.6270    3.5104    5.7638 N   0  0  0  0  0  0  0  0  0  0  0  0
    9.3644    4.3505    6.5911 C   0  0  0  0  0  0  0  0  0  0  0  0
   10.6309    4.4499    6.2613 N   0  0  0  0  0  0  0  0  0  0  0  0
   10.7919    3.6470    5.1610 C   0  0  0  0  0  0  0  0  0  0  0  0
    9.6324    2.8810    4.9481 C   0  0  0  0  0  0  0  0  0  0  0  0
    9.6061    1.8989    4.0023 N   0  0  0  0  0  0  0  0  0  0  0  0
   10.6818    1.9927    3.1092 C   0  0  0  0  0  0  0  0  0  0  0  0
   11.7441    2.7867    3.1364 N   0  0  0  0  0  0  0  0  0  0  0  0
   11.8755    3.5172    4.2386 C   0  0  0  0  0  0  0  0  0  0  0  0
   13.1460    4.0676    4.3566 N   0  0  0  0  0  0  0  0  0  0  0  0
    1.1160    0.8459    2.4288 O   0  0  0  0  0  0  0  0  0  0  0  0
    4.4608    1.0152    0.9327 N   0  0  0  0  0  0  0  0  0  0  0  0
    5.1255    2.1498    1.2973 C   0  0  0  0  0  0  0  0  0  0  0  0
    4.5666    3.2027    1.5781 O   0  0  0  0  0  0  0  0  0  0  0  0
    6.6136    1.9522    1.3498 C   0  0  1  0  0  0  0  0  0  0  0  0
    6.8803    0.9580    1.7608 H   0  0  0  0  0  0  0  0  0  0  0  0
    7.0286    2.0971    0.0318 N   0  0  0  0  0  0  0  0  0  0  0  0
    6.8825    1.1403   -0.8515 C   0  0  0  0  0  0  0  0  0  0  0  0
    6.3222    0.0496   -0.6472 O   0  0  0  0  0  0  0  0  0  0  0  0
    7.3553    1.6098   -1.9824 O   0  0  0  0  0  0  0  0  0  0  0  0
    7.0033    0.7438   -3.0185 C   0  0  0  0  0  0  0  0  0  0  0  0
    7.5912    1.3098   -4.2572 C   0  0  0  0  0  0  0  0  0  0  0  0
    7.6109    2.6942   -4.4825 C   0  0  0  0  0  0  0  0  0  0  0  0
    7.8896    3.1750   -5.7505 C   0  0  0  0  0  0  0  0  0  0  0  0
    8.2944    2.2878   -6.7436 C   0  0  0  0  0  0  0  0  0  0  0  0
    8.4432    0.9294   -6.4635 C   0  0  0  0  0  0  0  0  0  0  0  0
    8.0283    0.4290   -5.2412 C   0  0  0  0  0  0  0  0  0  0  0  0
    7.1829    3.0734    2.1275 C   0  0  0  0  0  0  0  0  0  0  0  0
    8.5949    3.4778    1.9973 C   0  0  0  0  0  0  0  0  0  0  0  0
    9.2595    3.7028    0.6935 C   0  0  0  0  0  0  0  0  0  0  0  0
    8.9388    4.6958    2.8618 C   0  0  0  0  0  0  0  0  0  0  0  0
    0.7840   -0.7719   -1.0608 H   0  0  0  0  0  0  0  0  0  0  0  0
    0.6529    0.9003   -0.4477 H   0  0  0  0  0  0  0  0  0  0  0  0
    0.5362   -0.5131    0.6215 H   0  0  0  0  0  0  0  0  0  0  0  0
    3.0062    0.1641   -1.0292 H   0  0  0  0  0  0  0  0  0  0  0  0
    2.9265   -1.0348    0.2456 H   0  0  0  0  0  0  0  0  0  0  0  0
    4.9455    1.2320    3.4106 H   0  0  0  0  0  0  0  0  0  0  0  0
    4.2809    2.8858    5.7153 H   0  0  0  0  0  0  0  0  0  0  0  0
    4.3680    3.8161    4.1922 H   0  0  0  0  0  0  0  0  0  0  0  0
    6.3432    3.6327    3.9575 H   0  0  0  0  0  0  0  0  0  0  0  0
    6.6722    1.9921    4.7780 H   0  0  0  0  0  0  0  0  0  0  0  0
    6.7396    3.8834    6.6869 H   0  0  0  0  0  0  0  0  0  0  0  0
    7.0878    4.8887    5.2957 H   0  0  0  0  0  0  0  0  0  0  0  0
    8.8678    4.9301    7.3567 H   0  0  0  0  0  0  0  0  0  0  0  0
   10.5603    1.5514    2.1038 H   0  0  0  0  0  0  0  0  0  0  0  0
   13.7472    3.5333    3.7280 H   0  0  0  0  0  0  0  0  0  0  0  0
   13.4175    4.0674    5.3299 H   0  0  0  0  0  0  0  0  0  0  0  0
    0.7747   -0.0538    2.3692 H   0  0  0  0  0  0  0  0  0  0  0  0
    4.9725    0.3166    0.3844 H   0  0  0  0  0  0  0  0  0  0  0  0
    7.2643    3.0212   -0.3036 H   0  0  0  0  0  0  0  0  0  0  0  0
    5.9102    0.7192   -3.1146 H   0  0  0  0  0  0  0  0  0  0  0  0
    7.3933   -0.2572   -2.8037 H   0  0  0  0  0  0  0  0  0  0  0  0
    7.3780    3.3956   -3.6825 H   0  0  0  0  0  0  0  0  0  0  0  0
    7.7831    4.2343   -5.9618 H   0  0  0  0  0  0  0  0  0  0  0  0
    8.5009    2.6585   -7.7413 H   0  0  0  0  0  0  0  0  0  0  0  0
    8.8537    0.2545   -7.2057 H   0  0  0  0  0  0  0  0  0  0  0  0
    8.0297   -0.6424   -5.0538 H   0  0  0  0  0  0  0  0  0  0  0  0
    7.2211    2.5202    3.0545 H   0  0  0  0  0  0  0  0  0  0  0  0
    6.5845    3.9812    2.1255 H   0  0  0  0  0  0  0  0  0  0  0  0
    8.9163    2.4825    2.2111 H   0  0  0  0  0  0  0  0  0  0  0  0
    8.7825    4.5765    0.2687 H   0  0  0  0  0  0  0  0  0  0  0  0
    9.2029    2.8080    0.0780 H   0  0  0  0  0  0  0  0  0  0  0  0
   10.3288    3.8628    0.8448 H   0  0  0  0  0  0  0  0  0  0  0  0
    8.4736    5.6069    2.4981 H   0  0  0  0  0  0  0  0  0  0  0  0
   10.0155    4.8722    2.9090 H   0  0  0  0  0  0  0  0  0  0  0  0
    8.5744    4.6843    3.8708 H   0  0  0  0  0  0  0  0  0  0  0  0
  1  2  1  0  0  0  0
  1 44  1  0  0  0  0
  1 45  1  0  0  0  0
  1 46  1  0  0  0  0
  2  3  1  0  0  0  0
  2 47  1  0  0  0  0
  2 48  1  0  0  0  0
  3  4  1  6  0  0  0
  3  5  1  0  0  0  0
  3 24  1  0  0  0  0
  5  6  1  1  0  0  0
  5  7  1  0  0  0  0
  5 23  1  0  0  0  0
  7  8  2  0  0  0  0
  7  9  1  0  0  0  0
  9 10  1  0  0  0  0
  9 49  1  0  0  0  0
 10 11  1  0  0  0  0
 10 50  1  0  0  0  0
 10 51  1  0  0  0  0
 11 12  1  0  0  0  0
 11 52  1  0  0  0  0
 11 53  1  0  0  0  0
 12 13  1  0  0  0  0
 12 54  1  0  0  0  0
 12 55  1  0  0  0  0
 13 14  1  0  0  0  0
 13 17  1  0  0  0  0
 14 15  2  0  0  0  0
 14 56  1  0  0  0  0
 15 16  1  0  0  0  0
 16 17  2  0  0  0  0
 16 21  1  0  0  0  0
 17 18  1  0  0  0  0
 18 19  2  0  0  0  0
 19 20  1  0  0  0  0
 19 57  1  0  0  0  0
 20 21  2  0  0  0  0
 21 22  1  0  0  0  0
 22 58  1  0  0  0  0
 22 59  1  0  0  0  0
 23 60  1  0  0  0  0
 24 25  1  0  0  0  0
 24 61  1  0  0  0  0
 25 26  2  0  0  0  0
 25 27  1  0  0  0  0
 27 28  1  1  0  0  0
 27 29  1  0  0  0  0
 27 40  1  0  0  0  0
 29 30  1  0  0  0  0
 29 62  1  0  0  0  0
 30 31  2  0  0  0  0
 30 32  1  0  0  0  0
 32 33  1  0  0  0  0
 33 34  1  0  0  0  0
 33 63  1  0  0  0  0
 33 64  1  0  0  0  0
 34 35  2  0  0  0  0
 34 39  1  0  0  0  0
 35 36  1  0  0  0  0
 35 65  1  0  0  0  0
 36 37  2  0  0  0  0
 36 66  1  0  0  0  0
 37 38  1  0  0  0  0
 37 67  1  0  0  0  0
 38 39  2  0  0  0  0
 38 68  1  0  0  0  0
 39 69  1  0  0  0  0
 40 41  1  0  0  0  0
 40 70  1  0  0  0  0
 40 71  1  0  0  0  0
 41 42  1  0  0  0  0
 41 43  1  0  0  0  0
 41 72  1  0  0  0  0
 42 73  1  0  0  0  0
 42 74  1  0  0  0  0
 42 75  1  0  0  0  0
 43 76  1  0  0  0  0
 43 77  1  0  0  0  0
 43 78  1  0  0  0  0
M  END
$$$$
