GRG
 OpenBabel04121316123D

 65 64  0  0  0  0  0  0  0  0999 V2000
    1.0015    0.1015    0.1029 C   0  0  0  0  0  0  0  0  0  0  0  0
    2.4978    0.0799    0.0241 C   0  0  0  0  0  0  0  0  0  0  0  0
    3.1741   -0.2665   -1.0986 C   0  0  0  0  0  0  0  0  0  0  0  0
    2.4945   -0.6544   -2.3226 C   0  0  0  0  0  0  0  0  0  0  0  0
    3.4649   -1.0100   -3.4344 C   0  0  0  0  0  0  0  0  0  0  0  0
    2.7098   -1.5081   -4.6281 C   0  0  0  0  0  0  0  0  0  0  0  0
    1.3709   -1.6815   -4.5956 C   0  0  0  0  0  0  0  0  0  0  0  0
    0.5790   -2.2482   -5.6842 C   0  0  0  0  0  0  0  0  0  0  0  0
   -0.7413   -1.7117   -5.5872 O   0  0  0  0  0  0  0  0  0  0  0  0
   -1.6063   -2.1651   -7.0152 P   0  0  1  0  0  0  0  0  0  0  0  0
   -2.9319   -2.2122   -6.2659 O   0  0  0  0  0  0  0  0  0  0  0  0
   -1.3119   -0.5998   -7.6905 O   0  0  0  0  0  0  0  0  0  0  0  0
   -0.3982    0.3494   -6.5693 P   0  0  0  0  0  0  0  0  0  0  0  0
   -1.3361    0.3370   -5.3911 O   0  0  0  0  0  0  0  0  0  0  0  0
    1.0045    0.0149   -7.2440 O   0  0  0  0  0  0  0  0  0  0  0  0
    0.5155    1.2986   -5.4481 O   0  0  0  0  0  0  0  0  0  0  0  0
   -2.4713   -2.6185   -8.4432 O   0  0  0  0  0  0  0  0  0  0  0  0
    3.5310   -1.8341   -5.8350 C   0  0  0  0  0  0  0  0  0  0  0  0
    3.2376    0.4686    1.2603 C   0  0  0  0  0  0  0  0  0  0  0  0
    4.7378    0.3910    1.0167 C   0  0  0  0  0  0  0  0  0  0  0  0
    5.5218    0.7631    2.1871 C   0  0  0  0  0  0  0  0  0  0  0  0
    6.8736    0.7623    2.1837 C   0  0  0  0  0  0  0  0  0  0  0  0
    7.6471    1.1518    3.4088 C   0  0  0  0  0  0  0  0  0  0  0  0
    6.7125    1.5151    4.5532 C   0  0  0  0  0  0  0  0  0  0  0  0
    7.3934    1.9109    5.8006 C   0  0  0  0  0  0  0  0  0  0  0  0
    6.6863    2.2575    6.8922 C   0  0  0  0  0  0  0  0  0  0  0  0
    5.1777    2.2718    6.9370 C   0  0  0  0  0  0  0  0  0  0  0  0
    7.4081    2.6525    8.1362 C   0  0  0  0  0  0  0  0  0  0  0  0
    7.6854    0.3799    0.9784 C   0  0  0  0  0  0  0  0  0  0  0  0
    0.5139   -0.1965   -0.8299 H   0  0  0  0  0  0  0  0  0  0  0  0
    0.6542    1.1122    0.3345 H   0  0  0  0  0  0  0  0  0  0  0  0
    0.6563   -0.5908    0.8762 H   0  0  0  0  0  0  0  0  0  0  0  0
    4.2521   -0.2931   -1.1657 H   0  0  0  0  0  0  0  0  0  0  0  0
    1.8606    0.1819   -2.6430 H   0  0  0  0  0  0  0  0  0  0  0  0
    1.8867   -1.5332   -2.0693 H   0  0  0  0  0  0  0  0  0  0  0  0
    4.1416   -1.8073   -3.0959 H   0  0  0  0  0  0  0  0  0  0  0  0
    4.0863   -0.1423   -3.6903 H   0  0  0  0  0  0  0  0  0  0  0  0
    0.7575   -1.3449   -3.7625 H   0  0  0  0  0  0  0  0  0  0  0  0
    0.5880   -3.3350   -5.7046 H   0  0  0  0  0  0  0  0  0  0  0  0
    1.0264   -1.9582   -6.6251 H   0  0  0  0  0  0  0  0  0  0  0  0
    0.9959   -0.6563   -7.9418 H   0  0  0  0  0  0  0  0  0  0  0  0
   -0.1558    1.4990   -4.7629 H   0  0  0  0  0  0  0  0  0  0  0  0
   -2.8406   -3.5098   -8.3036 H   0  0  0  0  0  0  0  0  0  0  0  0
    4.6026   -1.7634   -5.6305 H   0  0  0  0  0  0  0  0  0  0  0  0
    3.3053   -1.1332   -6.6451 H   0  0  0  0  0  0  0  0  0  0  0  0
    3.3164   -2.8525   -6.1698 H   0  0  0  0  0  0  0  0  0  0  0  0
    2.9557   -0.2009    2.0829 H   0  0  0  0  0  0  0  0  0  0  0  0
    2.9563    1.4898    1.5469 H   0  0  0  0  0  0  0  0  0  0  0  0
    5.0136    1.0813    0.2070 H   0  0  0  0  0  0  0  0  0  0  0  0
    5.0130   -0.6402    0.7535 H   0  0  0  0  0  0  0  0  0  0  0  0
    4.9247    1.0370    3.0462 H   0  0  0  0  0  0  0  0  0  0  0  0
    8.2887    2.0081    3.1713 H   0  0  0  0  0  0  0  0  0  0  0  0
    8.2889    0.3156    3.7089 H   0  0  0  0  0  0  0  0  0  0  0  0
    6.0769    0.6462    4.7821 H   0  0  0  0  0  0  0  0  0  0  0  0
    6.0770    2.3570    4.2391 H   0  0  0  0  0  0  0  0  0  0  0  0
    8.4779    1.9123    5.8043 H   0  0  0  0  0  0  0  0  0  0  0  0
    4.7036    1.9728    5.9951 H   0  0  0  0  0  0  0  0  0  0  0  0
    4.8129    3.2789    7.1581 H   0  0  0  0  0  0  0  0  0  0  0  0
    4.8128    1.5768    7.6985 H   0  0  0  0  0  0  0  0  0  0  0  0
    8.4946    2.6091    7.9991 H   0  0  0  0  0  0  0  0  0  0  0  0
    7.1468    1.9735    8.9515 H   0  0  0  0  0  0  0  0  0  0  0  0
    7.1468    3.6775    8.4104 H   0  0  0  0  0  0  0  0  0  0  0  0
    7.0767    0.1046    0.1113 H   0  0  0  0  0  0  0  0  0  0  0  0
    8.3148   -0.4843    1.2084 H   0  0  0  0  0  0  0  0  0  0  0  0
    8.3147    1.2187    0.6678 H   0  0  0  0  0  0  0  0  0  0  0  0
  1  2  1  0  0  0  0
  1 30  1  0  0  0  0
  1 31  1  0  0  0  0
  1 32  1  0  0  0  0
  2  3  2  0  0  0  0
  2 19  1  0  0  0  0
  3  4  1  0  0  0  0
  3 33  1  0  0  0  0
  4  5  1  0  0  0  0
  4 34  1  0  0  0  0
  4 35  1  0  0  0  0
  5  6  1  0  0  0  0
  5 36  1  0  0  0  0
  5 37  1  0  0  0  0
  6  7  2  0  0  0  0
  6 18  1  0  0  0  0
  7  8  1  0  0  0  0
  7 38  1  0  0  0  0
  8  9  1  0  0  0  0
  8 39  1  0  0  0  0
  8 40  1  0  0  0  0
 10  9  1  1  0  0  0
 10 11  2  0  0  0  0
 10 12  1  0  0  0  0
 10 17  1  0  0  0  0
 12 13  1  0  0  0  0
 13 14  2  0  0  0  0
 13 15  1  0  0  0  0
 13 16  1  0  0  0  0
 15 41  1  0  0  0  0
 16 42  1  0  0  0  0
 17 43  1  0  0  0  0
 18 44  1  0  0  0  0
 18 45  1  0  0  0  0
 18 46  1  0  0  0  0
 19 20  1  0  0  0  0
 19 47  1  0  0  0  0
 19 48  1  0  0  0  0
 20 21  1  0  0  0  0
 20 49  1  0  0  0  0
 20 50  1  0  0  0  0
 21 22  2  0  0  0  0
 21 51  1  0  0  0  0
 22 23  1  0  0  0  0
 22 29  1  0  0  0  0
 23 24  1  0  0  0  0
 23 52  1  0  0  0  0
 23 53  1  0  0  0  0
 24 25  1  0  0  0  0
 24 54  1  0  0  0  0
 24 55  1  0  0  0  0
 25 26  2  0  0  0  0
 25 56  1  0  0  0  0
 26 27  1  0  0  0  0
 26 28  1  0  0  0  0
 27 57  1  0  0  0  0
 27 58  1  0  0  0  0
 27 59  1  0  0  0  0
 28 60  1  0  0  0  0
 28 61  1  0  0  0  0
 28 62  1  0  0  0  0
 29 63  1  0  0  0  0
 29 64  1  0  0  0  0
 29 65  1  0  0  0  0
M  END
$$$$
