GRL
 OpenBabel04121316123D

 79 82  0  0  1  0  0  0  0  0999 V2000
    5.8331   -0.9712   -7.3317 O   0  0  0  0  0  0  0  0  0  0  0  0
    6.3105   -1.3999   -6.0678 C   0  0  0  0  0  0  0  0  0  0  0  0
    5.2586   -2.2009   -5.3854 C   0  0  0  0  0  0  0  0  0  0  0  0
    4.8106   -3.4960   -5.6476 C   0  0  0  0  0  0  0  0  0  0  0  0
    3.5357   -3.9652   -5.2379 C   0  0  0  0  0  0  0  0  0  0  0  0
    2.7900   -3.1900   -4.4151 C   0  0  0  0  0  0  0  0  0  0  0  0
    3.6244   -2.3132   -3.7146 C   0  0  0  0  0  0  0  0  0  0  0  0
    4.7587   -1.6955   -4.2465 C   0  0  0  0  0  0  0  0  0  0  0  0
    0.8956   -3.4910   -4.4083 S   0  0  0  0  0  0  0  0  0  0  0  0
    0.4895   -3.6259   -5.7917 O   0  0  0  0  0  0  0  0  0  0  0  0
    0.8091   -4.6701   -3.5762 O   0  0  0  0  0  0  0  0  0  0  0  0
   -0.1180   -2.1219   -3.8229 N   0  0  0  0  0  0  0  0  0  0  0  0
   -0.2295   -0.8881   -4.6061 C   0  0  0  0  0  0  0  0  0  0  0  0
    0.8595    0.0193   -5.0099 C   0  0  2  0  0  0  0  0  0  0  0  0
    1.0696   -0.1462   -6.0735 H   0  0  0  0  0  0  0  0  0  0  0  0
    2.0463   -0.2951   -4.1535 C   0  0  2  0  0  0  0  0  0  0  0  0
    2.1308   -1.2364   -4.6344 H   0  0  0  0  0  0  0  0  0  0  0  0
    1.9371   -0.4876   -2.3628 C   0  0  0  0  0  0  0  0  0  0  0  0
    1.1214   -1.5747   -1.5560 C   0  0  0  0  0  0  0  0  0  0  0  0
    1.3104   -2.9732   -1.4121 C   0  0  0  0  0  0  0  0  0  0  0  0
    0.2074   -3.8484   -1.1335 C   0  0  0  0  0  0  0  0  0  0  0  0
   -0.9885   -3.3414   -0.7024 C   0  0  0  0  0  0  0  0  0  0  0  0
   -1.0198   -1.9873   -0.4304 C   0  0  0  0  0  0  0  0  0  0  0  0
   -0.0381   -1.1134   -0.9789 C   0  0  0  0  0  0  0  0  0  0  0  0
    3.2423    0.3632   -4.7150 N   0  0  0  0  0  0  0  0  0  0  0  0
    3.4595    1.6077   -4.2889 C   0  0  0  0  0  0  0  0  0  0  0  0
    2.5074    2.1551   -3.8750 O   0  0  0  0  0  0  0  0  0  0  0  0
    4.7143    2.0934   -4.4164 O   0  0  0  0  0  0  0  0  0  0  0  0
    4.8139    3.4497   -3.9187 C   0  0  1  0  0  0  0  0  0  0  0  0
    5.7241    3.8330   -4.3898 H   0  0  0  0  0  0  0  0  0  0  0  0
    3.6228    4.3566   -4.3005 C   0  0  0  0  0  0  0  0  0  0  0  0
    3.0397    4.8737   -2.9694 C   0  0  2  0  0  0  0  0  0  0  0  0
    3.2718    5.9401   -2.8898 H   0  0  0  0  0  0  0  0  0  0  0  0
    3.6401    4.0609   -1.8261 C   0  0  2  0  0  0  0  0  0  0  0  0
    3.7497    4.6432   -0.9060 H   0  0  0  0  0  0  0  0  0  0  0  0
    4.9647    3.5273   -2.3799 C   0  0  0  0  0  0  0  0  0  0  0  0
    2.6290    2.9785   -1.5346 C   0  0  0  0  0  0  0  0  0  0  0  0
    1.3232    3.5256   -2.1074 C   0  0  0  0  0  0  0  0  0  0  0  0
    1.6216    4.6994   -2.8933 O   0  0  0  0  0  0  0  0  0  0  0  0
    0.4572    1.3763   -4.9029 O   0  0  0  0  0  0  0  0  0  0  0  0
   -1.6450   -2.3469   -3.4289 C   0  0  0  0  0  0  0  0  0  0  0  0
   -2.4722   -1.1082   -2.6482 C   0  0  0  0  0  0  0  0  0  0  0  0
   -2.7063    0.1985   -3.4010 C   0  0  0  0  0  0  0  0  0  0  0  0
   -3.7741   -1.6297   -2.0184 C   0  0  0  0  0  0  0  0  0  0  0  0
    6.5946   -0.5684   -7.7837 H   0  0  0  0  0  0  0  0  0  0  0  0
    6.5560   -0.4799   -5.5111 H   0  0  0  0  0  0  0  0  0  0  0  0
    7.2012   -2.0127   -6.1480 H   0  0  0  0  0  0  0  0  0  0  0  0
    5.5150   -4.2016   -6.0527 H   0  0  0  0  0  0  0  0  0  0  0  0
    3.1526   -4.9562   -5.4335 H   0  0  0  0  0  0  0  0  0  0  0  0
    3.3821   -1.7914   -2.8510 H   0  0  0  0  0  0  0  0  0  0  0  0
    5.1021   -0.7199   -3.8742 H   0  0  0  0  0  0  0  0  0  0  0  0
   -0.5635   -0.2619   -3.8042 H   0  0  0  0  0  0  0  0  0  0  0  0
   -0.9633   -1.0076   -5.3984 H   0  0  0  0  0  0  0  0  0  0  0  0
    1.7197    0.5015   -1.9683 H   0  0  0  0  0  0  0  0  0  0  0  0
    2.9092   -0.5953   -1.8437 H   0  0  0  0  0  0  0  0  0  0  0  0
    2.2108   -3.4732   -1.7491 H   0  0  0  0  0  0  0  0  0  0  0  0
    0.1725   -4.8823   -1.5020 H   0  0  0  0  0  0  0  0  0  0  0  0
   -1.9143   -3.9141   -0.8573 H   0  0  0  0  0  0  0  0  0  0  0  0
   -1.9814   -1.5815   -0.1309 H   0  0  0  0  0  0  0  0  0  0  0  0
   -0.2851   -0.0809   -1.2448 H   0  0  0  0  0  0  0  0  0  0  0  0
    3.7261    0.0513   -5.5538 H   0  0  0  0  0  0  0  0  0  0  0  0
    2.8641    3.8851   -4.9376 H   0  0  0  0  0  0  0  0  0  0  0  0
    3.9743    5.1763   -4.9300 H   0  0  0  0  0  0  0  0  0  0  0  0
    5.2319    2.5624   -1.9349 H   0  0  0  0  0  0  0  0  0  0  0  0
    5.7554    4.2435   -2.1298 H   0  0  0  0  0  0  0  0  0  0  0  0
    2.5070    2.6210   -0.5123 H   0  0  0  0  0  0  0  0  0  0  0  0
    3.0360    2.0664   -1.9616 H   0  0  0  0  0  0  0  0  0  0  0  0
    0.6517    3.8111   -1.2984 H   0  0  0  0  0  0  0  0  0  0  0  0
    0.7481    2.8212   -2.7224 H   0  0  0  0  0  0  0  0  0  0  0  0
    1.2917    1.8760   -4.7641 H   0  0  0  0  0  0  0  0  0  0  0  0
   -1.7081   -3.2829   -2.8908 H   0  0  0  0  0  0  0  0  0  0  0  0
   -2.2063   -2.5383   -4.3425 H   0  0  0  0  0  0  0  0  0  0  0  0
   -2.0095   -0.6199   -1.8071 H   0  0  0  0  0  0  0  0  0  0  0  0
   -3.0558   -0.0386   -4.3956 H   0  0  0  0  0  0  0  0  0  0  0  0
   -1.8148    0.8380   -3.4451 H   0  0  0  0  0  0  0  0  0  0  0  0
   -3.3720    0.8638   -2.8441 H   0  0  0  0  0  0  0  0  0  0  0  0
   -4.4189   -2.0193   -2.7973 H   0  0  0  0  0  0  0  0  0  0  0  0
   -4.2819   -0.8291   -1.4602 H   0  0  0  0  0  0  0  0  0  0  0  0
   -3.6187   -2.4258   -1.2804 H   0  0  0  0  0  0  0  0  0  0  0  0
  1  2  1  0  0  0  0
  1 45  1  0  0  0  0
  2  3  1  0  0  0  0
  2 46  1  0  0  0  0
  2 47  1  0  0  0  0
  3  4  2  0  0  0  0
  3  8  1  0  0  0  0
  4  5  1  0  0  0  0
  4 48  1  0  0  0  0
  5  6  2  0  0  0  0
  5 49  1  0  0  0  0
  6  7  1  0  0  0  0
  6  9  1  0  0  0  0
  7  8  2  0  0  0  0
  7 50  1  0  0  0  0
  8 51  1  0  0  0  0
  9 10  2  0  0  0  0
  9 11  2  0  0  0  0
  9 12  1  0  0  0  0
 12 13  1  0  0  0  0
 12 41  1  0  0  0  0
 13 52  1  0  0  0  0
 13 53  1  0  0  0  0
 14 40  1  0  0  0  0
 14 15  1  6  0  0  0
 14 13  1  0  0  0  0
 16 18  1  0  0  0  0
 16 25  1  0  0  0  0
 16 17  1  6  0  0  0
 16 14  1  0  0  0  0
 18 19  1  0  0  0  0
 18 54  1  0  0  0  0
 18 55  1  0  0  0  0
 19 20  2  0  0  0  0
 19 24  1  0  0  0  0
 20 21  1  0  0  0  0
 20 56  1  0  0  0  0
 21 22  2  0  0  0  0
 21 57  1  0  0  0  0
 22 23  1  0  0  0  0
 22 58  1  0  0  0  0
 23 24  2  0  0  0  0
 23 59  1  0  0  0  0
 24 60  1  0  0  0  0
 25 26  1  0  0  0  0
 25 61  1  0  0  0  0
 26 27  2  0  0  0  0
 26 28  1  0  0  0  0
 28 29  1  0  0  0  0
 29 30  1  6  0  0  0
 29 31  1  0  0  0  0
 29 36  1  0  0  0  0
 31 32  1  0  0  0  0
 31 62  1  0  0  0  0
 31 63  1  0  0  0  0
 32 33  1  1  0  0  0
 32 34  1  0  0  0  0
 32 39  1  0  0  0  0
 34 35  1  1  0  0  0
 34 36  1  0  0  0  0
 34 37  1  0  0  0  0
 36 64  1  0  0  0  0
 36 65  1  0  0  0  0
 37 38  1  0  0  0  0
 37 66  1  0  0  0  0
 37 67  1  0  0  0  0
 38 39  1  0  0  0  0
 38 68  1  0  0  0  0
 38 69  1  0  0  0  0
 40 70  1  0  0  0  0
 41 42  1  0  0  0  0
 41 71  1  0  0  0  0
 41 72  1  0  0  0  0
 42 43  1  0  0  0  0
 42 44  1  0  0  0  0
 42 73  1  0  0  0  0
 43 74  1  0  0  0  0
 43 75  1  0  0  0  0
 43 76  1  0  0  0  0
 44 77  1  0  0  0  0
 44 78  1  0  0  0  0
 44 79  1  0  0  0  0
M  END
$$$$
