GS3
 OpenBabel04121316123D

 69 73  0  0  0  0  0  0  0  0999 V2000
    0.7459    0.0339    0.0706 C   0  0  0  0  0  0  0  0  0  0  0  0
    2.1358    0.1920   -0.0767 O   0  0  0  0  0  0  0  0  0  0  0  0
    2.7990    0.9189    0.8507 C   0  0  0  0  0  0  0  0  0  0  0  0
    2.4594    2.2626    0.8236 C   0  0  0  0  0  0  0  0  0  0  0  0
    3.2247    3.1829    1.4866 C   0  0  0  0  0  0  0  0  0  0  0  0
    4.2575    2.7188    2.3040 C   0  0  0  0  0  0  0  0  0  0  0  0
    4.5709    1.3471    2.3860 C   0  0  0  0  0  0  0  0  0  0  0  0
    3.8949    0.4053    1.5855 C   0  0  0  0  0  0  0  0  0  0  0  0
    4.2766   -0.9708    1.6181 N   0  0  0  0  0  0  0  0  0  0  0  0
    3.8557   -2.0571    0.8136 C   0  0  0  0  0  0  0  0  0  0  0  0
    3.1485   -1.7807   -0.2809 N   0  0  0  0  0  0  0  0  0  0  0  0
    2.7362   -2.6419   -1.2211 C   0  0  0  0  0  0  0  0  0  0  0  0
    2.3049   -2.1687   -2.4753 N   0  0  0  0  0  0  0  0  0  0  0  0
    2.3319   -0.8286   -2.9447 C   0  0  0  0  0  0  0  0  0  0  0  0
    1.1306   -0.3504   -3.5187 C   0  0  0  0  0  0  0  0  0  0  0  0
    0.8770    1.0195   -3.6038 C   0  0  0  0  0  0  0  0  0  0  0  0
    1.9061    1.9193   -3.3683 C   0  0  0  0  0  0  0  0  0  0  0  0
    3.1580    1.4520   -2.9751 C   0  0  0  0  0  0  0  0  0  0  0  0
    3.3859    0.0958   -2.7036 C   0  0  0  0  0  0  0  0  0  0  0  0
    4.7184   -0.2481   -2.1166 C   0  0  0  0  0  0  0  0  0  0  0  0
    5.4393    0.5855   -1.5487 O   0  0  0  0  0  0  0  0  0  0  0  0
    5.1648   -1.5407   -2.1795 N   0  0  0  0  0  0  0  0  0  0  0  0
    4.1345    2.3641   -2.8568 F   0  0  0  0  0  0  0  0  0  0  0  0
    3.0486   -3.9594   -0.9818 C   0  0  0  0  0  0  0  0  0  0  0  0
    3.7776   -4.2083    0.1748 C   0  0  0  0  0  0  0  0  0  0  0  0
    4.2316   -3.3143    1.0871 N   0  0  0  0  0  0  0  0  0  0  0  0
    3.9848   -5.5621    0.1953 N   0  0  0  0  0  0  0  0  0  0  0  0
    4.3857   -6.0564    0.9773 H   0  0  0  0  0  0  0  0  0  0  0  0
    3.6568   -6.0983   -1.0303 C   0  0  0  0  0  0  0  0  0  0  0  0
    2.9586   -5.1482   -1.7345 C   0  0  0  0  0  0  0  0  0  0  0  0
    2.9907    4.5239    1.3456 N   0  0  0  0  0  0  0  0  0  0  0  0
    2.2891    5.1691    2.4481 C   0  0  0  0  0  0  0  0  0  0  0  0
    2.7966    6.6209    2.4888 C   0  0  0  0  0  0  0  0  0  0  0  0
    2.5441    7.3652    1.2158 N   0  0  0  0  0  0  0  0  0  0  0  0
    3.2429    6.6031    0.1268 C   0  0  0  0  0  0  0  0  0  0  0  0
    2.7852    5.1258    0.0181 C   0  0  0  0  0  0  0  0  0  0  0  0
    1.0896    7.4843    0.9435 C   0  0  0  0  0  0  0  0  0  0  0  0
    0.3446    8.1600    2.1018 C   0  0  0  0  0  0  0  0  0  0  0  0
    0.8352    8.2758   -0.3406 C   0  0  0  0  0  0  0  0  0  0  0  0
    0.4513   -0.7878   -0.5892 H   0  0  0  0  0  0  0  0  0  0  0  0
    0.2374    0.9303   -0.2825 H   0  0  0  0  0  0  0  0  0  0  0  0
    0.4712   -0.2375    1.0904 H   0  0  0  0  0  0  0  0  0  0  0  0
    1.6219    2.5875    0.2198 H   0  0  0  0  0  0  0  0  0  0  0  0
    4.8514    3.4525    2.8466 H   0  0  0  0  0  0  0  0  0  0  0  0
    5.3715    1.0601    3.0627 H   0  0  0  0  0  0  0  0  0  0  0  0
    5.1373   -1.1817    2.1030 H   0  0  0  0  0  0  0  0  0  0  0  0
    2.0304   -2.8649   -3.1527 H   0  0  0  0  0  0  0  0  0  0  0  0
    0.3401   -1.0398   -3.8075 H   0  0  0  0  0  0  0  0  0  0  0  0
   -0.1247    1.3823   -3.8226 H   0  0  0  0  0  0  0  0  0  0  0  0
    1.7546    2.9867   -3.4929 H   0  0  0  0  0  0  0  0  0  0  0  0
    4.4902   -2.2304   -2.4732 H   0  0  0  0  0  0  0  0  0  0  0  0
    5.6248   -1.7965   -1.3104 H   0  0  0  0  0  0  0  0  0  0  0  0
    3.9307   -7.1091   -1.2937 H   0  0  0  0  0  0  0  0  0  0  0  0
    2.5172   -5.2480   -2.7181 H   0  0  0  0  0  0  0  0  0  0  0  0
    2.4867    4.6799    3.4076 H   0  0  0  0  0  0  0  0  0  0  0  0
    1.2019    5.1170    2.2973 H   0  0  0  0  0  0  0  0  0  0  0  0
    3.8805    6.6015    2.6713 H   0  0  0  0  0  0  0  0  0  0  0  0
    2.3812    7.1435    3.3532 H   0  0  0  0  0  0  0  0  0  0  0  0
    4.3216    6.6132    0.3401 H   0  0  0  0  0  0  0  0  0  0  0  0
    3.1565    7.1103   -0.8387 H   0  0  0  0  0  0  0  0  0  0  0  0
    3.3730    4.6211   -0.7589 H   0  0  0  0  0  0  0  0  0  0  0  0
    1.7342    5.0660   -0.2980 H   0  0  0  0  0  0  0  0  0  0  0  0
    0.6230    6.5033    0.8045 H   0  0  0  0  0  0  0  0  0  0  0  0
    0.7454    9.1593    2.2964 H   0  0  0  0  0  0  0  0  0  0  0  0
    0.4014    7.5790    3.0281 H   0  0  0  0  0  0  0  0  0  0  0  0
   -0.7212    8.2460    1.8711 H   0  0  0  0  0  0  0  0  0  0  0  0
    1.2577    9.2823   -0.2686 H   0  0  0  0  0  0  0  0  0  0  0  0
   -0.2391    8.3557   -0.5301 H   0  0  0  0  0  0  0  0  0  0  0  0
    1.2607    7.7835   -1.2200 H   0  0  0  0  0  0  0  0  0  0  0  0
  1  2  1  0  0  0  0
  1 40  1  0  0  0  0
  1 41  1  0  0  0  0
  1 42  1  0  0  0  0
  2  3  1  0  0  0  0
  3  4  2  0  0  0  0
  3  8  1  0  0  0  0
  4  5  1  0  0  0  0
  4 43  1  0  0  0  0
  5  6  2  0  0  0  0
  5 31  1  0  0  0  0
  6  7  1  0  0  0  0
  6 44  1  0  0  0  0
  7  8  2  0  0  0  0
  7 45  1  0  0  0  0
  8  9  1  0  0  0  0
  9 10  1  0  0  0  0
  9 46  1  0  0  0  0
 10 11  2  0  0  0  0
 10 26  1  0  0  0  0
 11 12  1  0  0  0  0
 12 13  1  0  0  0  0
 12 24  2  0  0  0  0
 13 14  1  0  0  0  0
 13 47  1  0  0  0  0
 14 15  2  0  0  0  0
 14 19  1  0  0  0  0
 15 16  1  0  0  0  0
 15 48  1  0  0  0  0
 16 17  2  0  0  0  0
 16 49  1  0  0  0  0
 17 18  1  0  0  0  0
 17 50  1  0  0  0  0
 18 19  2  0  0  0  0
 18 23  1  0  0  0  0
 19 20  1  0  0  0  0
 20 21  2  0  0  0  0
 20 22  1  0  0  0  0
 22 51  1  0  0  0  0
 22 52  1  0  0  0  0
 24 25  1  0  0  0  0
 24 30  1  0  0  0  0
 25 26  2  0  0  0  0
 25 27  1  0  0  0  0
 27 28  1  0  0  0  0
 27 29  1  0  0  0  0
 29 30  2  0  0  0  0
 29 53  1  0  0  0  0
 30 54  1  0  0  0  0
 31 32  1  0  0  0  0
 31 36  1  0  0  0  0
 32 33  1  0  0  0  0
 32 55  1  0  0  0  0
 32 56  1  0  0  0  0
 33 34  1  0  0  0  0
 33 57  1  0  0  0  0
 33 58  1  0  0  0  0
 34 35  1  0  0  0  0
 34 37  1  0  0  0  0
 35 36  1  0  0  0  0
 35 59  1  0  0  0  0
 35 60  1  0  0  0  0
 36 61  1  0  0  0  0
 36 62  1  0  0  0  0
 37 38  1  0  0  0  0
 37 39  1  0  0  0  0
 37 63  1  0  0  0  0
 38 64  1  0  0  0  0
 38 65  1  0  0  0  0
 38 66  1  0  0  0  0
 39 67  1  0  0  0  0
 39 68  1  0  0  0  0
 39 69  1  0  0  0  0
M  END
$$$$
