GSP
 OpenBabel04121316123D

 48 50  0  0  1  0  0  0  0  0999 V2000
    2.8169    0.1596   -1.4449 O   0  0  0  0  0  0  0  0  0  0  0  0
    2.3477   -0.0617   -0.1175 C   0  0  2  0  0  0  0  0  0  0  0  0
    1.2534   -0.0511   -0.1494 H   0  0  0  0  0  0  0  0  0  0  0  0
    2.9088    1.0067    0.7967 C   0  0  1  0  0  0  0  0  0  0  0  0
    3.0690    1.9517    0.2645 H   0  0  0  0  0  0  0  0  0  0  0  0
    2.0544    1.2507    2.0219 C   0  0  0  0  0  0  0  0  0  0  0  0
    0.7524    1.7480    1.7109 O   0  0  0  0  0  0  0  0  0  0  0  0
   -0.2122    1.9658    3.1305 P   0  0  1  0  0  0  0  0  0  0  0  0
    0.9820    2.3537    4.0032 O   0  0  0  0  0  0  0  0  0  0  0  0
   -0.8341    3.4438    2.4812 O   0  0  0  0  0  0  0  0  0  0  0  0
   -0.1320    3.7312    0.9264 P   0  0  1  0  0  0  0  0  0  0  0  0
   -0.3156    2.3194    0.2513 O   0  0  0  0  0  0  0  0  0  0  0  0
   -1.7120    3.7949    0.2247 O   0  0  0  0  0  0  0  0  0  0  0  0
   -2.9006    3.5452    1.4567 P   0  0  0  0  0  0  0  0  0  0  0  0
   -4.2759    2.9850    0.1031 S   0  0  0  0  0  0  0  0  0  0  0  0
   -2.3701    1.9939    1.7795 O   0  0  0  0  0  0  0  0  0  0  0  0
   -4.0892    3.2955    2.6887 O   0  0  0  0  0  0  0  0  0  0  0  0
    0.5701    4.0185   -0.6284 O   0  0  0  0  0  0  0  0  0  0  0  0
   -1.1767    2.1836    4.5501 O   0  0  0  0  0  0  0  0  0  0  0  0
    4.1873    0.5067    1.2472 O   0  0  0  0  0  0  0  0  0  0  0  0
    4.0683   -0.9331    1.3841 C   0  0  2  0  0  0  0  0  0  0  0  0
    5.0103   -1.3718    1.0345 H   0  0  0  0  0  0  0  0  0  0  0  0
    2.8714   -1.3492    0.5118 C   0  0  2  0  0  0  0  0  0  0  0  0
    2.0394   -1.7476    1.0869 H   0  0  0  0  0  0  0  0  0  0  0  0
    3.2522   -2.3310   -0.4473 O   0  0  0  0  0  0  0  0  0  0  0  0
    3.9805   -1.2776    2.8018 N   0  0  0  0  0  0  0  0  0  0  0  0
    4.7318   -0.6827    3.7926 C   0  0  0  0  0  0  0  0  0  0  0  0
    4.4500   -1.1578    4.9885 N   0  0  0  0  0  0  0  0  0  0  0  0
    3.4958   -2.1112    4.7602 C   0  0  0  0  0  0  0  0  0  0  0  0
    3.1986   -2.2235    3.4231 C   0  0  0  0  0  0  0  0  0  0  0  0
    2.2958   -3.0630    2.8513 N   0  0  0  0  0  0  0  0  0  0  0  0
    1.6398   -3.8091    3.7011 C   0  0  0  0  0  0  0  0  0  0  0  0
    0.6812   -4.6613    3.2715 N   0  0  0  0  0  0  0  0  0  0  0  0
    1.8578   -3.7810    5.0590 N   0  0  0  0  0  0  0  0  0  0  0  0
    1.3420   -4.3873    5.6733 H   0  0  0  0  0  0  0  0  0  0  0  0
    2.7894   -2.9647    5.7045 C   0  0  0  0  0  0  0  0  0  0  0  0
    2.9461   -2.9938    6.8994 O   0  0  0  0  0  0  0  0  0  0  0  0
    3.7686   -0.0348   -1.4647 H   0  0  0  0  0  0  0  0  0  0  0  0
    2.6089    1.9862    2.6177 H   0  0  0  0  0  0  0  0  0  0  0  0
    1.9348    0.3524    2.6322 H   0  0  0  0  0  0  0  0  0  0  0  0
   -1.7192    1.7865    1.0629 H   0  0  0  0  0  0  0  0  0  0  0  0
   -4.8831    2.9531    2.2264 H   0  0  0  0  0  0  0  0  0  0  0  0
    1.4009    3.5180   -0.7099 H   0  0  0  0  0  0  0  0  0  0  0  0
   -1.1040    1.3985    5.1200 H   0  0  0  0  0  0  0  0  0  0  0  0
    3.4933   -3.1321    0.0552 H   0  0  0  0  0  0  0  0  0  0  0  0
    5.4562    0.0964    3.5847 H   0  0  0  0  0  0  0  0  0  0  0  0
    0.4879   -4.7225    2.2789 H   0  0  0  0  0  0  0  0  0  0  0  0
    0.1777   -5.2907    3.8796 H   0  0  0  0  0  0  0  0  0  0  0  0
  1 38  1  0  0  0  0
  2  4  1  0  0  0  0
  2 23  1  0  0  0  0
  2  3  1  1  0  0  0
  2  1  1  0  0  0  0
  4  5  1  6  0  0  0
  4  6  1  0  0  0  0
  4 20  1  0  0  0  0
  6  7  1  0  0  0  0
  6 39  1  0  0  0  0
  6 40  1  0  0  0  0
  8  7  1  6  0  0  0
  8  9  2  0  0  0  0
  8 10  1  0  0  0  0
  8 19  1  0  0  0  0
 11 10  1  1  0  0  0
 11 12  2  0  0  0  0
 11 13  1  0  0  0  0
 11 18  1  0  0  0  0
 13 14  1  0  0  0  0
 14 15  2  0  0  0  0
 14 16  1  0  0  0  0
 14 17  1  0  0  0  0
 16 41  1  0  0  0  0
 17 42  1  0  0  0  0
 18 43  1  0  0  0  0
 19 44  1  0  0  0  0
 20 21  1  0  0  0  0
 21 23  1  0  0  0  0
 21 26  1  0  0  0  0
 21 22  1  6  0  0  0
 23 24  1  1  0  0  0
 23 25  1  0  0  0  0
 25 45  1  0  0  0  0
 26 27  1  0  0  0  0
 26 30  1  0  0  0  0
 27 28  2  0  0  0  0
 27 46  1  0  0  0  0
 28 29  1  0  0  0  0
 29 30  2  0  0  0  0
 29 36  1  0  0  0  0
 30 31  1  0  0  0  0
 31 32  2  0  0  0  0
 32 33  1  0  0  0  0
 32 34  1  0  0  0  0
 33 47  1  0  0  0  0
 33 48  1  0  0  0  0
 34 35  1  0  0  0  0
 34 36  1  0  0  0  0
 36 37  2  0  0  0  0
M  END
$$$$
