GSU
 OpenBabel04121316123D

 53 55  0  0  1  0  0  0  0  0999 V2000
    1.0547    0.1305    0.0729 O   0  0  0  0  0  0  0  0  0  0  0  0
    2.3869    0.0222   -0.0798 C   0  0  0  0  0  0  0  0  0  0  0  0
    2.8789   -0.6387   -0.9823 O   0  0  0  0  0  0  0  0  0  0  0  0
    3.1063    0.7421    1.0118 C   0  0  0  0  0  0  0  0  0  0  0  0
    4.6214    0.6225    0.9004 C   0  0  0  0  0  0  0  0  0  0  0  0
    5.3649    1.3894    2.0013 C   0  0  1  0  0  0  0  0  0  0  0  0
    5.0949    2.4508    1.9885 H   0  0  0  0  0  0  0  0  0  0  0  0
    5.0796    0.8192    3.4281 C   0  0  0  0  0  0  0  0  0  0  0  0
    5.9623    0.2732    4.0824 O   0  0  0  0  0  0  0  0  0  0  0  0
    3.7636    0.9466    3.9376 N   0  0  0  0  0  0  0  0  0  0  0  0
    3.3784    0.2547    5.4022 S   0  0  0  0  0  0  0  0  0  0  0  0
    3.6115   -1.1679    5.2870 O   0  0  0  0  0  0  0  0  0  0  0  0
    4.0030    1.0666    6.4209 O   0  0  0  0  0  0  0  0  0  0  0  0
    1.7617    0.4358    5.5956 O   0  0  0  0  0  0  0  0  0  0  0  0
    1.2645   -0.0918    6.8388 C   0  0  0  0  0  0  0  0  0  0  0  0
   -0.2452    0.1099    7.0649 C   0  0  1  0  0  0  0  0  0  0  0  0
   -0.7889   -0.1362    6.1445 H   0  0  0  0  0  0  0  0  0  0  0  0
   -0.7388   -0.7454    8.1398 O   0  0  0  0  0  0  0  0  0  0  0  0
   -1.9521   -0.1215    8.6296 C   0  0  2  0  0  0  0  0  0  0  0  0
   -2.7813   -0.4350    7.9774 H   0  0  0  0  0  0  0  0  0  0  0  0
   -1.7186    1.3869    8.4988 C   0  0  1  0  0  0  0  0  0  0  0  0
   -1.3384    1.8487    9.4016 H   0  0  0  0  0  0  0  0  0  0  0  0
   -0.5647    1.5318    7.5121 C   0  0  2  0  0  0  0  0  0  0  0  0
    0.2902    1.9516    8.0574 H   0  0  0  0  0  0  0  0  0  0  0  0
   -0.8497    2.4104    6.4384 O   0  0  0  0  0  0  0  0  0  0  0  0
   -2.8916    2.1071    8.1296 O   0  0  0  0  0  0  0  0  0  0  0  0
   -2.2920   -0.6076    9.9664 N   0  0  0  0  0  0  0  0  0  0  0  0
   -2.8958   -1.8158   10.2390 C   0  0  0  0  0  0  0  0  0  0  0  0
   -3.1652   -1.9663   11.5212 N   0  0  0  0  0  0  0  0  0  0  0  0
   -2.7397   -0.7975   12.1143 C   0  0  0  0  0  0  0  0  0  0  0  0
   -2.2303    0.0702   11.1636 C   0  0  0  0  0  0  0  0  0  0  0  0
   -1.7806    1.3130   11.3966 N   0  0  0  0  0  0  0  0  0  0  0  0
   -1.8298    1.6438   12.6958 C   0  0  0  0  0  0  0  0  0  0  0  0
   -2.2725    0.8945   13.7188 N   0  0  0  0  0  0  0  0  0  0  0  0
   -2.7428   -0.3444   13.4479 C   0  0  0  0  0  0  0  0  0  0  0  0
   -3.2108   -1.0987   14.4976 N   0  0  0  0  0  0  0  0  0  0  0  0
    6.8197    1.3026    1.7194 N   0  0  0  0  0  0  0  0  0  0  0  0
    0.6740   -0.4085   -0.6512 H   0  0  0  0  0  0  0  0  0  0  0  0
    2.7561    0.2521    1.9207 H   0  0  0  0  0  0  0  0  0  0  0  0
    2.8088    1.7972    1.0138 H   0  0  0  0  0  0  0  0  0  0  0  0
    4.9293    1.0013   -0.0848 H   0  0  0  0  0  0  0  0  0  0  0  0
    4.9015   -0.4387    0.9258 H   0  0  0  0  0  0  0  0  0  0  0  0
    3.0183    1.4497    3.4766 H   0  0  0  0  0  0  0  0  0  0  0  0
    1.8160    0.3874    7.6572 H   0  0  0  0  0  0  0  0  0  0  0  0
    1.4964   -1.1612    6.8876 H   0  0  0  0  0  0  0  0  0  0  0  0
   -1.2851    3.1850    6.8463 H   0  0  0  0  0  0  0  0  0  0  0  0
   -3.5340    1.9925    8.8572 H   0  0  0  0  0  0  0  0  0  0  0  0
   -3.1231   -2.5475    9.4727 H   0  0  0  0  0  0  0  0  0  0  0  0
   -1.4659    2.6367   12.9458 H   0  0  0  0  0  0  0  0  0  0  0  0
   -3.1243   -0.7263   15.4298 H   0  0  0  0  0  0  0  0  0  0  0  0
   -3.5238   -2.0409   14.3163 H   0  0  0  0  0  0  0  0  0  0  0  0
    7.0414    1.5753    0.7647 H   0  0  0  0  0  0  0  0  0  0  0  0
    7.1192    0.3277    1.8230 H   0  0  0  0  0  0  0  0  0  0  0  0
  1  2  1  0  0  0  0
  1 38  1  0  0  0  0
  2  3  2  0  0  0  0
  2  4  1  0  0  0  0
  4  5  1  0  0  0  0
  4 39  1  0  0  0  0
  4 40  1  0  0  0  0
  5  6  1  0  0  0  0
  5 41  1  0  0  0  0
  5 42  1  0  0  0  0
  6  7  1  6  0  0  0
  6  8  1  0  0  0  0
  6 37  1  0  0  0  0
  8  9  2  0  0  0  0
  8 10  1  0  0  0  0
 10 11  1  0  0  0  0
 10 43  1  0  0  0  0
 11 12  2  0  0  0  0
 11 13  2  0  0  0  0
 11 14  1  0  0  0  0
 14 15  1  0  0  0  0
 15 16  1  0  0  0  0
 15 44  1  0  0  0  0
 15 45  1  0  0  0  0
 16 17  1  6  0  0  0
 16 18  1  0  0  0  0
 16 23  1  0  0  0  0
 18 19  1  0  0  0  0
 19 21  1  0  0  0  0
 19 27  1  0  0  0  0
 19 20  1  6  0  0  0
 21 22  1  1  0  0  0
 21 23  1  0  0  0  0
 21 26  1  0  0  0  0
 23 24  1  1  0  0  0
 23 25  1  0  0  0  0
 25 46  1  0  0  0  0
 26 47  1  0  0  0  0
 27 28  1  0  0  0  0
 27 31  1  0  0  0  0
 28 29  2  0  0  0  0
 28 48  1  0  0  0  0
 29 30  1  0  0  0  0
 30 31  2  0  0  0  0
 30 35  1  0  0  0  0
 31 32  1  0  0  0  0
 32 33  2  0  0  0  0
 33 34  1  0  0  0  0
 33 49  1  0  0  0  0
 34 35  2  0  0  0  0
 35 36  1  0  0  0  0
 36 50  1  0  0  0  0
 36 51  1  0  0  0  0
 37 52  1  0  0  0  0
 37 53  1  0  0  0  0
M  END
$$$$
