GSW
 OpenBabel04121316123D

 37 36  0  0  1  0  0  0  0  0999 V2000
   15.2957   -3.6039    4.1243 S   0  0  0  0  0  0  0  0  0  0  0  0
   14.7283   -1.8817    3.8513 C   0  0  0  0  0  0  0  0  0  0  0  0
   13.2031   -1.7135    3.9717 C   0  0  1  0  0  0  0  0  0  0  0  0
   12.6869   -2.4400    3.3306 H   0  0  0  0  0  0  0  0  0  0  0  0
   12.7340   -1.9122    5.4445 C   0  0  0  0  0  0  0  0  0  0  0  0
   12.2716   -1.0112    6.1447 O   0  0  0  0  0  0  0  0  0  0  0  0
   12.8850   -3.1822    5.9405 N   0  0  0  0  0  0  0  0  0  0  0  0
   12.5442   -3.4966    7.3096 C   0  0  0  0  0  0  0  0  0  0  0  0
   13.0039   -4.9084    7.6431 C   0  0  0  0  0  0  0  0  0  0  0  0
   13.6232   -5.6269    6.8707 O   0  0  0  0  0  0  0  0  0  0  0  0
   12.6820   -5.3058    8.8955 O   0  0  0  0  0  0  0  0  0  0  0  0
   12.7673   -0.3838    3.5250 N   0  0  0  0  0  0  0  0  0  0  0  0
   11.4144   -0.1174    3.4854 C   0  0  0  0  0  0  0  0  0  0  0  0
   10.5652   -0.9787    3.6837 O   0  0  0  0  0  0  0  0  0  0  0  0
   11.0639    1.3156    3.1570 C   0  0  0  0  0  0  0  0  0  0  0  0
    9.5403    1.4882    3.2231 C   0  0  0  0  0  0  0  0  0  0  0  0
    9.0413    2.8745    2.8271 C   0  0  2  0  0  0  0  0  0  0  0  0
    7.9450    2.8828    2.8048 H   0  0  0  0  0  0  0  0  0  0  0  0
    9.5472    3.2758    1.4314 C   0  0  0  0  0  0  0  0  0  0  0  0
   10.2538    4.2613    1.2249 O   0  0  0  0  0  0  0  0  0  0  0  0
    9.1738    2.4495    0.4311 O   0  0  0  0  0  0  0  0  0  0  0  0
    9.4724    3.8652    3.8372 N   0  0  0  0  0  0  0  0  0  0  0  0
   16.6139   -3.3752    4.2050 H   0  0  0  0  0  0  0  0  0  0  0  0
   15.0604   -1.6062    2.8449 H   0  0  0  0  0  0  0  0  0  0  0  0
   15.2396   -1.2155    4.5562 H   0  0  0  0  0  0  0  0  0  0  0  0
   13.4482   -3.8644    5.4293 H   0  0  0  0  0  0  0  0  0  0  0  0
   11.4582   -3.4180    7.4066 H   0  0  0  0  0  0  0  0  0  0  0  0
   13.0416   -2.7789    7.9691 H   0  0  0  0  0  0  0  0  0  0  0  0
   12.1894   -4.6445    9.4178 H   0  0  0  0  0  0  0  0  0  0  0  0
   13.4366    0.3580    3.3644 H   0  0  0  0  0  0  0  0  0  0  0  0
   11.4361    1.5267    2.1490 H   0  0  0  0  0  0  0  0  0  0  0  0
   11.5676    1.9868    3.8617 H   0  0  0  0  0  0  0  0  0  0  0  0
    9.1916    1.2509    4.2385 H   0  0  0  0  0  0  0  0  0  0  0  0
    9.0703    0.7408    2.5710 H   0  0  0  0  0  0  0  0  0  0  0  0
    8.6122    1.6948    0.6952 H   0  0  0  0  0  0  0  0  0  0  0  0
    9.1694    4.7905    3.5226 H   0  0  0  0  0  0  0  0  0  0  0  0
   10.4920    3.9345    3.8090 H   0  0  0  0  0  0  0  0  0  0  0  0
  1  2  1  0  0  0  0
  1 23  1  0  0  0  0
  2  3  1  0  0  0  0
  2 24  1  0  0  0  0
  2 25  1  0  0  0  0
  3  4  1  6  0  0  0
  3  5  1  0  0  0  0
  3 12  1  0  0  0  0
  5  6  2  0  0  0  0
  5  7  1  0  0  0  0
  7  8  1  0  0  0  0
  7 26  1  0  0  0  0
  8  9  1  0  0  0  0
  8 27  1  0  0  0  0
  8 28  1  0  0  0  0
  9 10  2  0  0  0  0
  9 11  1  0  0  0  0
 11 29  1  0  0  0  0
 12 13  1  0  0  0  0
 12 30  1  0  0  0  0
 13 14  2  0  0  0  0
 13 15  1  0  0  0  0
 15 16  1  0  0  0  0
 15 31  1  0  0  0  0
 15 32  1  0  0  0  0
 16 33  1  0  0  0  0
 16 34  1  0  0  0  0
 17 19  1  0  0  0  0
 17 22  1  0  0  0  0
 17 18  1  6  0  0  0
 17 16  1  0  0  0  0
 19 20  2  0  0  0  0
 19 21  1  0  0  0  0
 21 35  1  0  0  0  0
 22 36  1  0  0  0  0
 22 37  1  0  0  0  0
M  END
$$$$
