GSX
 OpenBabel04121316123D

 53 56  0  0  1  0  0  0  0  0999 V2000
    4.8088   -2.9915   -2.1191 O   0  0  0  0  0  0  0  0  0  0  0  0
    3.9960   -3.8372   -1.7866 C   0  0  0  0  0  0  0  0  0  0  0  0
    3.7961   -5.1874   -2.4884 C   0  0  2  0  0  0  0  0  0  0  0  0
    4.3540   -5.1719   -3.4285 H   0  0  0  0  0  0  0  0  0  0  0  0
    2.3076   -5.0732   -2.6874 C   0  0  0  0  0  0  0  0  0  0  0  0
    1.8114   -4.3490   -1.4359 C   0  0  0  0  0  0  0  0  0  0  0  0
    2.9508   -3.6459   -0.8953 N   0  0  0  0  0  0  0  0  0  0  0  0
    2.8593   -2.6633    0.2426 C   0  0  2  0  0  0  0  0  0  0  0  0
    3.1185   -1.6521   -0.0916 H   0  0  0  0  0  0  0  0  0  0  0  0
    3.8397   -3.0590    1.4136 C   0  0  0  0  0  0  0  0  0  0  0  0
    3.4178   -3.5666    2.4575 O   0  0  0  0  0  0  0  0  0  0  0  0
    5.2009   -2.9299    1.1746 N   0  0  0  0  0  0  0  0  0  0  0  0
    6.0817   -4.0786    1.2188 C   0  0  0  0  0  0  0  0  0  0  0  0
    7.0633   -3.9672   -0.0132 C   0  0  0  0  0  0  0  0  0  0  0  0
    7.7897   -2.7558   -0.1146 O   0  0  0  0  0  0  0  0  0  0  0  0
    6.8276   -1.6993   -0.2407 C   0  0  0  0  0  0  0  0  0  0  0  0
    5.9401   -1.6897    1.0070 C   0  0  0  0  0  0  0  0  0  0  0  0
    1.4198   -2.6675    0.8122 C   0  0  0  0  0  0  0  0  0  0  0  0
    4.0505   -6.5101   -1.8430 N   0  0  0  0  0  0  0  0  0  0  0  0
    5.6478   -6.7481   -1.5479 S   0  0  0  0  0  0  0  0  0  0  0  0
    6.4316   -6.8638   -2.7605 O   0  0  0  0  0  0  0  0  0  0  0  0
    5.8093   -5.6770   -0.6658 O   0  0  0  0  0  0  0  0  0  0  0  0
    6.0862   -8.0157   -0.4677 C   0  0  0  0  0  0  0  0  0  0  0  0
    6.8947   -9.1156   -0.5446 C   0  0  0  0  0  0  0  0  0  0  0  0
    7.0031   -9.7674    0.7173 C   0  0  0  0  0  0  0  0  0  0  0  0
    6.4075   -9.0417    1.7295 C   0  0  0  0  0  0  0  0  0  0  0  0
    5.5718   -7.7181    1.1179 S   0  0  0  0  0  0  0  0  0  0  0  0
    6.3672   -9.2838    3.1336 C   0  0  0  0  0  0  0  0  0  0  0  0
    6.6168  -10.4744    3.7765 C   0  0  0  0  0  0  0  0  0  0  0  0
    6.5404  -10.3246    5.1928 C   0  0  0  0  0  0  0  0  0  0  0  0
    6.2022   -9.0445    5.5486 C   0  0  0  0  0  0  0  0  0  0  0  0
    5.9714   -8.0267    4.2431 S   0  0  0  0  0  0  0  0  0  0  0  0
    6.0112   -8.3776    7.1123 Cl  0  0  0  0  0  0  0  0  0  0  0  0
    1.8212   -6.0410   -2.8136 H   0  0  0  0  0  0  0  0  0  0  0  0
    2.1332   -4.4683   -3.5839 H   0  0  0  0  0  0  0  0  0  0  0  0
    1.4378   -5.0406   -0.6822 H   0  0  0  0  0  0  0  0  0  0  0  0
    1.0318   -3.6366   -1.7300 H   0  0  0  0  0  0  0  0  0  0  0  0
    5.4200   -4.9511    1.2740 H   0  0  0  0  0  0  0  0  0  0  0  0
    6.6734   -4.1180    2.1358 H   0  0  0  0  0  0  0  0  0  0  0  0
    6.4966   -3.9290   -0.9481 H   0  0  0  0  0  0  0  0  0  0  0  0
    7.7533   -4.8196   -0.0567 H   0  0  0  0  0  0  0  0  0  0  0  0
    6.2316   -1.7789   -1.1505 H   0  0  0  0  0  0  0  0  0  0  0  0
    7.4135   -0.7943   -0.3538 H   0  0  0  0  0  0  0  0  0  0  0  0
    5.2666   -0.8420    1.0345 H   0  0  0  0  0  0  0  0  0  0  0  0
    6.6255   -1.6672    1.8649 H   0  0  0  0  0  0  0  0  0  0  0  0
    1.3093   -2.0283    1.6930 H   0  0  0  0  0  0  0  0  0  0  0  0
    1.1261   -3.6812    1.1204 H   0  0  0  0  0  0  0  0  0  0  0  0
    0.6919   -2.3348    0.0638 H   0  0  0  0  0  0  0  0  0  0  0  0
    3.5367   -7.3281   -2.1288 H   0  0  0  0  0  0  0  0  0  0  0  0
    7.3559   -9.4053   -1.4777 H   0  0  0  0  0  0  0  0  0  0  0  0
    7.5261  -10.6984    0.8750 H   0  0  0  0  0  0  0  0  0  0  0  0
    6.8597  -11.3899    3.2485 H   0  0  0  0  0  0  0  0  0  0  0  0
    6.7361  -11.1162    5.8982 H   0  0  0  0  0  0  0  0  0  0  0  0
  1  2  2  0  0  0  0
  2  3  1  0  0  0  0
  2  7  1  0  0  0  0
  3  4  1  6  0  0  0
  3  5  1  0  0  0  0
  3 19  1  0  0  0  0
  5  6  1  0  0  0  0
  5 34  1  0  0  0  0
  5 35  1  0  0  0  0
  6  7  1  0  0  0  0
  6 36  1  0  0  0  0
  6 37  1  0  0  0  0
  8 10  1  0  0  0  0
  8 18  1  0  0  0  0
  8  9  1  6  0  0  0
  8  7  1  0  0  0  0
 10 11  2  0  0  0  0
 10 12  1  0  0  0  0
 12 13  1  0  0  0  0
 12 17  1  0  0  0  0
 13 14  1  0  0  0  0
 13 38  1  0  0  0  0
 13 39  1  0  0  0  0
 14 15  1  0  0  0  0
 14 40  1  0  0  0  0
 14 41  1  0  0  0  0
 15 16  1  0  0  0  0
 16 17  1  0  0  0  0
 16 42  1  0  0  0  0
 16 43  1  0  0  0  0
 17 44  1  0  0  0  0
 17 45  1  0  0  0  0
 18 46  1  0  0  0  0
 18 47  1  0  0  0  0
 18 48  1  0  0  0  0
 19 20  1  0  0  0  0
 19 49  1  0  0  0  0
 20 21  2  0  0  0  0
 20 22  2  0  0  0  0
 20 23  1  0  0  0  0
 23 24  2  0  0  0  0
 23 27  1  0  0  0  0
 24 25  1  0  0  0  0
 24 50  1  0  0  0  0
 25 26  2  0  0  0  0
 25 51  1  0  0  0  0
 26 27  1  0  0  0  0
 26 28  1  0  0  0  0
 28 29  2  0  0  0  0
 28 32  1  0  0  0  0
 29 30  1  0  0  0  0
 29 52  1  0  0  0  0
 30 31  2  0  0  0  0
 30 53  1  0  0  0  0
 31 32  1  0  0  0  0
 31 33  1  0  0  0  0
M  END
$$$$
