GTD
 OpenBabel04121316123D

 55 55  0  0  1  0  0  0  0  0999 V2000
   -1.5604   -1.5673  -11.0897 O   0  0  0  0  0  0  0  0  0  0  0  0
   -0.4500   -2.0826  -11.0073 C   0  0  0  0  0  0  0  0  0  0  0  0
    0.5730   -1.5052  -10.3354 N   0  0  0  0  0  0  0  0  0  0  0  0
    0.3780   -0.2593   -9.6133 C   0  0  2  0  0  0  0  0  0  0  0  0
   -0.6933   -0.0678   -9.5039 H   0  0  0  0  0  0  0  0  0  0  0  0
    0.9947    0.9268  -10.3728 C   0  0  0  0  0  0  0  0  0  0  0  0
    1.7158    1.7740   -9.8475 O   0  0  0  0  0  0  0  0  0  0  0  0
    0.6455    1.0517  -11.6867 N   0  0  0  0  0  0  0  0  0  0  0  0
    1.1740    2.1699  -12.4356 C   0  0  0  0  0  0  0  0  0  0  0  0
    0.5931    2.1778  -13.8320 C   0  0  0  0  0  0  0  0  0  0  0  0
   -0.2116    1.3482  -14.2352 O   0  0  0  0  0  0  0  0  0  0  0  0
    1.0463    3.1883  -14.6072 O   0  0  0  0  0  0  0  0  0  0  0  0
    0.9946   -0.3932   -8.2377 C   0  0  0  0  0  0  0  0  0  0  0  0
    2.8008   -0.7011   -8.4833 S   0  0  0  0  0  0  0  0  0  0  0  0
    3.2827   -0.6737   -6.7307 C   0  0  2  0  0  0  0  0  0  0  0  0
    2.4419   -0.5612   -6.0323 H   0  0  0  0  0  0  0  0  0  0  0  0
    4.2484    0.4809   -6.5466 C   0  0  0  0  0  0  0  0  0  0  0  0
    5.5068    0.3653   -6.0714 C   0  0  0  0  0  0  0  0  0  0  0  0
    6.0545   -0.9597   -5.6067 C   0  0  2  0  0  0  0  0  0  0  0  0
    7.0887   -1.0799   -5.9419 H   0  0  0  0  0  0  0  0  0  0  0  0
    5.2183   -2.1480   -6.0144 C   0  0  0  0  0  0  0  0  0  0  0  0
    3.9598   -2.0056   -6.4779 C   0  0  0  0  0  0  0  0  0  0  0  0
    3.2161   -3.2331   -6.8138 N   0  3  0  0  0  0  0  0  0  0  0  0
    3.8382   -4.2973   -6.8480 O   0  0  0  0  0  0  0  0  0  0  0  0
    2.0041   -3.1341   -7.0570 O   0  5  0  0  0  0  0  0  0  0  0  0
    6.0526   -0.9406   -4.0726 N   0  3  0  0  0  0  0  0  0  0  0  0
    7.0919   -1.2963   -3.5068 O   0  0  0  0  0  0  0  0  0  0  0  0
    4.9968   -0.6065   -3.5095 O   0  5  0  0  0  0  0  0  0  0  0  0
    3.7770    1.8347   -6.8645 N   0  3  0  0  0  0  0  0  0  0  0  0
    4.6093    2.7408   -6.9308 O   0  0  0  0  0  0  0  0  0  0  0  0
    2.5544    1.9929   -6.9982 O   0  5  0  0  0  0  0  0  0  0  0  0
   -0.1568   -3.3633  -11.7195 C   0  0  0  0  0  0  0  0  0  0  0  0
    1.2478   -3.9373  -11.6015 C   0  0  0  0  0  0  0  0  0  0  0  0
    1.4012   -5.2524  -12.3698 C   0  0  1  0  0  0  0  0  0  0  0  0
    0.6845   -6.0012  -12.0161 H   0  0  0  0  0  0  0  0  0  0  0  0
    1.2263   -5.0771  -13.9038 C   0  0  0  0  0  0  0  0  0  0  0  0
    2.1399   -5.1816  -14.7146 O   0  0  0  0  0  0  0  0  0  0  0  0
   -0.0238   -4.7754  -14.3227 O   0  0  0  0  0  0  0  0  0  0  0  0
    2.7587   -5.7730  -12.0947 N   0  0  0  0  0  0  0  0  0  0  0  0
    1.5066   -1.9014  -10.3031 H   0  0  0  0  0  0  0  0  0  0  0  0
   -0.0561    0.4448  -12.1102 H   0  0  0  0  0  0  0  0  0  0  0  0
    2.2633    2.0598  -12.4768 H   0  0  0  0  0  0  0  0  0  0  0  0
    0.9146    3.0956  -11.9103 H   0  0  0  0  0  0  0  0  0  0  0  0
    1.6852    3.7864  -14.1733 H   0  0  0  0  0  0  0  0  0  0  0  0
    0.5443   -1.2381   -7.7034 H   0  0  0  0  0  0  0  0  0  0  0  0
    0.7945    0.5046   -7.6498 H   0  0  0  0  0  0  0  0  0  0  0  0
    6.1601    1.2294   -5.9627 H   0  0  0  0  0  0  0  0  0  0  0  0
    5.6788   -3.1275   -5.9003 H   0  0  0  0  0  0  0  0  0  0  0  0
   -0.3527   -3.0876  -12.7561 H   0  0  0  0  0  0  0  0  0  0  0  0
   -0.8917   -4.1046  -11.3845 H   0  0  0  0  0  0  0  0  0  0  0  0
    1.4782   -4.1045  -10.5388 H   0  0  0  0  0  0  0  0  0  0  0  0
    1.9759   -3.2037  -11.9725 H   0  0  0  0  0  0  0  0  0  0  0  0
   -0.7338   -4.7369  -13.6569 H   0  0  0  0  0  0  0  0  0  0  0  0
    2.9540   -5.8186  -11.0978 H   0  0  0  0  0  0  0  0  0  0  0  0
    3.4445   -5.1377  -12.5120 H   0  0  0  0  0  0  0  0  0  0  0  0
  1  2  2  0  0  0  0
  2  3  1  0  0  0  0
  2 32  1  0  0  0  0
  3 40  1  0  0  0  0
  4  6  1  0  0  0  0
  4 13  1  0  0  0  0
  4  5  1  1  0  0  0
  4  3  1  0  0  0  0
  6  7  2  0  0  0  0
  6  8  1  0  0  0  0
  8  9  1  0  0  0  0
  8 41  1  0  0  0  0
  9 10  1  0  0  0  0
  9 42  1  0  0  0  0
  9 43  1  0  0  0  0
 10 11  2  0  0  0  0
 10 12  1  0  0  0  0
 12 44  1  0  0  0  0
 13 14  1  0  0  0  0
 13 45  1  0  0  0  0
 13 46  1  0  0  0  0
 15 17  1  0  0  0  0
 15 22  1  0  0  0  0
 15 16  1  1  0  0  0
 15 14  1  0  0  0  0
 17 18  2  0  0  0  0
 17 29  1  0  0  0  0
 18 19  1  0  0  0  0
 18 47  1  0  0  0  0
 19 21  1  0  0  0  0
 19 26  1  0  0  0  0
 19 20  1  6  0  0  0
 21 22  2  0  0  0  0
 21 48  1  0  0  0  0
 22 23  1  0  0  0  0
 23 24  2  0  0  0  0
 23 25  1  0  0  0  0
 26 27  2  0  0  0  0
 26 28  1  0  0  0  0
 29 30  2  0  0  0  0
 29 31  1  0  0  0  0
 32 33  1  0  0  0  0
 32 49  1  0  0  0  0
 32 50  1  0  0  0  0
 33 34  1  0  0  0  0
 33 51  1  0  0  0  0
 33 52  1  0  0  0  0
 34 35  1  1  0  0  0
 34 36  1  0  0  0  0
 34 39  1  0  0  0  0
 36 37  2  0  0  0  0
 36 38  1  0  0  0  0
 38 53  1  0  0  0  0
 39 54  1  0  0  0  0
 39 55  1  0  0  0  0
M  CHG  6  23   1  25  -1  26   1  28  -1  29   1  31  -1
M  END
$$$$
