GTF
 OpenBabel04121316123D

 44 45  0  0  1  0  0  0  0  0999 V2000
    4.5116    4.4529    3.2799 N   0  0  0  0  0  0  0  0  0  0  0  0
    4.5212    3.1495    3.6839 C   0  0  0  0  0  0  0  0  0  0  0  0
    3.7981    2.1825    2.8551 C   0  0  0  0  0  0  0  0  0  0  0  0
    4.0326    0.9060    3.1315 C   0  0  0  0  0  0  0  0  0  0  0  0
    4.6910    0.5088    4.2748 N   0  0  0  0  0  0  0  0  0  0  0  0
    5.1469    1.4956    5.1819 C   0  0  0  0  0  0  0  0  0  0  0  0
    5.5316    1.2119    6.3050 O   0  0  0  0  0  0  0  0  0  0  0  0
    5.1708    2.8099    4.7480 N   0  0  0  0  0  0  0  0  0  0  0  0
    4.6145   -0.8929    4.7462 C   0  0  2  0  0  0  0  0  0  0  0  0
    3.8599   -0.9110    5.5429 H   0  0  0  0  0  0  0  0  0  0  0  0
    5.8806   -1.2857    5.3477 O   0  0  0  0  0  0  0  0  0  0  0  0
    6.7015   -1.8789    4.3184 C   0  0  1  0  0  0  0  0  0  0  0  0
    7.4070   -2.5665    4.7977 H   0  0  0  0  0  0  0  0  0  0  0  0
    5.7348   -2.6024    3.3966 C   0  0  2  0  0  0  0  0  0  0  0  0
    5.9860   -2.4294    2.3469 H   0  0  0  0  0  0  0  0  0  0  0  0
    4.3591   -2.0391    3.7425 C   0  0  0  0  0  0  0  0  0  0  0  0
    3.5954   -2.9958    4.3426 F   0  0  0  0  0  0  0  0  0  0  0  0
    3.7022   -1.7201    2.6101 F   0  0  0  0  0  0  0  0  0  0  0  0
    5.8024   -4.0188    3.6191 O   0  0  0  0  0  0  0  0  0  0  0  0
    7.4649   -0.7452    3.6273 C   0  0  0  0  0  0  0  0  0  0  0  0
    8.2087   -1.0503    2.4378 O   0  0  0  0  0  0  0  0  0  0  0  0
    8.7363    0.3325    1.7593 P   0  0  2  0  0  0  0  0  0  0  0  0
    7.6679    1.3530    1.5728 O   0  0  0  0  0  0  0  0  0  0  0  0
    9.5333    0.0351    0.4264 O   0  0  0  0  0  0  0  0  0  0  0  0
    9.0618   -0.0823   -1.0933 P   0  0  2  0  0  0  0  0  0  0  0  0
   10.1856   -0.4821   -1.9965 O   0  0  0  0  0  0  0  0  0  0  0  0
    8.3290    1.2705   -1.6477 O   0  0  0  0  0  0  0  0  0  0  0  0
    9.4098    2.1664   -2.6586 P   0  0  0  0  0  0  0  0  0  0  0  0
    8.2901    3.1239   -3.0633 O   0  0  0  0  0  0  0  0  0  0  0  0
   10.0583    2.8220   -1.3068 O   0  0  0  0  0  0  0  0  0  0  0  0
   10.4907    3.0623   -3.6696 O   0  0  0  0  0  0  0  0  0  0  0  0
    7.8580   -1.1251   -1.0475 O   0  0  0  0  0  0  0  0  0  0  0  0
    9.8957    0.6901    2.8062 O   0  0  0  0  0  0  0  0  0  0  0  0
    4.2076    4.6841    2.3421 H   0  0  0  0  0  0  0  0  0  0  0  0
    5.2333    5.0472    3.6698 H   0  0  0  0  0  0  0  0  0  0  0  0
    3.1950    2.5020    2.0202 H   0  0  0  0  0  0  0  0  0  0  0  0
    3.6497    0.1863    2.4307 H   0  0  0  0  0  0  0  0  0  0  0  0
    5.4354   -4.1935    4.5080 H   0  0  0  0  0  0  0  0  0  0  0  0
    8.1017   -0.2465    4.3704 H   0  0  0  0  0  0  0  0  0  0  0  0
    6.7427    0.0011    3.3147 H   0  0  0  0  0  0  0  0  0  0  0  0
   10.5287    2.1901   -0.7372 H   0  0  0  0  0  0  0  0  0  0  0  0
    9.9208    3.4948   -4.3364 H   0  0  0  0  0  0  0  0  0  0  0  0
    7.0394   -0.7291   -0.7001 H   0  0  0  0  0  0  0  0  0  0  0  0
   10.4825    1.4374    2.6120 H   0  0  0  0  0  0  0  0  0  0  0  0
  1  2  1  0  0  0  0
  1 34  1  0  0  0  0
  1 35  1  0  0  0  0
  2  3  1  0  0  0  0
  2  8  2  0  0  0  0
  3  4  2  0  0  0  0
  3 36  1  0  0  0  0
  4  5  1  0  0  0  0
  4 37  1  0  0  0  0
  5  6  1  0  0  0  0
  6  7  2  0  0  0  0
  6  8  1  0  0  0  0
  9 11  1  0  0  0  0
  9 16  1  0  0  0  0
  9 10  1  1  0  0  0
  9  5  1  0  0  0  0
 11 12  1  0  0  0  0
 12 13  1  1  0  0  0
 12 14  1  0  0  0  0
 12 20  1  0  0  0  0
 14 16  1  0  0  0  0
 14 19  1  0  0  0  0
 14 15  1  6  0  0  0
 16 17  1  0  0  0  0
 16 18  1  0  0  0  0
 19 38  1  0  0  0  0
 20 21  1  0  0  0  0
 20 39  1  0  0  0  0
 20 40  1  0  0  0  0
 22 24  1  6  0  0  0
 22 33  1  0  0  0  0
 22 23  2  0  0  0  0
 22 21  1  0  0  0  0
 25 27  1  6  0  0  0
 25 32  1  0  0  0  0
 25 26  2  0  0  0  0
 25 24  1  0  0  0  0
 27 28  1  0  0  0  0
 28 29  2  0  0  0  0
 28 30  1  0  0  0  0
 28 31  1  0  0  0  0
 30 41  1  0  0  0  0
 31 42  1  0  0  0  0
 32 43  1  0  0  0  0
 33 44  1  0  0  0  0
M  END
$$$$
