GTG
 OpenBabel04121316123D

 82 87  0  0  1  0  0  0  0  0999 V2000
    0.1111   -2.0034    3.5849 N   0  0  0  0  0  0  0  0  0  0  0  0
    1.1596   -2.8484    3.7310 C   0  0  0  0  0  0  0  0  0  0  0  0
    0.8750   -4.0475    4.3513 N   0  0  0  0  0  0  0  0  0  0  0  0
   -0.0555   -4.2436    4.6755 H   0  0  0  0  0  0  0  0  0  0  0  0
    1.7989   -5.0579    4.5865 C   0  0  0  0  0  0  0  0  0  0  0  0
    1.4859   -6.1007    5.1436 O   0  0  0  0  0  0  0  0  0  0  0  0
    3.1233   -4.7097    4.1166 C   0  0  0  0  0  0  0  0  0  0  0  0
    3.2967   -3.4816    3.5209 C   0  0  0  0  0  0  0  0  0  0  0  0
    2.3525   -2.5254    3.3040 N   0  0  0  0  0  0  0  0  0  0  0  0
    4.6274   -3.4565    3.1489 N   0  0  0  0  0  0  0  0  0  0  0  0
    5.1820   -4.6337    3.5885 C   0  0  0  0  0  0  0  0  0  0  0  0
    4.2960   -5.4189    4.1651 N   0  0  0  0  0  0  0  0  0  0  0  0
    5.2702   -2.4196    2.3575 C   0  0  2  0  0  0  0  0  0  0  0  0
    5.4079   -1.5858    3.0611 H   0  0  0  0  0  0  0  0  0  0  0  0
    4.3636   -2.0650    1.2822 O   0  0  0  0  0  0  0  0  0  0  0  0
    4.6627   -2.9214    0.1395 C   0  0  1  0  0  0  0  0  0  0  0  0
    4.2444   -2.4036   -0.7303 H   0  0  0  0  0  0  0  0  0  0  0  0
    6.1801   -2.9636    0.1334 C   0  0  2  0  0  0  0  0  0  0  0  0
    6.5366   -3.9391   -0.2017 H   0  0  0  0  0  0  0  0  0  0  0  0
    6.5901   -2.6934    1.5976 C   0  0  1  0  0  0  0  0  0  0  0  0
    7.1602   -3.5319    2.0011 H   0  0  0  0  0  0  0  0  0  0  0  0
    7.4648   -1.5520    1.6905 O   0  0  0  0  0  0  0  0  0  0  0  0
    6.7062   -1.9914   -0.7756 O   0  0  0  0  0  0  0  0  0  0  0  0
    4.0590   -4.3535    0.2455 C   0  0  0  0  0  0  0  0  0  0  0  0
    4.4798   -5.3689   -0.7129 O   0  0  0  0  0  0  0  0  0  0  0  0
    3.6205   -6.7623   -0.5303 P   0  0  2  0  0  0  0  0  0  0  0  0
    3.1059   -6.9329    0.8557 O   0  0  0  0  0  0  0  0  0  0  0  0
    4.4142   -8.0577   -1.0619 O   0  0  0  0  0  0  0  0  0  0  0  0
    3.9231   -9.6644   -0.8545 P   0  0  2  0  0  0  0  0  0  0  0  0
    2.4762   -9.4363   -1.3434 O   0  0  0  0  0  0  0  0  0  0  0  0
    3.1350   -9.6944    0.6461 O   0  0  0  0  0  0  0  0  0  0  0  0
    1.4829  -10.2260    0.6037 P   0  0  1  0  0  0  0  0  0  0  0  0
    0.5377  -10.1194   -0.5723 O   0  0  0  0  0  0  0  0  0  0  0  0
    1.5244  -11.7584    1.0797 O   0  0  0  0  0  0  0  0  0  0  0  0
    2.8056  -12.3335    1.1743 C   0  0  0  0  0  0  0  0  0  0  0  0
    2.6954  -13.8174    1.4720 C   0  0  1  0  0  0  0  0  0  0  0  0
    2.1917  -13.9335    2.4404 H   0  0  0  0  0  0  0  0  0  0  0  0
    1.9304  -14.5172    0.4561 O   0  0  0  0  0  0  0  0  0  0  0  0
    2.2486  -15.9000    0.6633 C   0  0  2  0  0  0  0  0  0  0  0  0
    1.6910  -16.2790    1.5275 H   0  0  0  0  0  0  0  0  0  0  0  0
    3.7706  -15.8982    0.9066 C   0  0  1  0  0  0  0  0  0  0  0  0
    4.2958  -16.0027   -0.0507 H   0  0  0  0  0  0  0  0  0  0  0  0
    4.0632  -14.4971    1.4557 C   0  0  2  0  0  0  0  0  0  0  0  0
    4.7429  -13.9763    0.7689 H   0  0  0  0  0  0  0  0  0  0  0  0
    4.6750  -14.4791    2.7303 O   0  0  0  0  0  0  0  0  0  0  0  0
    4.2404  -16.9305    1.7596 O   0  0  0  0  0  0  0  0  0  0  0  0
    1.8801  -16.6639   -0.5326 N   0  0  0  0  0  0  0  0  0  0  0  0
    2.0303  -16.2151   -1.7891 C   0  0  0  0  0  0  0  0  0  0  0  0
    1.6444  -17.1811   -2.6340 N   0  3  0  0  0  0  0  0  0  0  0  0
    1.1646  -18.2518   -1.8911 C   0  0  0  0  0  0  0  0  0  0  0  0
    1.3124  -17.9382   -0.5621 C   0  0  0  0  0  0  0  0  0  0  0  0
    0.9954  -18.7330    0.4919 N   0  0  0  0  0  0  0  0  0  0  0  0
    0.4814  -19.8792    0.1260 C   0  0  0  0  0  0  0  0  0  0  0  0
    0.0983  -20.7964    1.0419 N   0  0  0  0  0  0  0  0  0  0  0  0
    0.2955  -20.2587   -1.1858 N   0  0  0  0  0  0  0  0  0  0  0  0
   -0.0986  -21.1666   -1.3942 H   0  0  0  0  0  0  0  0  0  0  0  0
    0.6179  -19.5077   -2.3098 C   0  0  0  0  0  0  0  0  0  0  0  0
    0.4394  -19.9318   -3.4291 O   0  0  0  0  0  0  0  0  0  0  0  0
    1.6695  -17.1225   -4.0902 C   0  0  0  0  0  0  0  0  0  0  0  0
    0.6045   -9.4924    1.7170 O   0  0  0  0  0  0  0  0  0  0  0  0
    5.5441   -9.9201   -0.3067 O   0  0  0  0  0  0  0  0  0  0  0  0
    2.5309   -6.5195   -1.6816 O   0  0  0  0  0  0  0  0  0  0  0  0
   -0.8187   -2.1984    3.9248 H   0  0  0  0  0  0  0  0  0  0  0  0
    0.2711   -1.1082    3.1395 H   0  0  0  0  0  0  0  0  0  0  0  0
    6.2178   -4.9017    3.4300 H   0  0  0  0  0  0  0  0  0  0  0  0
    7.0169   -0.7841    1.2938 H   0  0  0  0  0  0  0  0  0  0  0  0
    6.3212   -1.1228   -0.5744 H   0  0  0  0  0  0  0  0  0  0  0  0
    2.9639   -4.2742    0.2893 H   0  0  0  0  0  0  0  0  0  0  0  0
    4.3729   -4.7840    1.1864 H   0  0  0  0  0  0  0  0  0  0  0  0
    3.3409  -11.8094    1.9714 H   0  0  0  0  0  0  0  0  0  0  0  0
    3.3353  -12.1832    0.2255 H   0  0  0  0  0  0  0  0  0  0  0  0
    5.3816  -15.1556    2.7276 H   0  0  0  0  0  0  0  0  0  0  0  0
    3.9127  -17.7843    1.4216 H   0  0  0  0  0  0  0  0  0  0  0  0
    2.4344  -15.2523   -2.0788 H   0  0  0  0  0  0  0  0  0  0  0  0
    0.1493  -20.5704    2.0299 H   0  0  0  0  0  0  0  0  0  0  0  0
   -0.3469  -21.6778    0.8150 H   0  0  0  0  0  0  0  0  0  0  0  0
    2.0923  -16.1685   -4.4127 H   0  0  0  0  0  0  0  0  0  0  0  0
    0.6490  -17.2169   -4.4709 H   0  0  0  0  0  0  0  0  0  0  0  0
    2.2883  -17.9397   -4.4725 H   0  0  0  0  0  0  0  0  0  0  0  0
   -0.1870   -9.2298    1.1770 H   0  0  0  0  0  0  0  0  0  0  0  0
    5.6890  -10.8044    0.0696 H   0  0  0  0  0  0  0  0  0  0  0  0
    2.1217   -7.3454   -2.0023 H   0  0  0  0  0  0  0  0  0  0  0  0
  1  2  1  0  0  0  0
  1 63  1  0  0  0  0
  1 64  1  0  0  0  0
  2  3  1  0  0  0  0
  2  9  2  0  0  0  0
  3  4  1  0  0  0  0
  3  5  1  0  0  0  0
  5  6  2  0  0  0  0
  5  7  1  0  0  0  0
  7  8  2  0  0  0  0
  7 12  1  0  0  0  0
  8  9  1  0  0  0  0
  8 10  1  0  0  0  0
 10 11  1  0  0  0  0
 11 12  2  0  0  0  0
 11 65  1  0  0  0  0
 13 15  1  0  0  0  0
 13 20  1  0  0  0  0
 13 14  1  1  0  0  0
 13 10  1  0  0  0  0
 15 16  1  0  0  0  0
 16 17  1  6  0  0  0
 16 18  1  0  0  0  0
 16 24  1  0  0  0  0
 18 20  1  0  0  0  0
 18 23  1  0  0  0  0
 18 19  1  6  0  0  0
 20 22  1  0  0  0  0
 20 21  1  1  0  0  0
 22 66  1  0  0  0  0
 23 67  1  0  0  0  0
 24 25  1  0  0  0  0
 24 68  1  0  0  0  0
 24 69  1  0  0  0  0
 26 28  1  6  0  0  0
 26 62  1  0  0  0  0
 26 27  2  0  0  0  0
 26 25  1  0  0  0  0
 29 31  1  1  0  0  0
 29 61  1  0  0  0  0
 29 30  2  0  0  0  0
 29 28  1  0  0  0  0
 32 31  1  6  0  0  0
 32 33  2  0  0  0  0
 32 34  1  0  0  0  0
 32 60  1  0  0  0  0
 34 35  1  0  0  0  0
 35 36  1  0  0  0  0
 35 70  1  0  0  0  0
 35 71  1  0  0  0  0
 36 37  1  1  0  0  0
 36 38  1  0  0  0  0
 36 43  1  0  0  0  0
 38 39  1  0  0  0  0
 39 41  1  0  0  0  0
 39 47  1  0  0  0  0
 39 40  1  1  0  0  0
 41 42  1  6  0  0  0
 41 43  1  0  0  0  0
 41 46  1  0  0  0  0
 43 44  1  6  0  0  0
 43 45  1  0  0  0  0
 45 72  1  0  0  0  0
 46 73  1  0  0  0  0
 47 48  1  0  0  0  0
 47 51  1  0  0  0  0
 48 49  2  0  0  0  0
 48 74  1  0  0  0  0
 49 50  1  0  0  0  0
 49 59  1  0  0  0  0
 50 51  2  0  0  0  0
 50 57  1  0  0  0  0
 51 52  1  0  0  0  0
 52 53  2  0  0  0  0
 53 54  1  0  0  0  0
 53 55  1  0  0  0  0
 54 75  1  0  0  0  0
 54 76  1  0  0  0  0
 55 56  1  0  0  0  0
 55 57  1  0  0  0  0
 57 58  2  0  0  0  0
 59 77  1  0  0  0  0
 59 78  1  0  0  0  0
 59 79  1  0  0  0  0
 60 80  1  0  0  0  0
 61 81  1  0  0  0  0
 62 82  1  0  0  0  0
M  CHG  1  49   1
M  END
$$$$
