GTL
 OpenBabel04121316123D

 25 25  0  0  1  0  0  0  0  0999 V2000
    1.1380   -0.0765    0.2106 O   0  0  0  0  0  0  0  0  0  0  0  0
    2.5412   -0.1926   -0.0423 C   0  0  0  0  0  0  0  0  0  0  0  0
    2.9982    0.5715   -1.3330 C   0  0  1  0  0  0  0  0  0  0  0  0
    3.9082    0.0725   -1.6901 H   0  0  0  0  0  0  0  0  0  0  0  0
    1.9857    0.5715   -2.4087 N   0  0  0  0  0  0  0  0  0  0  0  0
    0.8132    1.2767   -2.1475 C   0  0  0  0  0  0  0  0  0  0  0  0
   -0.3506    0.7140   -2.1881 N   0  0  0  0  0  0  0  0  0  0  0  0
   -1.3542    1.5766   -1.7099 O   0  0  0  0  0  0  0  0  0  0  0  0
    1.0482    2.7660   -1.8039 C   0  0  1  0  0  0  0  0  0  0  0  0
    0.1285    3.2832   -1.5253 H   0  0  0  0  0  0  0  0  0  0  0  0
    2.1007    2.8723   -0.6869 C   0  0  2  0  0  0  0  0  0  0  0  0
    2.4006    3.9189   -0.5708 H   0  0  0  0  0  0  0  0  0  0  0  0
    3.3624    2.0463   -1.0329 C   0  0  1  0  0  0  0  0  0  0  0  0
    3.8223    2.4751   -1.9325 H   0  0  0  0  0  0  0  0  0  0  0  0
    4.3525    2.1250    0.0010 O   0  0  0  0  0  0  0  0  0  0  0  0
    1.5756    2.4816    0.5935 O   0  0  0  0  0  0  0  0  0  0  0  0
    1.5536    3.3753   -3.0022 O   0  0  0  0  0  0  0  0  0  0  0  0
    0.9048   -0.6690    0.9469 H   0  0  0  0  0  0  0  0  0  0  0  0
    2.8019   -1.2527   -0.1005 H   0  0  0  0  0  0  0  0  0  0  0  0
    3.0338    0.2064    0.8501 H   0  0  0  0  0  0  0  0  0  0  0  0
    1.8848   -0.2859   -2.9342 H   0  0  0  0  0  0  0  0  0  0  0  0
   -2.1011    0.9749   -1.5340 H   0  0  0  0  0  0  0  0  0  0  0  0
    3.8734    2.1147    0.8513 H   0  0  0  0  0  0  0  0  0  0  0  0
    1.0683    1.6483    0.4532 H   0  0  0  0  0  0  0  0  0  0  0  0
    0.9245    3.1335   -3.7072 H   0  0  0  0  0  0  0  0  0  0  0  0
  1  2  1  0  0  0  0
  1 18  1  0  0  0  0
  2  3  1  0  0  0  0
  2 19  1  0  0  0  0
  2 20  1  0  0  0  0
  3  4  1  6  0  0  0
  3  5  1  0  0  0  0
  3 13  1  0  0  0  0
  5  6  1  0  0  0  0
  5 21  1  0  0  0  0
  6  7  2  0  0  0  0
  6  9  1  0  0  0  0
  7  8  1  0  0  0  0
  8 22  1  0  0  0  0
  9 10  1  1  0  0  0
  9 11  1  0  0  0  0
  9 17  1  0  0  0  0
 11 13  1  0  0  0  0
 11 16  1  0  0  0  0
 11 12  1  1  0  0  0
 13 15  1  0  0  0  0
 13 14  1  6  0  0  0
 15 23  1  0  0  0  0
 16 24  1  0  0  0  0
 17 25  1  0  0  0  0
M  END
$$$$
