GTQ
 OpenBabel04121316123D

 17 17  0  0  0  0  0  0  0  0999 V2000
    1.0064    0.0305    0.1328 O   0  0  0  0  0  0  0  0  0  0  0  0
    2.3682    0.0685    0.0621 C   0  0  0  0  0  0  0  0  0  0  0  0
    3.0613    1.2675   -0.0179 C   0  0  0  0  0  0  0  0  0  0  0  0
    4.4527    1.2401   -0.1042 C   0  0  0  0  0  0  0  0  0  0  0  0
    5.1216    0.0177   -0.2368 C   0  0  0  0  0  0  0  0  0  0  0  0
    4.4241   -1.2037   -0.1735 C   0  0  0  0  0  0  0  0  0  0  0  0
    3.0387   -1.1537    0.0573 C   0  0  0  0  0  0  0  0  0  0  0  0
    5.1579   -2.4970   -0.4028 C   0  0  0  0  0  0  0  0  0  0  0  0
    6.3485   -2.5779   -0.6745 O   0  0  0  0  0  0  0  0  0  0  0  0
    4.4157   -3.6237   -0.3357 O   0  0  0  0  0  0  0  0  0  0  0  0
    6.4741    0.0349   -0.4300 O   0  0  0  0  0  0  0  0  0  0  0  0
    0.6508    0.9245   -0.0094 H   0  0  0  0  0  0  0  0  0  0  0  0
    2.5435    2.2216   -0.0026 H   0  0  0  0  0  0  0  0  0  0  0  0
    5.0044    2.1758   -0.0793 H   0  0  0  0  0  0  0  0  0  0  0  0
    2.4306   -2.0337    0.2215 H   0  0  0  0  0  0  0  0  0  0  0  0
    3.4666   -3.5398   -0.1648 H   0  0  0  0  0  0  0  0  0  0  0  0
    6.8068    0.9340   -0.5689 H   0  0  0  0  0  0  0  0  0  0  0  0
  1  2  1  0  0  0  0
  1 12  1  0  0  0  0
  2  3  2  0  0  0  0
  2  7  1  0  0  0  0
  3  4  1  0  0  0  0
  3 13  1  0  0  0  0
  4  5  2  0  0  0  0
  4 14  1  0  0  0  0
  5  6  1  0  0  0  0
  5 11  1  0  0  0  0
  6  7  2  0  0  0  0
  6  8  1  0  0  0  0
  7 15  1  0  0  0  0
  8  9  2  0  0  0  0
  8 10  1  0  0  0  0
 10 16  1  0  0  0  0
 11 17  1  0  0  0  0
M  END
$$$$
