GUN
 OpenBabel04121316123D

 16 17  0  0  0  0  0  0  0  0999 V2000
    1.1863    0.0306    0.0417 N   0  0  0  0  0  0  0  0  0  0  0  0
    2.5380   -0.0353    0.0497 C   0  0  0  0  0  0  0  0  0  0  0  0
    3.1985    1.1800    0.0517 N   0  0  0  0  0  0  0  0  0  0  0  0
    2.6810    2.0413    0.0460 H   0  0  0  0  0  0  0  0  0  0  0  0
    4.5777    1.3321    0.0619 C   0  0  0  0  0  0  0  0  0  0  0  0
    5.1092    2.4391    0.0663 O   0  0  0  0  0  0  0  0  0  0  0  0
    5.2673    0.0640    0.0671 C   0  0  0  0  0  0  0  0  0  0  0  0
    4.5024   -1.0793    0.0626 C   0  0  0  0  0  0  0  0  0  0  0  0
    3.1516   -1.1917    0.0548 N   0  0  0  0  0  0  0  0  0  0  0  0
    5.4059   -2.1031    0.0685 N   0  0  0  0  0  0  0  0  0  0  0  0
    5.1930   -3.0896    0.0671 H   0  0  0  0  0  0  0  0  0  0  0  0
    6.6583   -1.5395    0.0781 C   0  0  0  0  0  0  0  0  0  0  0  0
    6.6084   -0.2235    0.0772 N   0  0  0  0  0  0  0  0  0  0  0  0
    0.6652    0.8943    0.0521 H   0  0  0  0  0  0  0  0  0  0  0  0
    0.6637   -0.8363    0.0512 H   0  0  0  0  0  0  0  0  0  0  0  0
    7.5636   -2.1334    0.0855 H   0  0  0  0  0  0  0  0  0  0  0  0
  1  2  1  0  0  0  0
  1 14  1  0  0  0  0
  1 15  1  0  0  0  0
  2  3  1  0  0  0  0
  2  9  2  0  0  0  0
  3  4  1  0  0  0  0
  3  5  1  0  0  0  0
  5  6  2  0  0  0  0
  5  7  1  0  0  0  0
  7  8  2  0  0  0  0
  7 13  1  0  0  0  0
  8  9  1  0  0  0  0
  8 10  1  0  0  0  0
 10 11  1  0  0  0  0
 10 12  1  0  0  0  0
 12 13  2  0  0  0  0
 12 16  1  0  0  0  0
M  END
$$$$
