GVF
 OpenBabel04121316123D

 36 36  0  0  0  0  0  0  0  0999 V2000
    0.9987   -0.0702    0.0712 O   0  0  0  0  0  0  0  0  0  0  0  0
    2.7287   -0.0702    0.0712 P   0  0  0  0  0  0  0  0  0  0  0  0
    2.8383   -1.5225    0.4767 O   0  0  0  0  0  0  0  0  0  0  0  0
    2.7591    0.5515   -1.4935 O   0  0  0  0  0  0  0  0  0  0  0  0
    1.6627    1.2588   -1.9932 C   0  0  0  0  0  0  0  0  0  0  0  0
    0.6117    0.4304   -2.3635 C   0  0  0  0  0  0  0  0  0  0  0  0
   -0.6346    1.0618   -2.5511 C   0  0  0  0  0  0  0  0  0  0  0  0
   -0.8237    2.4899   -2.4601 C   0  0  0  0  0  0  0  0  0  0  0  0
    0.2639    3.3461   -2.3052 C   0  0  0  0  0  0  0  0  0  0  0  0
    1.5013    2.7178   -2.0690 C   0  0  0  0  0  0  0  0  0  0  0  0
    2.5019    3.6755   -1.9516 O   0  0  0  0  0  0  0  0  0  0  0  0
    4.0329    3.0231   -1.6194 P   0  0  0  0  0  0  0  0  0  0  0  0
    4.6965    4.3976   -1.6692 O   0  0  0  0  0  0  0  0  0  0  0  0
    3.6081    2.7610   -0.0503 O   0  0  0  0  0  0  0  0  0  0  0  0
    5.5936    2.3580   -1.2807 O   0  0  0  0  0  0  0  0  0  0  0  0
    0.1275    4.7567   -2.4194 O   0  0  0  0  0  0  0  0  0  0  0  0
    1.4467    5.7215   -2.2508 P   0  0  0  0  0  0  0  0  0  0  0  0
    2.0690    5.6668   -0.8837 O   0  0  0  0  0  0  0  0  0  0  0  0
    2.2854    5.2644   -3.5601 O   0  0  0  0  0  0  0  0  0  0  0  0
    1.3189    7.2522   -2.6368 O   0  0  0  0  0  0  0  0  0  0  0  0
    0.7665   -0.9387   -2.5927 O   0  0  0  0  0  0  0  0  0  0  0  0
    1.5075   -2.1415   -1.7948 P   0  0  0  0  0  0  0  0  0  0  0  0
    0.8279   -2.5550   -0.4795 O   0  0  0  0  0  0  0  0  0  0  0  0
    1.4867   -3.3470   -2.8009 O   0  0  0  0  0  0  0  0  0  0  0  0
    3.0906   -1.9164   -1.8036 O   0  0  0  0  0  0  0  0  0  0  0  0
    4.4587   -0.0702    0.0712 O   0  0  0  0  0  0  0  0  0  0  0  0
    0.7306   -0.8830    0.5697 H   0  0  0  0  0  0  0  0  0  0  0  0
   -1.5082    0.4436   -2.7531 H   0  0  0  0  0  0  0  0  0  0  0  0
   -1.8298    2.9003   -2.5369 H   0  0  0  0  0  0  0  0  0  0  0  0
    2.6427    2.8145    0.0482 H   0  0  0  0  0  0  0  0  0  0  0  0
    6.2199    3.0134   -1.6439 H   0  0  0  0  0  0  0  0  0  0  0  0
    1.7054    4.7377   -4.1480 H   0  0  0  0  0  0  0  0  0  0  0  0
    2.1987    7.5716   -2.2979 H   0  0  0  0  0  0  0  0  0  0  0  0
    0.7852   -3.1612   -3.4557 H   0  0  0  0  0  0  0  0  0  0  0  0
    3.5154   -2.1298   -0.9260 H   0  0  0  0  0  0  0  0  0  0  0  0
    4.7777   -0.3855    0.9361 H   0  0  0  0  0  0  0  0  0  0  0  0
  1  2  1  0  0  0  0
  1 27  1  0  0  0  0
  2  3  2  0  0  0  0
  2  4  1  0  0  0  0
  2 26  1  0  0  0  0
  4  5  1  0  0  0  0
  5  6  2  0  0  0  0
  5 10  1  0  0  0  0
  6  7  1  0  0  0  0
  6 21  1  0  0  0  0
  7  8  2  0  0  0  0
  7 28  1  0  0  0  0
  8  9  1  0  0  0  0
  8 29  1  0  0  0  0
  9 10  2  0  0  0  0
  9 16  1  0  0  0  0
 10 11  1  0  0  0  0
 11 12  1  0  0  0  0
 12 13  2  0  0  0  0
 12 14  1  0  0  0  0
 12 15  1  0  0  0  0
 14 30  1  0  0  0  0
 15 31  1  0  0  0  0
 16 17  1  0  0  0  0
 17 18  2  0  0  0  0
 17 19  1  0  0  0  0
 17 20  1  0  0  0  0
 19 32  1  0  0  0  0
 20 33  1  0  0  0  0
 21 22  1  0  0  0  0
 22 23  2  0  0  0  0
 22 24  1  0  0  0  0
 22 25  1  0  0  0  0
 24 34  1  0  0  0  0
 25 35  1  0  0  0  0
 26 36  1  0  0  0  0
M  END
$$$$
