GVG
 OpenBabel04121316123D

 22 23  0  0  0  0  0  0  0  0999 V2000
    0.9492    0.2509    0.1230 C   0  0  0  0  0  0  0  0  0  0  0  0
    2.4244    0.0867    0.1166 C   0  0  0  0  0  0  0  0  0  0  0  0
    3.2227    1.1596    0.0938 N   0  0  0  0  0  0  0  0  0  0  0  0
    4.4622    0.6440    0.0881 N   0  0  0  0  0  0  0  0  0  0  0  0
    5.2473    1.2805    0.0671 H   0  0  0  0  0  0  0  0  0  0  0  0
    4.4798   -0.7204    0.1009 C   0  0  0  0  0  0  0  0  0  0  0  0
    3.1666   -1.1330    0.1298 C   0  0  0  0  0  0  0  0  0  0  0  0
    2.7218   -2.5228    0.1115 C   0  0  0  0  0  0  0  0  0  0  0  0
    3.5818   -3.5674    0.4646 C   0  0  0  0  0  0  0  0  0  0  0  0
    3.1786   -4.8965    0.3004 C   0  0  0  0  0  0  0  0  0  0  0  0
    1.8800   -5.1960   -0.1065 C   0  0  0  0  0  0  0  0  0  0  0  0
    0.9799   -4.1711   -0.3474 C   0  0  0  0  0  0  0  0  0  0  0  0
    1.4206   -2.8534   -0.2919 C   0  0  0  0  0  0  0  0  0  0  0  0
    0.6329    1.2891    0.2321 H   0  0  0  0  0  0  0  0  0  0  0  0
    0.5163   -0.3278    0.9474 H   0  0  0  0  0  0  0  0  0  0  0  0
    0.5291   -0.1093   -0.8221 H   0  0  0  0  0  0  0  0  0  0  0  0
    5.4204   -1.2576    0.0733 H   0  0  0  0  0  0  0  0  0  0  0  0
    4.5754   -3.3667    0.8548 H   0  0  0  0  0  0  0  0  0  0  0  0
    3.8848   -5.6996    0.4886 H   0  0  0  0  0  0  0  0  0  0  0  0
    1.5662   -6.2259   -0.2412 H   0  0  0  0  0  0  0  0  0  0  0  0
   -0.0539   -4.3772   -0.6087 H   0  0  0  0  0  0  0  0  0  0  0  0
    0.7052   -2.1069   -0.6040 H   0  0  0  0  0  0  0  0  0  0  0  0
  1  2  1  0  0  0  0
  1 14  1  0  0  0  0
  1 15  1  0  0  0  0
  1 16  1  0  0  0  0
  2  3  2  0  0  0  0
  2  7  1  0  0  0  0
  3  4  1  0  0  0  0
  4  5  1  0  0  0  0
  4  6  1  0  0  0  0
  6  7  2  0  0  0  0
  6 17  1  0  0  0  0
  7  8  1  0  0  0  0
  8  9  2  0  0  0  0
  8 13  1  0  0  0  0
  9 10  1  0  0  0  0
  9 18  1  0  0  0  0
 10 11  2  0  0  0  0
 10 19  1  0  0  0  0
 11 12  1  0  0  0  0
 11 20  1  0  0  0  0
 12 13  2  0  0  0  0
 12 21  1  0  0  0  0
 13 22  1  0  0  0  0
M  END
$$$$
