GVI
 OpenBabel04121316123D

 31 33  0  0  0  0  0  0  0  0999 V2000
    0.8739    0.0173    0.0868 C   0  0  0  0  0  0  0  0  0  0  0  0
    2.3233    0.0164    0.1155 N   0  0  0  0  0  0  0  0  0  0  0  0
    2.8480    1.0479   -0.7719 C   0  0  0  0  0  0  0  0  0  0  0  0
    4.3509    1.0663   -0.7747 C   0  0  0  0  0  0  0  0  0  0  0  0
    5.0049    2.2923   -0.7774 C   0  0  0  0  0  0  0  0  0  0  0  0
    6.3771    2.3394   -0.9774 C   0  0  0  0  0  0  0  0  0  0  0  0
    7.1640    1.1793   -1.0968 C   0  0  0  0  0  0  0  0  0  0  0  0
    6.5046   -0.0496   -0.9624 C   0  0  0  0  0  0  0  0  0  0  0  0
    5.1139   -0.1060   -0.8654 C   0  0  0  0  0  0  0  0  0  0  0  0
    8.5999    1.2435   -1.3947 C   0  0  0  0  0  0  0  0  0  0  0  0
    9.2983    0.0796   -1.5674 N   0  0  0  0  0  0  0  0  0  0  0  0
   10.6079    0.1585   -1.8849 C   0  0  0  0  0  0  0  0  0  0  0  0
   11.3576    1.2655   -2.0664 N   0  0  0  0  0  0  0  0  0  0  0  0
   10.6247    2.3734   -1.8924 C   0  0  0  0  0  0  0  0  0  0  0  0
    9.2805    2.4576   -1.5684 C   0  0  0  0  0  0  0  0  0  0  0  0
    8.8967    3.7820   -1.4933 N   0  0  0  0  0  0  0  0  0  0  0  0
    9.9762    4.4814   -1.7529 C   0  0  0  0  0  0  0  0  0  0  0  0
   11.0431    3.6686   -1.9970 N   0  0  0  0  0  0  0  0  0  0  0  0
   11.9844    3.9640   -2.2158 H   0  0  0  0  0  0  0  0  0  0  0  0
    0.5067   -0.7715    0.7476 H   0  0  0  0  0  0  0  0  0  0  0  0
    0.4984   -0.1766   -0.9227 H   0  0  0  0  0  0  0  0  0  0  0  0
    0.4790    0.9721    0.4455 H   0  0  0  0  0  0  0  0  0  0  0  0
    2.6567   -0.8901   -0.2026 H   0  0  0  0  0  0  0  0  0  0  0  0
    2.4757    2.0292   -0.4492 H   0  0  0  0  0  0  0  0  0  0  0  0
    2.5153    0.8943   -1.8068 H   0  0  0  0  0  0  0  0  0  0  0  0
    4.4633    3.2277   -0.6603 H   0  0  0  0  0  0  0  0  0  0  0  0
    6.8039    3.3322   -1.0604 H   0  0  0  0  0  0  0  0  0  0  0  0
    7.0642   -0.9833   -0.9667 H   0  0  0  0  0  0  0  0  0  0  0  0
    4.6379   -1.0814   -0.8718 H   0  0  0  0  0  0  0  0  0  0  0  0
   11.1191   -0.7918   -2.0097 H   0  0  0  0  0  0  0  0  0  0  0  0
   10.0256    5.5606   -1.7711 H   0  0  0  0  0  0  0  0  0  0  0  0
  1  2  1  0  0  0  0
  1 20  1  0  0  0  0
  1 21  1  0  0  0  0
  1 22  1  0  0  0  0
  2  3  1  0  0  0  0
  2 23  1  0  0  0  0
  3  4  1  0  0  0  0
  3 24  1  0  0  0  0
  3 25  1  0  0  0  0
  4  5  2  0  0  0  0
  4  9  1  0  0  0  0
  5  6  1  0  0  0  0
  5 26  1  0  0  0  0
  6  7  2  0  0  0  0
  6 27  1  0  0  0  0
  7  8  1  0  0  0  0
  7 10  1  0  0  0  0
  8  9  2  0  0  0  0
  8 28  1  0  0  0  0
  9 29  1  0  0  0  0
 10 11  2  0  0  0  0
 10 15  1  0  0  0  0
 11 12  1  0  0  0  0
 12 13  2  0  0  0  0
 12 30  1  0  0  0  0
 13 14  1  0  0  0  0
 14 15  2  0  0  0  0
 14 18  1  0  0  0  0
 15 16  1  0  0  0  0
 16 17  2  0  0  0  0
 17 18  1  0  0  0  0
 17 31  1  0  0  0  0
 18 19  1  0  0  0  0
M  END
$$$$
