GVO
 OpenBabel04121316123D

 37 39  0  0  1  0  0  0  0  0999 V2000
    3.1403    1.7248   -2.0212 N   0  0  0  0  0  0  0  0  0  0  0  0
    2.4352    2.2595   -0.8565 C   0  0  0  0  0  0  0  0  0  0  0  0
    2.9226    1.4674    0.3894 C   0  0  2  0  0  0  0  0  0  0  0  0
    2.5928    0.4324    0.2089 H   0  0  0  0  0  0  0  0  0  0  0  0
    2.3455    1.8876    1.7185 C   0  0  0  0  0  0  0  0  0  0  0  0
    1.8222    0.9110    2.5784 C   0  0  0  0  0  0  0  0  0  0  0  0
    1.2692    1.2836    3.7998 C   0  0  0  0  0  0  0  0  0  0  0  0
    1.3438    2.6124    4.2126 C   0  0  0  0  0  0  0  0  0  0  0  0
    1.9707    3.5680    3.4217 C   0  0  0  0  0  0  0  0  0  0  0  0
    2.4132    3.2172    2.1543 C   0  0  0  0  0  0  0  0  0  0  0  0
    0.6224    3.0920    5.6955 Cl  0  0  0  0  0  0  0  0  0  0  0  0
    4.4428    1.4855    0.4322 C   0  0  0  0  0  0  0  0  0  0  0  0
    5.1372    2.7032    0.3856 C   0  0  0  0  0  0  0  0  0  0  0  0
    6.5000    2.7267    0.1507 C   0  0  0  0  0  0  0  0  0  0  0  0
    7.2034    1.5285    0.0435 C   0  0  0  0  0  0  0  0  0  0  0  0
    6.5272    0.3118    0.2058 C   0  0  0  0  0  0  0  0  0  0  0  0
    5.1463    0.2838    0.3586 C   0  0  0  0  0  0  0  0  0  0  0  0
    8.6142    1.5385   -0.2844 C   0  0  0  0  0  0  0  0  0  0  0  0
    9.3866    2.6524   -0.4899 C   0  0  0  0  0  0  0  0  0  0  0  0
   10.6405    2.2034   -0.7868 N   0  0  0  0  0  0  0  0  0  0  0  0
   11.4671    2.7458   -0.9810 H   0  0  0  0  0  0  0  0  0  0  0  0
   10.7295    0.8631   -0.8191 N   0  0  0  0  0  0  0  0  0  0  0  0
    9.4943    0.4593   -0.5230 C   0  0  0  0  0  0  0  0  0  0  0  0
    2.9872    2.2042   -2.8957 H   0  0  0  0  0  0  0  0  0  0  0  0
    3.0335    0.7178   -2.1014 H   0  0  0  0  0  0  0  0  0  0  0  0
    1.3490    2.1702   -0.9745 H   0  0  0  0  0  0  0  0  0  0  0  0
    2.6514    3.3317   -0.7682 H   0  0  0  0  0  0  0  0  0  0  0  0
    1.8411   -0.1413    2.2980 H   0  0  0  0  0  0  0  0  0  0  0  0
    0.7896    0.5342    4.4216 H   0  0  0  0  0  0  0  0  0  0  0  0
    2.1110    4.5866    3.7695 H   0  0  0  0  0  0  0  0  0  0  0  0
    2.8395    3.9916    1.5250 H   0  0  0  0  0  0  0  0  0  0  0  0
    4.6231    3.6559    0.4351 H   0  0  0  0  0  0  0  0  0  0  0  0
    6.9704    3.6929    0.0114 H   0  0  0  0  0  0  0  0  0  0  0  0
    7.0509   -0.6383    0.1696 H   0  0  0  0  0  0  0  0  0  0  0  0
    4.6246   -0.6690    0.3521 H   0  0  0  0  0  0  0  0  0  0  0  0
    9.1767    3.7168   -0.4567 H   0  0  0  0  0  0  0  0  0  0  0  0
    9.2773   -0.5988   -0.4956 H   0  0  0  0  0  0  0  0  0  0  0  0
  1  2  1  0  0  0  0
  1 24  1  0  0  0  0
  1 25  1  0  0  0  0
  2 26  1  0  0  0  0
  2 27  1  0  0  0  0
  3  5  1  0  0  0  0
  3 12  1  0  0  0  0
  3  4  1  6  0  0  0
  3  2  1  0  0  0  0
  5  6  2  0  0  0  0
  5 10  1  0  0  0  0
  6  7  1  0  0  0  0
  6 28  1  0  0  0  0
  7  8  2  0  0  0  0
  7 29  1  0  0  0  0
  8  9  1  0  0  0  0
  8 11  1  0  0  0  0
  9 10  2  0  0  0  0
  9 30  1  0  0  0  0
 10 31  1  0  0  0  0
 12 13  2  0  0  0  0
 12 17  1  0  0  0  0
 13 14  1  0  0  0  0
 13 32  1  0  0  0  0
 14 15  2  0  0  0  0
 14 33  1  0  0  0  0
 15 16  1  0  0  0  0
 15 18  1  0  0  0  0
 16 17  2  0  0  0  0
 16 34  1  0  0  0  0
 17 35  1  0  0  0  0
 18 19  2  0  0  0  0
 18 23  1  0  0  0  0
 19 20  1  0  0  0  0
 19 36  1  0  0  0  0
 20 21  1  0  0  0  0
 20 22  1  0  0  0  0
 22 23  2  0  0  0  0
 23 37  1  0  0  0  0
M  END
$$$$
