GVP
 OpenBabel04121316123D

 44 47  0  0  0  0  0  0  0  0999 V2000
    0.8792   -0.0113    0.1842 Cl  0  0  0  0  0  0  0  0  0  0  0  0
    2.5952    0.0139    0.1573 C   0  0  0  0  0  0  0  0  0  0  0  0
    3.2673    1.2290    0.1418 C   0  0  0  0  0  0  0  0  0  0  0  0
    4.6452    1.2464   -0.0500 C   0  0  0  0  0  0  0  0  0  0  0  0
    5.3778    0.0505   -0.1509 C   0  0  0  0  0  0  0  0  0  0  0  0
    4.6917   -1.1560    0.0659 C   0  0  0  0  0  0  0  0  0  0  0  0
    3.3024   -1.1806    0.1294 C   0  0  0  0  0  0  0  0  0  0  0  0
    6.8735    0.0679   -0.5390 C   0  0  0  0  0  0  0  0  0  0  0  0
    7.3325   -1.2884   -1.1687 C   0  0  0  0  0  0  0  0  0  0  0  0
    6.6086   -1.5800   -2.4789 C   0  0  0  0  0  0  0  0  0  0  0  0
    6.8636   -0.5352   -3.4623 N   0  0  0  0  0  0  0  0  0  0  0  0
    6.4620    0.7774   -2.9627 C   0  0  0  0  0  0  0  0  0  0  0  0
    7.1758    1.1221   -1.6578 C   0  0  0  0  0  0  0  0  0  0  0  0
    7.6826    0.4018    0.7157 C   0  0  0  0  0  0  0  0  0  0  0  0
    7.7601    1.7247    1.1776 C   0  0  0  0  0  0  0  0  0  0  0  0
    8.5931    2.0615    2.2337 C   0  0  0  0  0  0  0  0  0  0  0  0
    9.2907    1.0636    2.9116 C   0  0  0  0  0  0  0  0  0  0  0  0
    9.0999   -0.2704    2.5562 C   0  0  0  0  0  0  0  0  0  0  0  0
    8.3356   -0.5960    1.4470 C   0  0  0  0  0  0  0  0  0  0  0  0
   10.2405    1.3910    3.9494 C   0  0  0  0  0  0  0  0  0  0  0  0
   10.5543    2.6530    4.3812 C   0  0  0  0  0  0  0  0  0  0  0  0
   11.5077    2.4999    5.3434 N   0  0  0  0  0  0  0  0  0  0  0  0
   11.9584    3.2163    5.8921 H   0  0  0  0  0  0  0  0  0  0  0  0
   11.8655    1.2207    5.5429 N   0  0  0  0  0  0  0  0  0  0  0  0
   11.1009    0.5454    4.6852 C   0  0  0  0  0  0  0  0  0  0  0  0
    2.7308    2.1675    0.2363 H   0  0  0  0  0  0  0  0  0  0  0  0
    5.1268    2.2145   -0.1506 H   0  0  0  0  0  0  0  0  0  0  0  0
    5.2112   -2.1088    0.1112 H   0  0  0  0  0  0  0  0  0  0  0  0
    2.7890   -2.1372    0.1332 H   0  0  0  0  0  0  0  0  0  0  0  0
    7.1762   -2.1388   -0.4963 H   0  0  0  0  0  0  0  0  0  0  0  0
    8.4174   -1.2665   -1.3541 H   0  0  0  0  0  0  0  0  0  0  0  0
    5.5297   -1.6841   -2.3266 H   0  0  0  0  0  0  0  0  0  0  0  0
    6.9525   -2.5452   -2.8626 H   0  0  0  0  0  0  0  0  0  0  0  0
    6.3279   -0.7445   -4.3040 H   0  0  0  0  0  0  0  0  0  0  0  0
    5.3747    0.8175   -2.8288 H   0  0  0  0  0  0  0  0  0  0  0  0
    6.7097    1.5343   -3.7136 H   0  0  0  0  0  0  0  0  0  0  0  0
    6.8950    2.1431   -1.3775 H   0  0  0  0  0  0  0  0  0  0  0  0
    8.2610    1.1690   -1.8388 H   0  0  0  0  0  0  0  0  0  0  0  0
    7.1956    2.5275    0.7147 H   0  0  0  0  0  0  0  0  0  0  0  0
    8.6897    3.1104    2.4903 H   0  0  0  0  0  0  0  0  0  0  0  0
    9.5611   -1.0849    3.1067 H   0  0  0  0  0  0  0  0  0  0  0  0
    8.2896   -1.6435    1.1716 H   0  0  0  0  0  0  0  0  0  0  0  0
   10.1992    3.6383    4.1015 H   0  0  0  0  0  0  0  0  0  0  0  0
   11.2008   -0.5294    4.6212 H   0  0  0  0  0  0  0  0  0  0  0  0
  1  2  1  0  0  0  0
  2  3  2  0  0  0  0
  2  7  1  0  0  0  0
  3  4  1  0  0  0  0
  3 26  1  0  0  0  0
  4  5  2  0  0  0  0
  4 27  1  0  0  0  0
  5  6  1  0  0  0  0
  5  8  1  0  0  0  0
  6  7  2  0  0  0  0
  6 28  1  0  0  0  0
  7 29  1  0  0  0  0
  8  9  1  0  0  0  0
  8 13  1  0  0  0  0
  8 14  1  0  0  0  0
  9 10  1  0  0  0  0
  9 30  1  0  0  0  0
  9 31  1  0  0  0  0
 10 11  1  0  0  0  0
 10 32  1  0  0  0  0
 10 33  1  0  0  0  0
 11 12  1  0  0  0  0
 11 34  1  0  0  0  0
 12 13  1  0  0  0  0
 12 35  1  0  0  0  0
 12 36  1  0  0  0  0
 13 37  1  0  0  0  0
 13 38  1  0  0  0  0
 14 15  2  0  0  0  0
 14 19  1  0  0  0  0
 15 16  1  0  0  0  0
 15 39  1  0  0  0  0
 16 17  2  0  0  0  0
 16 40  1  0  0  0  0
 17 18  1  0  0  0  0
 17 20  1  0  0  0  0
 18 19  2  0  0  0  0
 18 41  1  0  0  0  0
 19 42  1  0  0  0  0
 20 21  2  0  0  0  0
 20 25  1  0  0  0  0
 21 22  1  0  0  0  0
 21 43  1  0  0  0  0
 22 23  1  0  0  0  0
 22 24  1  0  0  0  0
 24 25  2  0  0  0  0
 25 44  1  0  0  0  0
M  END
$$$$
