GW7
 OpenBabel04121316123D

 45 48  0  0  0  0  0  0  0  0999 V2000
    0.9180   -0.2042    0.0233 C   0  0  0  0  0  0  0  0  0  0  0  0
    2.4308   -0.1622   -0.0187 C   0  0  0  0  0  0  0  0  0  0  0  0
    2.9150    1.2160    0.2457 C   0  0  0  0  0  0  0  0  0  0  0  0
    2.3399    2.4252   -0.0854 C   0  0  0  0  0  0  0  0  0  0  0  0
    3.0851    3.5246    0.3954 C   0  0  0  0  0  0  0  0  0  0  0  0
    4.2240    3.0927    1.0551 C   0  0  0  0  0  0  0  0  0  0  0  0
    4.3760    1.3990    1.0891 S   0  0  0  0  0  0  0  0  0  0  0  0
    5.0782    4.0316    1.5961 C   0  0  0  0  0  0  0  0  0  0  0  0
    4.7396    5.3260    1.3979 N   0  0  0  0  0  0  0  0  0  0  0  0
    3.6177    5.6664    0.7694 C   0  0  0  0  0  0  0  0  0  0  0  0
    2.7391    4.8232    0.2442 N   0  0  0  0  0  0  0  0  0  0  0  0
    6.2217    3.6361    2.3044 N   0  0  0  0  0  0  0  0  0  0  0  0
    7.1614    4.4713    2.9129 C   0  0  0  0  0  0  0  0  0  0  0  0
    6.9265    5.8385    2.9696 C   0  0  0  0  0  0  0  0  0  0  0  0
    7.8431    6.7292    3.4504 C   0  0  0  0  0  0  0  0  0  0  0  0
    9.0794    6.2633    3.8345 C   0  0  0  0  0  0  0  0  0  0  0  0
    9.3429    4.8886    3.8378 C   0  0  0  0  0  0  0  0  0  0  0  0
    8.3636    3.9803    3.4198 C   0  0  0  0  0  0  0  0  0  0  0  0
   10.8903    4.2807    4.3091 Cl  0  0  0  0  0  0  0  0  0  0  0  0
   10.0607    7.1223    4.2075 O   0  0  0  0  0  0  0  0  0  0  0  0
    9.7350    8.5054    4.0937 C   0  0  0  0  0  0  0  0  0  0  0  0
   10.9481    9.2986    4.4434 C   0  0  0  0  0  0  0  0  0  0  0  0
   10.8702   10.6946    4.4554 C   0  0  0  0  0  0  0  0  0  0  0  0
   12.0116   11.4428    4.7191 C   0  0  0  0  0  0  0  0  0  0  0  0
   13.2400   10.8003    4.8822 C   0  0  0  0  0  0  0  0  0  0  0  0
   13.3065    9.4144    4.8760 C   0  0  0  0  0  0  0  0  0  0  0  0
   12.1654    8.6604    4.7101 C   0  0  0  0  0  0  0  0  0  0  0  0
   14.4838    8.7938    5.0142 F   0  0  0  0  0  0  0  0  0  0  0  0
    0.5623   -1.2201   -0.1473 H   0  0  0  0  0  0  0  0  0  0  0  0
    0.4876    0.4459   -0.7456 H   0  0  0  0  0  0  0  0  0  0  0  0
    0.5534    0.1435    0.9974 H   0  0  0  0  0  0  0  0  0  0  0  0
    2.8123   -0.4920   -0.9906 H   0  0  0  0  0  0  0  0  0  0  0  0
    2.8238   -0.8513    0.7398 H   0  0  0  0  0  0  0  0  0  0  0  0
    1.4096    2.5447   -0.6231 H   0  0  0  0  0  0  0  0  0  0  0  0
    3.4171    6.7281    0.6941 H   0  0  0  0  0  0  0  0  0  0  0  0
    6.3903    2.6414    2.3333 H   0  0  0  0  0  0  0  0  0  0  0  0
    6.0209    6.3085    2.6268 H   0  0  0  0  0  0  0  0  0  0  0  0
    7.5315    7.7638    3.4542 H   0  0  0  0  0  0  0  0  0  0  0  0
    8.5640    2.9147    3.4689 H   0  0  0  0  0  0  0  0  0  0  0  0
    8.9273    8.7609    4.7920 H   0  0  0  0  0  0  0  0  0  0  0  0
    9.4521    8.7586    3.0595 H   0  0  0  0  0  0  0  0  0  0  0  0
    9.9250   11.1954    4.2509 H   0  0  0  0  0  0  0  0  0  0  0  0
   11.9455   12.5243    4.7787 H   0  0  0  0  0  0  0  0  0  0  0  0
   14.1509   11.3699    5.0144 H   0  0  0  0  0  0  0  0  0  0  0  0
   12.2415    7.5769    4.7626 H   0  0  0  0  0  0  0  0  0  0  0  0
  1  2  1  0  0  0  0
  1 29  1  0  0  0  0
  1 30  1  0  0  0  0
  1 31  1  0  0  0  0
  2  3  1  0  0  0  0
  2 32  1  0  0  0  0
  2 33  1  0  0  0  0
  3  4  2  0  0  0  0
  3  7  1  0  0  0  0
  4  5  1  0  0  0  0
  4 34  1  0  0  0  0
  5  6  2  0  0  0  0
  5 11  1  0  0  0  0
  6  7  1  0  0  0  0
  6  8  1  0  0  0  0
  8  9  2  0  0  0  0
  8 12  1  0  0  0  0
  9 10  1  0  0  0  0
 10 11  2  0  0  0  0
 10 35  1  0  0  0  0
 12 13  1  0  0  0  0
 12 36  1  0  0  0  0
 13 14  2  0  0  0  0
 13 18  1  0  0  0  0
 14 15  1  0  0  0  0
 14 37  1  0  0  0  0
 15 16  2  0  0  0  0
 15 38  1  0  0  0  0
 16 17  1  0  0  0  0
 16 20  1  0  0  0  0
 17 18  2  0  0  0  0
 17 19  1  0  0  0  0
 18 39  1  0  0  0  0
 20 21  1  0  0  0  0
 21 22  1  0  0  0  0
 21 40  1  0  0  0  0
 21 41  1  0  0  0  0
 22 23  2  0  0  0  0
 22 27  1  0  0  0  0
 23 24  1  0  0  0  0
 23 42  1  0  0  0  0
 24 25  2  0  0  0  0
 24 43  1  0  0  0  0
 25 26  1  0  0  0  0
 25 44  1  0  0  0  0
 26 27  2  0  0  0  0
 26 28  1  0  0  0  0
 27 45  1  0  0  0  0
M  END
$$$$
