GYP
 OpenBabel04121316123D

 27 27  0  0  1  0  0  0  0  0999 V2000
    0.8240   -0.0061    0.1902 C   0  0  0  0  0  0  0  0  0  0  0  0
    2.2116   -0.0175   -0.0310 O   0  0  0  0  0  0  0  0  0  0  0  0
    2.9502   -1.1597    0.4336 C   0  0  1  0  0  0  0  0  0  0  0  0
    3.0263   -1.1071    1.5273 H   0  0  0  0  0  0  0  0  0  0  0  0
    2.3922   -2.4288    0.0828 O   0  0  0  0  0  0  0  0  0  0  0  0
    2.2729   -2.6758   -1.3229 C   0  0  2  0  0  0  0  0  0  0  0  0
    1.5043   -2.0096   -1.7264 H   0  0  0  0  0  0  0  0  0  0  0  0
    1.7562   -4.1116   -1.5432 C   0  0  0  0  0  0  0  0  0  0  0  0
    1.4364   -4.3768   -2.9073 O   0  0  0  0  0  0  0  0  0  0  0  0
    3.5824   -2.4162   -2.0864 C   0  0  2  0  0  0  0  0  0  0  0  0
    4.3278   -3.1835   -1.8453 H   0  0  0  0  0  0  0  0  0  0  0  0
    4.1428   -1.0408   -1.7214 C   0  0  1  0  0  0  0  0  0  0  0  0
    3.4538   -0.2613   -2.0726 H   0  0  0  0  0  0  0  0  0  0  0  0
    4.3402   -0.9401   -0.2018 C   0  0  1  0  0  0  0  0  0  0  0  0
    5.0820   -1.6682    0.1433 H   0  0  0  0  0  0  0  0  0  0  0  0
    4.8120    0.3742    0.1467 O   0  0  0  0  0  0  0  0  0  0  0  0
    5.3520   -0.8132   -2.4474 O   0  0  0  0  0  0  0  0  0  0  0  0
    3.3972   -2.4319   -3.5101 O   0  0  0  0  0  0  0  0  0  0  0  0
    0.4709    0.9777   -0.1344 H   0  0  0  0  0  0  0  0  0  0  0  0
    0.5709   -0.1531    1.2399 H   0  0  0  0  0  0  0  0  0  0  0  0
    0.3349   -0.7481   -0.4421 H   0  0  0  0  0  0  0  0  0  0  0  0
    0.8527   -4.2898   -0.9502 H   0  0  0  0  0  0  0  0  0  0  0  0
    2.4963   -4.8484   -1.2160 H   0  0  0  0  0  0  0  0  0  0  0  0
    0.8865   -3.6617   -3.2456 H   0  0  0  0  0  0  0  0  0  0  0  0
    4.0819    0.9782   -0.0957 H   0  0  0  0  0  0  0  0  0  0  0  0
    5.1348   -1.0299   -3.3759 H   0  0  0  0  0  0  0  0  0  0  0  0
    2.5835   -1.9510   -3.7216 H   0  0  0  0  0  0  0  0  0  0  0  0
  1  2  1  0  0  0  0
  1 19  1  0  0  0  0
  1 20  1  0  0  0  0
  1 21  1  0  0  0  0
  2  3  1  0  0  0  0
  3  4  1  1  0  0  0
  3  5  1  0  0  0  0
  3 14  1  0  0  0  0
  5  6  1  0  0  0  0
  6  7  1  6  0  0  0
  6  8  1  0  0  0  0
  6 10  1  0  0  0  0
  8  9  1  0  0  0  0
  8 22  1  0  0  0  0
  8 23  1  0  0  0  0
  9 24  1  0  0  0  0
 10 12  1  0  0  0  0
 10 18  1  0  0  0  0
 10 11  1  1  0  0  0
 12 13  1  6  0  0  0
 12 14  1  0  0  0  0
 12 17  1  0  0  0  0
 14 16  1  0  0  0  0
 14 15  1  1  0  0  0
 16 25  1  0  0  0  0
 17 26  1  0  0  0  0
 18 27  1  0  0  0  0
M  END
$$$$
