H06
 OpenBabel04121316133D

 33 34  0  0  0  0  0  0  0  0999 V2000
    0.8779   -0.0646   -0.1124 O   0  0  0  0  0  0  0  0  0  0  0  0
    2.0990   -0.0341   -0.0639 C   0  0  0  0  0  0  0  0  0  0  0  0
    2.8227   -0.8555    0.9331 C   0  0  0  0  0  0  0  0  0  0  0  0
    3.8037   -0.3378    1.7809 C   0  0  0  0  0  0  0  0  0  0  0  0
    4.4277   -1.1832    2.6953 C   0  0  0  0  0  0  0  0  0  0  0  0
    4.1029   -2.5311    2.6703 C   0  0  0  0  0  0  0  0  0  0  0  0
    3.1415   -3.0579    1.8798 N   0  0  0  0  0  0  0  0  0  0  0  0
    2.4924   -2.1957    1.0563 C   0  0  0  0  0  0  0  0  0  0  0  0
    2.8436    0.7257   -0.9494 N   0  0  0  0  0  0  0  0  0  0  0  0
    4.1900    0.6664   -0.9596 N   0  0  0  0  0  0  0  0  0  0  0  0
    4.8110    1.3558   -1.8551 C   0  0  0  0  0  0  0  0  0  0  0  0
    6.2817    1.3618   -1.8474 C   0  0  0  0  0  0  0  0  0  0  0  0
    6.9671    0.7422   -0.7980 C   0  0  0  0  0  0  0  0  0  0  0  0
    8.3420    0.9123   -0.6683 C   0  0  0  0  0  0  0  0  0  0  0  0
    9.0563    1.6054   -1.6504 C   0  0  0  0  0  0  0  0  0  0  0  0
    8.3694    2.0891   -2.7788 C   0  0  0  0  0  0  0  0  0  0  0  0
    6.9768    2.0275   -2.8490 C   0  0  0  0  0  0  0  0  0  0  0  0
   10.5204    1.8719   -1.4912 C   0  0  0  0  0  0  0  0  0  0  0  0
   11.2066    1.5415   -0.4417 N   0  0  0  0  0  0  0  0  0  0  0  0
   11.2220    2.5136   -2.4575 N   0  0  0  0  0  0  0  0  0  0  0  0
    4.0788    0.7118    1.7325 H   0  0  0  0  0  0  0  0  0  0  0  0
    5.1482   -0.8015    3.4099 H   0  0  0  0  0  0  0  0  0  0  0  0
    4.6192   -3.2428    3.3089 H   0  0  0  0  0  0  0  0  0  0  0  0
    1.6775   -2.6286    0.4831 H   0  0  0  0  0  0  0  0  0  0  0  0
    2.3379    1.2541   -1.6521 H   0  0  0  0  0  0  0  0  0  0  0  0
    4.2923    1.9694   -2.6130 H   0  0  0  0  0  0  0  0  0  0  0  0
    6.4346    0.1532   -0.0542 H   0  0  0  0  0  0  0  0  0  0  0  0
    8.8140    0.4982    0.2152 H   0  0  0  0  0  0  0  0  0  0  0  0
    8.8933    2.5403   -3.6135 H   0  0  0  0  0  0  0  0  0  0  0  0
    6.4589    2.5022   -3.6777 H   0  0  0  0  0  0  0  0  0  0  0  0
   10.6511    1.0712    0.2710 H   0  0  0  0  0  0  0  0  0  0  0  0
   10.8202    2.9270   -3.2815 H   0  0  0  0  0  0  0  0  0  0  0  0
   12.1872    2.7287   -2.2438 H   0  0  0  0  0  0  0  0  0  0  0  0
  1  2  2  0  0  0  0
  2  3  1  0  0  0  0
  2  9  1  0  0  0  0
  3  4  2  0  0  0  0
  3  8  1  0  0  0  0
  4  5  1  0  0  0  0
  4 21  1  0  0  0  0
  5  6  2  0  0  0  0
  5 22  1  0  0  0  0
  6  7  1  0  0  0  0
  6 23  1  0  0  0  0
  7  8  2  0  0  0  0
  8 24  1  0  0  0  0
  9 10  1  0  0  0  0
  9 25  1  0  0  0  0
 10 11  2  0  0  0  0
 11 12  1  0  0  0  0
 11 26  1  0  0  0  0
 12 13  2  0  0  0  0
 12 17  1  0  0  0  0
 13 14  1  0  0  0  0
 13 27  1  0  0  0  0
 14 15  2  0  0  0  0
 14 28  1  0  0  0  0
 15 16  1  0  0  0  0
 15 18  1  0  0  0  0
 16 17  2  0  0  0  0
 16 29  1  0  0  0  0
 17 30  1  0  0  0  0
 18 19  2  0  0  0  0
 18 20  1  0  0  0  0
 19 31  1  0  0  0  0
 20 32  1  0  0  0  0
 20 33  1  0  0  0  0
M  END
$$$$
