H12
 OpenBabel04121316133D

 44 46  0  0  0  0  0  0  0  0999 V2000
    0.9119   -0.2064   -0.0627 C   0  0  0  0  0  0  0  0  0  0  0  0
    2.3781   -0.5927   -0.2206 C   0  0  0  0  0  0  0  0  0  0  0  0
    2.9499   -1.2397    1.0423 C   0  0  0  0  0  0  0  0  0  0  0  0
    4.4338   -0.9512    1.1602 C   0  0  0  0  0  0  0  0  0  0  0  0
    5.2120   -2.2321    1.1481 C   0  0  0  0  0  0  0  0  0  0  0  0
    4.6774   -3.3208    1.1022 O   0  0  0  0  0  0  0  0  0  0  0  0
    6.5688   -2.1374    1.1780 N   0  0  0  0  0  0  0  0  0  0  0  0
    7.0473   -3.0250    1.1229 H   0  0  0  0  0  0  0  0  0  0  0  0
    7.2602   -0.9359    1.1545 C   0  0  0  0  0  0  0  0  0  0  0  0
    6.5581    0.2749    1.2044 C   0  0  0  0  0  0  0  0  0  0  0  0
    5.0722    0.2521    1.2418 C   0  0  0  0  0  0  0  0  0  0  0  0
    4.5399    1.5336    1.2924 O   0  0  0  0  0  0  0  0  0  0  0  0
    3.1369    1.7626    1.2754 C   0  0  0  0  0  0  0  0  0  0  0  0
    2.6410    2.5004    2.4912 C   0  0  0  0  0  0  0  0  0  0  0  0
    3.0758    3.9335    2.3791 C   0  0  0  0  0  0  0  0  0  0  0  0
    2.5617    4.5563    1.0782 C   0  0  0  0  0  0  0  0  0  0  0  0
    3.0946    3.8418   -0.1493 C   0  0  0  0  0  0  0  0  0  0  0  0
    2.6679    2.4107   -0.0523 C   0  0  0  0  0  0  0  0  0  0  0  0
    7.2969    1.4669    1.1676 C   0  0  0  0  0  0  0  0  0  0  0  0
    8.6681    1.4288    0.9135 C   0  0  0  0  0  0  0  0  0  0  0  0
    9.3270    0.2116    0.7614 C   0  0  0  0  0  0  0  0  0  0  0  0
    8.6441   -0.9722    1.0130 C   0  0  0  0  0  0  0  0  0  0  0  0
    9.5670    2.8928    0.8280 Cl  0  0  0  0  0  0  0  0  0  0  0  0
    0.6096    0.5234   -0.8218 H   0  0  0  0  0  0  0  0  0  0  0  0
    0.6881    0.2513    0.9124 H   0  0  0  0  0  0  0  0  0  0  0  0
    0.2912   -1.0928   -0.1615 H   0  0  0  0  0  0  0  0  0  0  0  0
    2.9881    0.2637   -0.4206 H   0  0  0  0  0  0  0  0  0  0  0  0
    2.5843   -1.1197   -1.1515 H   0  0  0  0  0  0  0  0  0  0  0  0
    2.6835   -2.2939    0.9867 H   0  0  0  0  0  0  0  0  0  0  0  0
    2.4918   -0.9174    1.9899 H   0  0  0  0  0  0  0  0  0  0  0  0
    2.6211    0.8605    1.4795 H   0  0  0  0  0  0  0  0  0  0  0  0
    3.0220    2.0214    3.4018 H   0  0  0  0  0  0  0  0  0  0  0  0
    1.5431    2.4133    2.5204 H   0  0  0  0  0  0  0  0  0  0  0  0
    4.1706    3.9541    2.3944 H   0  0  0  0  0  0  0  0  0  0  0  0
    2.6980    4.4763    3.2449 H   0  0  0  0  0  0  0  0  0  0  0  0
    2.8479    5.6037    1.0298 H   0  0  0  0  0  0  0  0  0  0  0  0
    1.4644    4.4899    1.0608 H   0  0  0  0  0  0  0  0  0  0  0  0
    4.1870    3.8772   -0.2202 H   0  0  0  0  0  0  0  0  0  0  0  0
    2.6868    4.2645   -1.0758 H   0  0  0  0  0  0  0  0  0  0  0  0
    3.0601    1.9500   -0.9668 H   0  0  0  0  0  0  0  0  0  0  0  0
    1.5729    2.3638   -0.1086 H   0  0  0  0  0  0  0  0  0  0  0  0
    6.8067    2.4286    1.2996 H   0  0  0  0  0  0  0  0  0  0  0  0
   10.3677    0.1767    0.4541 H   0  0  0  0  0  0  0  0  0  0  0  0
    9.1851   -1.9122    1.0617 H   0  0  0  0  0  0  0  0  0  0  0  0
  1  2  1  0  0  0  0
  1 24  1  0  0  0  0
  1 25  1  0  0  0  0
  1 26  1  0  0  0  0
  2  3  1  0  0  0  0
  2 27  1  0  0  0  0
  2 28  1  0  0  0  0
  3  4  1  0  0  0  0
  3 29  1  0  0  0  0
  3 30  1  0  0  0  0
  4  5  1  0  0  0  0
  4 11  2  0  0  0  0
  5  6  2  0  0  0  0
  5  7  1  0  0  0  0
  7  8  1  0  0  0  0
  7  9  1  0  0  0  0
  9 10  2  0  0  0  0
  9 22  1  0  0  0  0
 10 11  1  0  0  0  0
 10 19  1  0  0  0  0
 11 12  1  0  0  0  0
 12 13  1  0  0  0  0
 13 14  1  0  0  0  0
 13 18  1  0  0  0  0
 13 31  1  0  0  0  0
 14 15  1  0  0  0  0
 14 32  1  0  0  0  0
 14 33  1  0  0  0  0
 15 16  1  0  0  0  0
 15 34  1  0  0  0  0
 15 35  1  0  0  0  0
 16 17  1  0  0  0  0
 16 36  1  0  0  0  0
 16 37  1  0  0  0  0
 17 18  1  0  0  0  0
 17 38  1  0  0  0  0
 17 39  1  0  0  0  0
 18 40  1  0  0  0  0
 18 41  1  0  0  0  0
 19 20  2  0  0  0  0
 19 42  1  0  0  0  0
 20 21  1  0  0  0  0
 20 23  1  0  0  0  0
 21 22  2  0  0  0  0
 21 43  1  0  0  0  0
 22 44  1  0  0  0  0
M  END
$$$$
