H13
 OpenBabel04121316133D

 66 66  0  0  1  0  0  0  0  0999 V2000
   18.8137    6.6256  -11.1034 C   0  0  0  0  0  0  0  0  0  0  0  0
   18.5747    6.3134   -9.6394 C   0  0  0  0  0  0  0  0  0  0  0  0
   17.8063    7.4461   -8.9745 C   0  0  0  0  0  0  0  0  0  0  0  0
   17.5656    7.1352   -7.5067 C   0  0  0  0  0  0  0  0  0  0  0  0
   16.7985    8.2709   -6.8524 C   0  0  0  0  0  0  0  0  0  0  0  0
   16.5602    7.9570   -5.3873 C   0  0  0  0  0  0  0  0  0  0  0  0
   15.7947    9.0913   -4.7360 C   0  0  0  0  0  0  0  0  0  0  0  0
   15.5565    8.7752   -3.2730 C   0  0  0  0  0  0  0  0  0  0  0  0
   14.7868    9.9117   -2.6365 C   0  0  0  0  0  0  0  0  0  0  0  0
   14.5238    9.6095   -1.1795 C   0  0  0  0  0  0  0  0  0  0  0  0
   13.7253   10.7584   -0.5878 C   0  0  0  0  0  0  0  0  0  0  0  0
   13.4599   10.4766    0.8644 C   0  0  0  0  0  0  0  0  0  0  0  0
   12.7619   11.6257    1.5589 C   0  0  0  0  0  0  0  0  0  0  0  0
   12.3375   12.6201    0.9644 O   0  0  0  0  0  0  0  0  0  0  0  0
   12.5949   11.5301    2.9118 N   0  0  0  0  0  0  0  0  0  0  0  0
   13.1044   10.4490    3.7498 C   0  0  2  0  0  0  0  0  0  0  0  0
   12.8626    9.5505    3.1931 H   0  0  0  0  0  0  0  0  0  0  0  0
   12.4441   10.4691    5.1467 C   0  0  0  0  0  0  0  0  0  0  0  0
   12.8221    9.2400    5.9916 C   0  0  2  0  0  0  0  0  0  0  0  0
   13.9145    9.2104    6.0903 H   0  0  0  0  0  0  0  0  0  0  0  0
   12.3620    7.9060    5.4207 C   0  0  0  0  0  0  0  0  0  0  0  0
   12.7248    6.7167    6.0599 C   0  0  0  0  0  0  0  0  0  0  0  0
   12.5901    5.4923    5.4028 C   0  0  0  0  0  0  0  0  0  0  0  0
   12.0540    5.4319    4.1183 C   0  0  0  0  0  0  0  0  0  0  0  0
   11.5511    6.5808    3.5327 C   0  0  0  0  0  0  0  0  0  0  0  0
   11.6669    7.7929    4.2031 C   0  0  0  0  0  0  0  0  0  0  0  0
   12.3262    9.4138    7.3134 O   0  0  0  0  0  0  0  0  0  0  0  0
   14.6368   10.4445    3.8606 C   0  0  0  0  0  0  0  0  0  0  0  0
   15.0796   11.6652    4.4202 O   0  0  0  0  0  0  0  0  0  0  0  0
   19.3657    5.8110  -11.5792 H   0  0  0  0  0  0  0  0  0  0  0  0
   19.3943    7.5472  -11.2123 H   0  0  0  0  0  0  0  0  0  0  0  0
   17.8634    6.7545  -11.6312 H   0  0  0  0  0  0  0  0  0  0  0  0
   19.5354    6.1662   -9.1322 H   0  0  0  0  0  0  0  0  0  0  0  0
   18.0115    5.3772   -9.5492 H   0  0  0  0  0  0  0  0  0  0  0  0
   16.8453    7.5950   -9.4825 H   0  0  0  0  0  0  0  0  0  0  0  0
   18.3686    8.3837   -9.0656 H   0  0  0  0  0  0  0  0  0  0  0  0
   18.5234    6.9900   -6.9923 H   0  0  0  0  0  0  0  0  0  0  0  0
   16.9992    6.2009   -7.4094 H   0  0  0  0  0  0  0  0  0  0  0  0
   15.8384    8.4184   -7.3623 H   0  0  0  0  0  0  0  0  0  0  0  0
   17.3622    9.2074   -6.9453 H   0  0  0  0  0  0  0  0  0  0  0  0
   17.5185    7.8115   -4.8738 H   0  0  0  0  0  0  0  0  0  0  0  0
   15.9942    7.0223   -5.2910 H   0  0  0  0  0  0  0  0  0  0  0  0
   14.8348    9.2388   -5.2466 H   0  0  0  0  0  0  0  0  0  0  0  0
   16.3584   10.0279   -4.8288 H   0  0  0  0  0  0  0  0  0  0  0  0
   16.5137    8.6327   -2.7564 H   0  0  0  0  0  0  0  0  0  0  0  0
   14.9914    7.8401   -3.1764 H   0  0  0  0  0  0  0  0  0  0  0  0
   13.8332   10.0591   -3.1572 H   0  0  0  0  0  0  0  0  0  0  0  0
   15.3548   10.8464   -2.7239 H   0  0  0  0  0  0  0  0  0  0  0  0
   15.4763    9.4817   -0.6462 H   0  0  0  0  0  0  0  0  0  0  0  0
   13.9721    8.6669   -1.0746 H   0  0  0  0  0  0  0  0  0  0  0  0
   12.7816   10.8996   -1.1222 H   0  0  0  0  0  0  0  0  0  0  0  0
   14.3037   11.6871   -0.6729 H   0  0  0  0  0  0  0  0  0  0  0  0
   14.4448   10.3217    1.2851 H   0  0  0  0  0  0  0  0  0  0  0  0
   12.8831    9.5530    0.9886 H   0  0  0  0  0  0  0  0  0  0  0  0
   12.0096   12.2562    3.3156 H   0  0  0  0  0  0  0  0  0  0  0  0
   11.3492   10.5327    5.0745 H   0  0  0  0  0  0  0  0  0  0  0  0
   12.7343   11.3859    5.6783 H   0  0  0  0  0  0  0  0  0  0  0  0
   13.1245    6.7270    7.0701 H   0  0  0  0  0  0  0  0  0  0  0  0
   12.9192    4.5818    5.8936 H   0  0  0  0  0  0  0  0  0  0  0  0
   11.9924    4.4862    3.5901 H   0  0  0  0  0  0  0  0  0  0  0  0
   11.0714    6.5518    2.5578 H   0  0  0  0  0  0  0  0  0  0  0  0
   11.2242    8.6535    3.7093 H   0  0  0  0  0  0  0  0  0  0  0  0
   12.7313    8.7149    7.8548 H   0  0  0  0  0  0  0  0  0  0  0  0
   15.1485   10.3287    2.9134 H   0  0  0  0  0  0  0  0  0  0  0  0
   14.9935    9.5939    4.4439 H   0  0  0  0  0  0  0  0  0  0  0  0
   14.6779   12.3608    3.8638 H   0  0  0  0  0  0  0  0  0  0  0  0
  1  2  1  0  0  0  0
  1 30  1  0  0  0  0
  1 31  1  0  0  0  0
  1 32  1  0  0  0  0
  2  3  1  0  0  0  0
  2 33  1  0  0  0  0
  2 34  1  0  0  0  0
  3  4  1  0  0  0  0
  3 35  1  0  0  0  0
  3 36  1  0  0  0  0
  4  5  1  0  0  0  0
  4 37  1  0  0  0  0
  4 38  1  0  0  0  0
  5  6  1  0  0  0  0
  5 39  1  0  0  0  0
  5 40  1  0  0  0  0
  6  7  1  0  0  0  0
  6 41  1  0  0  0  0
  6 42  1  0  0  0  0
  7  8  1  0  0  0  0
  7 43  1  0  0  0  0
  7 44  1  0  0  0  0
  8  9  1  0  0  0  0
  8 45  1  0  0  0  0
  8 46  1  0  0  0  0
  9 10  1  0  0  0  0
  9 47  1  0  0  0  0
  9 48  1  0  0  0  0
 10 11  1  0  0  0  0
 10 49  1  0  0  0  0
 10 50  1  0  0  0  0
 11 12  1  0  0  0  0
 11 51  1  0  0  0  0
 11 52  1  0  0  0  0
 12 13  1  0  0  0  0
 12 53  1  0  0  0  0
 12 54  1  0  0  0  0
 13 14  2  0  0  0  0
 13 15  1  0  0  0  0
 15 55  1  0  0  0  0
 16 18  1  0  0  0  0
 16 28  1  0  0  0  0
 16 17  1  6  0  0  0
 16 15  1  0  0  0  0
 18 56  1  0  0  0  0
 18 57  1  0  0  0  0
 19 21  1  0  0  0  0
 19 27  1  0  0  0  0
 19 20  1  1  0  0  0
 19 18  1  0  0  0  0
 21 22  2  0  0  0  0
 21 26  1  0  0  0  0
 22 23  1  0  0  0  0
 22 58  1  0  0  0  0
 23 24  2  0  0  0  0
 23 59  1  0  0  0  0
 24 25  1  0  0  0  0
 24 60  1  0  0  0  0
 25 26  2  0  0  0  0
 25 61  1  0  0  0  0
 26 62  1  0  0  0  0
 27 63  1  0  0  0  0
 28 29  1  0  0  0  0
 28 64  1  0  0  0  0
 28 65  1  0  0  0  0
 29 66  1  0  0  0  0
M  END
$$$$
