H15
 OpenBabel04121316133D

 72 72  0  0  1  0  0  0  0  0999 V2000
   17.0575   14.7653    8.0003 C   0  0  0  0  0  0  0  0  0  0  0  0
   16.1949   14.2114    6.8837 C   0  0  0  0  0  0  0  0  0  0  0  0
   16.9310   14.2951    5.5547 C   0  0  0  0  0  0  0  0  0  0  0  0
   16.0681   13.7404    4.4338 C   0  0  0  0  0  0  0  0  0  0  0  0
   16.8111   13.8282    3.1121 C   0  0  0  0  0  0  0  0  0  0  0  0
   15.9467   13.2735    1.9956 C   0  0  0  0  0  0  0  0  0  0  0  0
   16.6888   13.3612    0.6767 C   0  0  0  0  0  0  0  0  0  0  0  0
   15.8204   12.8053   -0.4345 C   0  0  0  0  0  0  0  0  0  0  0  0
   16.5626   12.8941   -1.7485 C   0  0  0  0  0  0  0  0  0  0  0  0
   15.7015   12.3452   -2.8698 C   0  0  0  0  0  0  0  0  0  0  0  0
   16.4843   12.4798   -4.1555 C   0  0  0  0  0  0  0  0  0  0  0  0
   15.6998   12.0141   -5.3527 C   0  0  0  0  0  0  0  0  0  0  0  0
   16.5689   12.3166   -6.6016 C   0  0  0  0  0  0  0  0  0  0  0  0
   15.8235   11.9241   -7.8399 C   0  0  0  0  0  0  0  0  0  0  0  0
   16.4241   11.7198   -9.2074 C   0  0  0  0  0  0  0  0  0  0  0  0
   17.5563   12.0814   -9.4615 O   0  0  0  0  0  0  0  0  0  0  0  0
   15.6783   11.0739  -10.1831 N   0  0  0  0  0  0  0  0  0  0  0  0
   14.3434   10.3779  -10.1952 C   0  0  2  0  0  0  0  0  0  0  0  0
   13.6093   11.0934   -9.8028 H   0  0  0  0  0  0  0  0  0  0  0  0
   14.2881    9.0299   -9.4097 C   0  0  0  0  0  0  0  0  0  0  0  0
   14.5483    9.2757   -7.9579 C   0  0  2  0  0  0  0  0  0  0  0  0
   15.6444    9.3677   -7.9337 H   0  0  0  0  0  0  0  0  0  0  0  0
   14.3041    8.2886   -6.8898 C   0  0  0  0  0  0  0  0  0  0  0  0
   14.9546    7.0661   -6.9559 C   0  0  0  0  0  0  0  0  0  0  0  0
   14.5574    6.0795   -6.0797 C   0  0  0  0  0  0  0  0  0  0  0  0
   13.6683    6.3783   -5.0413 C   0  0  0  0  0  0  0  0  0  0  0  0
   13.2093    7.6699   -4.8356 C   0  0  0  0  0  0  0  0  0  0  0  0
   13.4899    8.6123   -5.7889 C   0  0  0  0  0  0  0  0  0  0  0  0
   13.7330   10.4063   -7.6438 O   0  0  0  0  0  0  0  0  0  0  0  0
   13.9097   10.0308  -11.6331 C   0  0  0  0  0  0  0  0  0  0  0  0
   14.8244    9.1219  -12.2426 O   0  0  0  0  0  0  0  0  0  0  0  0
   16.5275   14.7045    8.9542 H   0  0  0  0  0  0  0  0  0  0  0  0
   17.3094   15.8136    7.8102 H   0  0  0  0  0  0  0  0  0  0  0  0
   17.9901   14.1984    8.0855 H   0  0  0  0  0  0  0  0  0  0  0  0
   15.2572   14.7766    6.8272 H   0  0  0  0  0  0  0  0  0  0  0  0
   15.9348   13.1689    7.1012 H   0  0  0  0  0  0  0  0  0  0  0  0
   17.8702   13.7310    5.6110 H   0  0  0  0  0  0  0  0  0  0  0  0
   17.1930   15.3380    5.3370 H   0  0  0  0  0  0  0  0  0  0  0  0
   15.1292   14.3039    4.3696 H   0  0  0  0  0  0  0  0  0  0  0  0
   15.8069   12.6959    4.6437 H   0  0  0  0  0  0  0  0  0  0  0  0
   17.7500   13.2640    3.1711 H   0  0  0  0  0  0  0  0  0  0  0  0
   17.0724   14.8717    2.8970 H   0  0  0  0  0  0  0  0  0  0  0  0
   15.0078   13.8373    1.9326 H   0  0  0  0  0  0  0  0  0  0  0  0
   15.6854   12.2293    2.2068 H   0  0  0  0  0  0  0  0  0  0  0  0
   17.6280   12.7972    0.7354 H   0  0  0  0  0  0  0  0  0  0  0  0
   16.9503   14.4048    0.4611 H   0  0  0  0  0  0  0  0  0  0  0  0
   14.8826   13.3703   -0.4978 H   0  0  0  0  0  0  0  0  0  0  0  0
   15.5604   11.7611   -0.2237 H   0  0  0  0  0  0  0  0  0  0  0  0
   17.5028   12.3309   -1.6900 H   0  0  0  0  0  0  0  0  0  0  0  0
   16.8267   13.9385   -1.9602 H   0  0  0  0  0  0  0  0  0  0  0  0
   14.7612   12.9056   -2.9351 H   0  0  0  0  0  0  0  0  0  0  0  0
   15.4462   11.2960   -2.6769 H   0  0  0  0  0  0  0  0  0  0  0  0
   17.4109   11.8966   -4.0879 H   0  0  0  0  0  0  0  0  0  0  0  0
   16.7598   13.5277   -4.3125 H   0  0  0  0  0  0  0  0  0  0  0  0
   14.7250   12.5176   -5.4075 H   0  0  0  0  0  0  0  0  0  0  0  0
   15.4828   10.9400   -5.2308 H   0  0  0  0  0  0  0  0  0  0  0  0
   17.4748   11.6989   -6.5197 H   0  0  0  0  0  0  0  0  0  0  0  0
   16.8508   13.3635   -6.6534 H   0  0  0  0  0  0  0  0  0  0  0  0
   14.8439   12.3995   -7.9116 H   0  0  0  0  0  0  0  0  0  0  0  0
   15.7808   10.9264   -7.5058 H   0  0  0  0  0  0  0  0  0  0  0  0
   16.1541   11.1506  -11.0716 H   0  0  0  0  0  0  0  0  0  0  0  0
   15.0135    8.3114   -9.8084 H   0  0  0  0  0  0  0  0  0  0  0  0
   13.2908    8.5841   -9.4972 H   0  0  0  0  0  0  0  0  0  0  0  0
   15.7192    6.8823   -7.7095 H   0  0  0  0  0  0  0  0  0  0  0  0
   14.9241    5.0713   -6.2259 H   0  0  0  0  0  0  0  0  0  0  0  0
   13.3221    5.5928   -4.3850 H   0  0  0  0  0  0  0  0  0  0  0  0
   12.5905    7.9487   -3.9906 H   0  0  0  0  0  0  0  0  0  0  0  0
   13.0244    9.5886   -5.6683 H   0  0  0  0  0  0  0  0  0  0  0  0
   14.0182   10.7494   -6.7818 H   0  0  0  0  0  0  0  0  0  0  0  0
   13.8367   10.9232  -12.2574 H   0  0  0  0  0  0  0  0  0  0  0  0
   12.9273    9.5418  -11.6194 H   0  0  0  0  0  0  0  0  0  0  0  0
   15.7161    9.4987  -12.1646 H   0  0  0  0  0  0  0  0  0  0  0  0
  1  2  1  0  0  0  0
  1 32  1  0  0  0  0
  1 33  1  0  0  0  0
  1 34  1  0  0  0  0
  2  3  1  0  0  0  0
  2 35  1  0  0  0  0
  2 36  1  0  0  0  0
  3  4  1  0  0  0  0
  3 37  1  0  0  0  0
  3 38  1  0  0  0  0
  4  5  1  0  0  0  0
  4 39  1  0  0  0  0
  4 40  1  0  0  0  0
  5  6  1  0  0  0  0
  5 41  1  0  0  0  0
  5 42  1  0  0  0  0
  6  7  1  0  0  0  0
  6 43  1  0  0  0  0
  6 44  1  0  0  0  0
  7  8  1  0  0  0  0
  7 45  1  0  0  0  0
  7 46  1  0  0  0  0
  8  9  1  0  0  0  0
  8 47  1  0  0  0  0
  8 48  1  0  0  0  0
  9 10  1  0  0  0  0
  9 49  1  0  0  0  0
  9 50  1  0  0  0  0
 10 11  1  0  0  0  0
 10 51  1  0  0  0  0
 10 52  1  0  0  0  0
 11 12  1  0  0  0  0
 11 53  1  0  0  0  0
 11 54  1  0  0  0  0
 12 13  1  0  0  0  0
 12 55  1  0  0  0  0
 12 56  1  0  0  0  0
 13 14  1  0  0  0  0
 13 57  1  0  0  0  0
 13 58  1  0  0  0  0
 14 15  1  0  0  0  0
 14 59  1  0  0  0  0
 14 60  1  0  0  0  0
 15 16  2  0  0  0  0
 15 17  1  0  0  0  0
 17 61  1  0  0  0  0
 18 20  1  0  0  0  0
 18 30  1  0  0  0  0
 18 19  1  1  0  0  0
 18 17  1  0  0  0  0
 20 62  1  0  0  0  0
 20 63  1  0  0  0  0
 21 23  1  0  0  0  0
 21 29  1  0  0  0  0
 21 22  1  1  0  0  0
 21 20  1  0  0  0  0
 23 24  2  0  0  0  0
 23 28  1  0  0  0  0
 24 25  1  0  0  0  0
 24 64  1  0  0  0  0
 25 26  2  0  0  0  0
 25 65  1  0  0  0  0
 26 27  1  0  0  0  0
 26 66  1  0  0  0  0
 27 28  2  0  0  0  0
 27 67  1  0  0  0  0
 28 68  1  0  0  0  0
 29 69  1  0  0  0  0
 30 31  1  0  0  0  0
 30 70  1  0  0  0  0
 30 71  1  0  0  0  0
 31 72  1  0  0  0  0
M  END
$$$$
