H18
 OpenBabel04121316133D

 45 47  0  0  0  0  0  0  0  0999 V2000
    8.8761    1.5600    2.0412 C   0  0  0  0  0  0  0  0  0  0  0  0
    8.2133    2.9152    1.9436 C   0  0  0  0  0  0  0  0  0  0  0  0
    6.9589    2.9093    2.7844 C   0  0  0  0  0  0  0  0  0  0  0  0
    6.0268    4.0927    2.6808 C   0  0  0  0  0  0  0  0  0  0  0  0
    6.6999    5.4031    2.4226 C   0  0  0  0  0  0  0  0  0  0  0  0
    7.9163    5.5599    2.2858 O   0  0  0  0  0  0  0  0  0  0  0  0
    5.9318    6.5019    2.3416 N   0  0  0  0  0  0  0  0  0  0  0  0
    6.4399    7.3460    2.1139 H   0  0  0  0  0  0  0  0  0  0  0  0
    4.5597    6.4891    2.4843 C   0  0  0  0  0  0  0  0  0  0  0  0
    3.8961    5.2995    2.8167 C   0  0  0  0  0  0  0  0  0  0  0  0
    4.6756    4.0317    2.8652 C   0  0  0  0  0  0  0  0  0  0  0  0
    4.0223    2.4314    3.4026 S   0  0  2  0  0  0  0  0  0  0  0  0
    4.7493    1.3717    2.6398 O   0  0  0  0  0  0  0  0  0  0  0  0
    2.2984    2.1972    2.9525 C   0  0  0  0  0  0  0  0  0  0  0  0
    1.9268    2.6805    1.5537 C   0  0  0  0  0  0  0  0  0  0  0  0
    2.5530    1.8577    0.4423 C   0  0  0  0  0  0  0  0  0  0  0  0
    2.1689    0.3944    0.5805 C   0  0  0  0  0  0  0  0  0  0  0  0
    2.5271   -0.1823    1.9446 C   0  0  0  0  0  0  0  0  0  0  0  0
    1.9764    0.6862    3.0890 C   0  0  0  0  0  0  0  0  0  0  0  0
    2.5215    5.4188    3.0047 C   0  0  0  0  0  0  0  0  0  0  0  0
    1.8308    6.5528    2.5755 C   0  0  0  0  0  0  0  0  0  0  0  0
    2.5153    7.6655    2.1196 C   0  0  0  0  0  0  0  0  0  0  0  0
    3.8925    7.6852    2.2339 C   0  0  0  0  0  0  0  0  0  0  0  0
    0.1136    6.5603    2.6320 Cl  0  0  0  0  0  0  0  0  0  0  0  0
    9.8031    1.5795    1.4701 H   0  0  0  0  0  0  0  0  0  0  0  0
    8.2284    0.7674    1.6510 H   0  0  0  0  0  0  0  0  0  0  0  0
    9.0975    1.3369    3.0898 H   0  0  0  0  0  0  0  0  0  0  0  0
    7.9441    3.1363    0.9028 H   0  0  0  0  0  0  0  0  0  0  0  0
    8.9260    3.6490    2.3100 H   0  0  0  0  0  0  0  0  0  0  0  0
    7.1513    2.6909    3.8420 H   0  0  0  0  0  0  0  0  0  0  0  0
    6.5055    2.0303    2.3583 H   0  0  0  0  0  0  0  0  0  0  0  0
    1.7252    2.7040    3.7333 H   0  0  0  0  0  0  0  0  0  0  0  0
    2.2072    3.7115    1.3583 H   0  0  0  0  0  0  0  0  0  0  0  0
    0.8335    2.6471    1.4655 H   0  0  0  0  0  0  0  0  0  0  0  0
    3.6427    1.9776    0.4471 H   0  0  0  0  0  0  0  0  0  0  0  0
    2.2128    2.2497   -0.5221 H   0  0  0  0  0  0  0  0  0  0  0  0
    2.6582   -0.1795   -0.2116 H   0  0  0  0  0  0  0  0  0  0  0  0
    1.0867    0.3021    0.4412 H   0  0  0  0  0  0  0  0  0  0  0  0
    3.6110   -0.3070    2.0072 H   0  0  0  0  0  0  0  0  0  0  0  0
    2.1485   -1.2042    2.0391 H   0  0  0  0  0  0  0  0  0  0  0  0
    2.3404    0.2968    4.0498 H   0  0  0  0  0  0  0  0  0  0  0  0
    0.8862    0.5745    3.1024 H   0  0  0  0  0  0  0  0  0  0  0  0
    1.9260    4.6152    3.3987 H   0  0  0  0  0  0  0  0  0  0  0  0
    1.9920    8.5172    1.7011 H   0  0  0  0  0  0  0  0  0  0  0  0
    4.4423    8.6079    2.0771 H   0  0  0  0  0  0  0  0  0  0  0  0
  1  2  1  0  0  0  0
  1 25  1  0  0  0  0
  1 26  1  0  0  0  0
  1 27  1  0  0  0  0
  2  3  1  0  0  0  0
  2 28  1  0  0  0  0
  2 29  1  0  0  0  0
  3  4  1  0  0  0  0
  3 30  1  0  0  0  0
  3 31  1  0  0  0  0
  4  5  1  0  0  0  0
  4 11  2  0  0  0  0
  5  6  2  0  0  0  0
  5  7  1  0  0  0  0
  7  8  1  0  0  0  0
  7  9  1  0  0  0  0
  9 10  2  0  0  0  0
  9 23  1  0  0  0  0
 10 11  1  0  0  0  0
 10 20  1  0  0  0  0
 12 14  1  6  0  0  0
 12 13  2  0  0  0  0
 12 11  1  0  0  0  0
 14 15  1  0  0  0  0
 14 19  1  0  0  0  0
 14 32  1  0  0  0  0
 15 16  1  0  0  0  0
 15 33  1  0  0  0  0
 15 34  1  0  0  0  0
 16 17  1  0  0  0  0
 16 35  1  0  0  0  0
 16 36  1  0  0  0  0
 17 18  1  0  0  0  0
 17 37  1  0  0  0  0
 17 38  1  0  0  0  0
 18 19  1  0  0  0  0
 18 39  1  0  0  0  0
 18 40  1  0  0  0  0
 19 41  1  0  0  0  0
 19 42  1  0  0  0  0
 20 21  2  0  0  0  0
 20 43  1  0  0  0  0
 21 22  1  0  0  0  0
 21 24  1  0  0  0  0
 22 23  2  0  0  0  0
 22 44  1  0  0  0  0
 23 45  1  0  0  0  0
M  END
$$$$
