H1D
 OpenBabel04121316133D

 33 32  0  0  1  0  0  0  0  0999 V2000
    0.9093   -0.0940   -0.0429 O   0  0  0  0  0  0  0  0  0  0  0  0
    2.3175   -0.0949   -0.0337 N   0  0  0  0  0  0  0  0  0  0  0  0
    2.9052    0.6292    0.9807 C   0  0  0  0  0  0  0  0  0  0  0  0
    2.2791    1.2391    1.8467 O   0  0  0  0  0  0  0  0  0  0  0  0
    4.4377    0.5872    0.9809 C   0  0  1  0  0  0  0  0  0  0  0  0
    4.7634   -0.4527    1.0859 H   0  0  0  0  0  0  0  0  0  0  0  0
    5.0139    1.1843   -0.3306 C   0  0  1  0  0  0  0  0  0  0  0  0
    4.6189    2.1937   -0.5103 H   0  0  0  0  0  0  0  0  0  0  0  0
    6.5579    1.2629   -0.3278 C   0  0  0  0  0  0  0  0  0  0  0  0
    7.1014    2.4549    0.9481 S   0  0  0  0  0  0  0  0  0  0  0  0
    8.8681    2.2205    0.9634 C   0  0  0  0  0  0  0  0  0  0  0  0
    9.4575    3.0637    2.0963 C   0  0  0  0  0  0  0  0  0  0  0  0
   10.9901    3.0662    2.0953 C   0  0  1  0  0  0  0  0  0  0  0  0
   11.3820    2.0476    2.1859 H   0  0  0  0  0  0  0  0  0  0  0  0
   11.5833    3.7154    0.8163 C   0  0  0  0  0  0  0  0  0  0  0  0
   12.1884    4.7879    0.8005 O   0  0  0  0  0  0  0  0  0  0  0  0
   11.4034    3.0264   -0.3324 O   0  0  0  0  0  0  0  0  0  0  0  0
   11.4652    3.8200    3.2797 N   0  0  0  0  0  0  0  0  0  0  0  0
    4.6039    0.3705   -1.4502 O   0  0  0  0  0  0  0  0  0  0  0  0
    4.8892    1.2907    2.1340 O   0  0  0  0  0  0  0  0  0  0  0  0
    0.6671   -0.6792   -0.7797 H   0  0  0  0  0  0  0  0  0  0  0  0
    2.8204   -0.7797   -0.5936 H   0  0  0  0  0  0  0  0  0  0  0  0
    6.9152    1.6080   -1.3065 H   0  0  0  0  0  0  0  0  0  0  0  0
    6.9808    0.2606   -0.1780 H   0  0  0  0  0  0  0  0  0  0  0  0
    9.1556    2.6045   -0.0093 H   0  0  0  0  0  0  0  0  0  0  0  0
    9.1721    1.1716    1.0617 H   0  0  0  0  0  0  0  0  0  0  0  0
    9.0961    2.6747    3.0620 H   0  0  0  0  0  0  0  0  0  0  0  0
    9.0931    4.0976    2.0202 H   0  0  0  0  0  0  0  0  0  0  0  0
   10.9832    2.1515   -0.2650 H   0  0  0  0  0  0  0  0  0  0  0  0
   11.0256    3.4970    4.1378 H   0  0  0  0  0  0  0  0  0  0  0  0
   11.1995    4.8035    3.1660 H   0  0  0  0  0  0  0  0  0  0  0  0
    3.7075    0.6796   -1.6894 H   0  0  0  0  0  0  0  0  0  0  0  0
    4.4023    0.9743    2.9120 H   0  0  0  0  0  0  0  0  0  0  0  0
  1  2  1  0  0  0  0
  1 21  1  0  0  0  0
  2  3  1  0  0  0  0
  2 22  1  0  0  0  0
  3  4  2  0  0  0  0
  3  5  1  0  0  0  0
  5  6  1  1  0  0  0
  5  7  1  0  0  0  0
  5 20  1  0  0  0  0
  7  8  1  6  0  0  0
  7  9  1  0  0  0  0
  7 19  1  0  0  0  0
  9 10  1  0  0  0  0
  9 23  1  0  0  0  0
  9 24  1  0  0  0  0
 10 11  1  0  0  0  0
 11 12  1  0  0  0  0
 11 25  1  0  0  0  0
 11 26  1  0  0  0  0
 12 13  1  0  0  0  0
 12 27  1  0  0  0  0
 12 28  1  0  0  0  0
 13 14  1  1  0  0  0
 13 15  1  0  0  0  0
 13 18  1  0  0  0  0
 15 16  2  0  0  0  0
 15 17  1  0  0  0  0
 17 29  1  0  0  0  0
 18 30  1  0  0  0  0
 18 31  1  0  0  0  0
 19 32  1  0  0  0  0
 20 33  1  0  0  0  0
M  END
$$$$
