H1N
 OpenBabel04121316133D

 69 73  0  0  1  0  0  0  0  0999 V2000
    0.9444   -0.0489   -0.0251 C   0  0  0  0  0  0  0  0  0  0  0  0
    2.4655   -0.0874   -0.0936 C   0  0  0  0  0  0  0  0  0  0  0  0
    2.9524   -0.7589   -1.6905 S   0  0  0  0  0  0  0  0  0  0  0  0
    2.4580   -2.1123   -1.7739 O   0  0  0  0  0  0  0  0  0  0  0  0
    2.6253    0.2374   -2.6942 O   0  0  0  0  0  0  0  0  0  0  0  0
    4.6190   -0.8909   -1.6111 N   0  0  0  0  0  0  0  0  0  0  0  0
    5.2463   -1.2689   -2.8395 C   0  0  0  0  0  0  0  0  0  0  0  0
    5.4157   -2.6222   -3.1609 C   0  0  0  0  0  0  0  0  0  0  0  0
    6.0897   -3.0202   -4.3380 C   0  0  0  0  0  0  0  0  0  0  0  0
    6.6651   -2.0358   -5.1165 C   0  0  0  0  0  0  0  0  0  0  0  0
    6.5084   -0.7020   -4.7714 C   0  0  0  0  0  0  0  0  0  0  0  0
    5.6989   -0.3020   -3.7200 C   0  0  0  0  0  0  0  0  0  0  0  0
    7.3790    0.1701   -5.6294 C   0  0  2  0  0  0  0  0  0  0  0  0
    6.7685    0.9487   -6.0939 H   0  0  0  0  0  0  0  0  0  0  0  0
    7.8255   -0.8350   -6.7177 C   0  0  0  0  0  0  0  0  0  0  0  0
    8.3967   -0.5906   -7.7557 O   0  0  0  0  0  0  0  0  0  0  0  0
    7.4168   -2.1106   -6.2862 N   0  0  0  0  0  0  0  0  0  0  0  0
    8.5606    0.7686   -4.8456 C   0  0  0  0  0  0  0  0  0  0  0  0
    9.7556    0.6753   -5.3692 N   0  0  0  0  0  0  0  0  0  0  0  0
   10.8188    1.2634   -4.6844 C   0  0  0  0  0  0  0  0  0  0  0  0
   11.4963    0.5404   -3.7074 C   0  0  0  0  0  0  0  0  0  0  0  0
   12.2108    1.2254   -2.7367 C   0  0  0  0  0  0  0  0  0  0  0  0
   12.3112    2.6223   -2.7992 C   0  0  0  0  0  0  0  0  0  0  0  0
   11.8002    3.3077   -3.9055 C   0  0  0  0  0  0  0  0  0  0  0  0
   11.0646    2.6249   -4.8544 C   0  0  0  0  0  0  0  0  0  0  0  0
   12.9784    3.3460   -1.6673 C   0  0  0  0  0  0  0  0  0  0  0  0
   13.1713    4.7727   -1.9634 N   0  0  0  0  0  0  0  0  0  0  0  0
   12.4571    5.6863   -1.0657 C   0  0  0  0  0  0  0  0  0  0  0  0
   13.0315    5.6816    0.3486 C   0  0  0  0  0  0  0  0  0  0  0  0
   14.5334    5.9546    0.3068 C   0  0  0  0  0  0  0  0  0  0  0  0
   15.2305    4.9809   -0.6375 C   0  0  0  0  0  0  0  0  0  0  0  0
   14.6028    5.0620   -2.0296 C   0  0  0  0  0  0  0  0  0  0  0  0
    8.2640    1.5042   -3.5491 C   0  0  0  0  0  0  0  0  0  0  0  0
    7.8650    0.8505   -2.3790 C   0  0  0  0  0  0  0  0  0  0  0  0
    7.3867    1.5945   -1.2961 C   0  0  0  0  0  0  0  0  0  0  0  0
    7.6442    2.9564   -1.2371 C   0  0  0  0  0  0  0  0  0  0  0  0
    8.2841    3.5730   -2.3009 C   0  0  0  0  0  0  0  0  0  0  0  0
    8.4274    2.8854   -3.5012 C   0  0  0  0  0  0  0  0  0  0  0  0
    0.5958    0.3378    0.9359 H   0  0  0  0  0  0  0  0  0  0  0  0
    0.5262   -1.0523   -0.1617 H   0  0  0  0  0  0  0  0  0  0  0  0
    0.5343    0.5849   -0.8194 H   0  0  0  0  0  0  0  0  0  0  0  0
    2.8664   -0.7334    0.6919 H   0  0  0  0  0  0  0  0  0  0  0  0
    2.8762    0.9219    0.0116 H   0  0  0  0  0  0  0  0  0  0  0  0
    5.1439   -0.3263   -0.9468 H   0  0  0  0  0  0  0  0  0  0  0  0
    4.9977   -3.3676   -2.4887 H   0  0  0  0  0  0  0  0  0  0  0  0
    6.1556   -4.0735   -4.5845 H   0  0  0  0  0  0  0  0  0  0  0  0
    5.5582    0.7556   -3.5237 H   0  0  0  0  0  0  0  0  0  0  0  0
    7.6260   -2.9320   -6.8363 H   0  0  0  0  0  0  0  0  0  0  0  0
   11.3939   -0.5380   -3.6626 H   0  0  0  0  0  0  0  0  0  0  0  0
   12.6575    0.6761   -1.9119 H   0  0  0  0  0  0  0  0  0  0  0  0
   11.9089    4.3852   -3.9996 H   0  0  0  0  0  0  0  0  0  0  0  0
   10.5411    3.1844   -5.6242 H   0  0  0  0  0  0  0  0  0  0  0  0
   13.9405    2.8313   -1.5488 H   0  0  0  0  0  0  0  0  0  0  0  0
   12.4230    3.1735   -0.7374 H   0  0  0  0  0  0  0  0  0  0  0  0
   11.3819    5.4659   -1.0433 H   0  0  0  0  0  0  0  0  0  0  0  0
   12.5319    6.7052   -1.4727 H   0  0  0  0  0  0  0  0  0  0  0  0
   12.8419    4.7122    0.8246 H   0  0  0  0  0  0  0  0  0  0  0  0
   12.5296    6.4373    0.9623 H   0  0  0  0  0  0  0  0  0  0  0  0
   14.9542    5.8719    1.3120 H   0  0  0  0  0  0  0  0  0  0  0  0
   14.7053    6.9775   -0.0483 H   0  0  0  0  0  0  0  0  0  0  0  0
   15.1369    3.9675   -0.2250 H   0  0  0  0  0  0  0  0  0  0  0  0
   16.3009    5.1885   -0.7014 H   0  0  0  0  0  0  0  0  0  0  0  0
   15.0880    4.3551   -2.7156 H   0  0  0  0  0  0  0  0  0  0  0  0
   14.7562    6.0530   -2.4719 H   0  0  0  0  0  0  0  0  0  0  0  0
    7.8133   -0.2339   -2.3357 H   0  0  0  0  0  0  0  0  0  0  0  0
    6.8343    1.1178   -0.4931 H   0  0  0  0  0  0  0  0  0  0  0  0
    7.3638    3.5346   -0.3626 H   0  0  0  0  0  0  0  0  0  0  0  0
    8.6580    4.5883   -2.2164 H   0  0  0  0  0  0  0  0  0  0  0  0
    8.7462    3.4317   -4.3793 H   0  0  0  0  0  0  0  0  0  0  0  0
  1  2  1  0  0  0  0
  1 39  1  0  0  0  0
  1 40  1  0  0  0  0
  1 41  1  0  0  0  0
  2  3  1  0  0  0  0
  2 42  1  0  0  0  0
  2 43  1  0  0  0  0
  3  4  2  0  0  0  0
  3  5  2  0  0  0  0
  3  6  1  0  0  0  0
  6  7  1  0  0  0  0
  6 44  1  0  0  0  0
  7  8  2  0  0  0  0
  7 12  1  0  0  0  0
  8  9  1  0  0  0  0
  8 45  1  0  0  0  0
  9 10  2  0  0  0  0
  9 46  1  0  0  0  0
 10 11  1  0  0  0  0
 10 17  1  0  0  0  0
 11 12  2  0  0  0  0
 11 13  1  0  0  0  0
 12 47  1  0  0  0  0
 13 14  1  6  0  0  0
 13 15  1  0  0  0  0
 13 18  1  0  0  0  0
 15 16  2  0  0  0  0
 15 17  1  0  0  0  0
 17 48  1  0  0  0  0
 18 19  2  0  0  0  0
 18 33  1  0  0  0  0
 19 20  1  0  0  0  0
 20 21  2  0  0  0  0
 20 25  1  0  0  0  0
 21 22  1  0  0  0  0
 21 49  1  0  0  0  0
 22 23  2  0  0  0  0
 22 50  1  0  0  0  0
 23 24  1  0  0  0  0
 23 26  1  0  0  0  0
 24 25  2  0  0  0  0
 24 51  1  0  0  0  0
 25 52  1  0  0  0  0
 26 27  1  0  0  0  0
 26 53  1  0  0  0  0
 26 54  1  0  0  0  0
 27 28  1  0  0  0  0
 27 32  1  0  0  0  0
 28 29  1  0  0  0  0
 28 55  1  0  0  0  0
 28 56  1  0  0  0  0
 29 30  1  0  0  0  0
 29 57  1  0  0  0  0
 29 58  1  0  0  0  0
 30 31  1  0  0  0  0
 30 59  1  0  0  0  0
 30 60  1  0  0  0  0
 31 32  1  0  0  0  0
 31 61  1  0  0  0  0
 31 62  1  0  0  0  0
 32 63  1  0  0  0  0
 32 64  1  0  0  0  0
 33 34  2  0  0  0  0
 33 38  1  0  0  0  0
 34 35  1  0  0  0  0
 34 65  1  0  0  0  0
 35 36  2  0  0  0  0
 35 66  1  0  0  0  0
 36 37  1  0  0  0  0
 36 67  1  0  0  0  0
 37 38  2  0  0  0  0
 37 68  1  0  0  0  0
 38 69  1  0  0  0  0
M  END
$$$$
