H1S
 OpenBabel04121316133D

 50 51  0  0  1  0  0  0  0  0999 V2000
    2.4849    0.6109   -3.5262 O   0  0  0  0  0  0  0  0  0  0  0  0
    3.3928   -0.0220   -2.6534 C   0  0  1  0  0  0  0  0  0  0  0  0
    4.1172   -0.1633   -3.3950 H   0  0  0  0  0  0  0  0  0  0  0  0
    4.2494    0.8463   -1.8548 C   0  0  0  0  0  0  0  0  0  0  0  0
    4.9768    0.3814   -0.8343 C   0  0  0  0  0  0  0  0  0  0  0  0
    4.7394   -0.8939   -0.2547 O   0  0  0  0  0  0  0  0  0  0  0  0
    3.5278   -1.6231   -0.6390 C   0  0  2  0  0  0  0  0  0  0  0  0
    3.7974   -2.6831   -0.5398 H   0  0  0  0  0  0  0  0  0  0  0  0
    3.0433   -1.4095   -2.1129 C   0  0  2  0  0  0  0  0  0  0  0  0
    1.9513   -1.5779   -2.1191 H   0  0  0  0  0  0  0  0  0  0  0  0
    3.5797   -2.4238   -3.0094 O   0  0  0  0  0  0  0  0  0  0  0  0
    5.0579   -2.2713   -3.7304 S   0  0  0  0  0  0  0  0  0  0  0  0
    4.9198   -1.2796   -4.7982 O   0  0  0  0  0  0  0  0  0  0  0  0
    5.9618   -1.8943   -2.6455 O   0  0  0  0  0  0  0  0  0  0  0  0
    5.3156   -3.5963   -4.2660 O   0  5  0  0  0  0  0  0  0  0  0  0
    2.3493   -1.5753    0.2673 O   0  0  0  0  0  0  0  0  0  0  0  0
    2.3957   -0.7984    1.4725 C   0  0  2  0  0  0  0  0  0  0  0  0
    1.3654   -0.7354    1.8608 H   0  0  0  0  0  0  0  0  0  0  0  0
    2.8471    0.6206    1.2325 C   0  0  1  0  0  0  0  0  0  0  0  0
    3.7831    0.5203    0.7921 H   0  0  0  0  0  0  0  0  0  0  0  0
    1.9414    1.3920    0.2000 C   0  0  0  0  0  0  0  0  0  0  0  0
    1.2933    0.5920   -0.8039 O   0  0  0  0  0  0  0  0  0  0  0  0
    0.2921    1.3177   -1.8931 S   0  0  0  0  0  0  0  0  0  0  0  0
   -0.8358    1.7558   -1.1128 O   0  0  0  0  0  0  0  0  0  0  0  0
    1.1016    2.4146   -2.4533 O   0  0  0  0  0  0  0  0  0  0  0  0
   -0.0544    0.2609   -2.8599 O   0  5  0  0  0  0  0  0  0  0  0  0
    3.2887    1.3428    2.3930 O   0  0  0  0  0  0  0  0  0  0  0  0
    4.2333    0.6247    3.2264 C   0  0  1  0  0  0  0  0  0  0  0  0
    4.4984    1.3250    4.0229 H   0  0  0  0  0  0  0  0  0  0  0  0
    3.5428   -0.6435    3.7509 C   0  0  1  0  0  0  0  0  0  0  0  0
    2.6387   -0.3140    4.2684 H   0  0  0  0  0  0  0  0  0  0  0  0
    3.1933   -1.5407    2.5428 C   0  0  1  0  0  0  0  0  0  0  0  0
    4.0970   -1.9881    2.1085 H   0  0  0  0  0  0  0  0  0  0  0  0
    2.3503   -2.6310    2.9668 O   0  0  0  0  0  0  0  0  0  0  0  0
    4.4422   -1.3581    4.7182 N   0  0  0  0  0  0  0  0  0  0  0  0
    3.8752   -2.6971    5.5397 S   0  0  0  0  0  0  0  0  0  0  0  0
    2.6119   -2.1931    6.0721 O   0  0  0  0  0  0  0  0  0  0  0  0
    3.7807   -3.8023    4.6024 O   0  0  0  0  0  0  0  0  0  0  0  0
    4.9115   -2.8906    6.5489 O   0  5  0  0  0  0  0  0  0  0  0  0
    5.4701    0.1168    2.7691 O   0  0  0  0  0  0  0  0  0  0  0  0
    5.8670    1.4929   -0.1374 C   0  0  0  0  0  0  0  0  0  0  0  0
    6.4501    1.1934    0.9453 O   0  0  0  0  0  0  0  0  0  0  0  0
    5.8133    2.6623   -0.6312 O   0  5  0  0  0  0  0  0  0  0  0  0
    2.4126    1.5538   -3.2727 H   0  0  0  0  0  0  0  0  0  0  0  0
    4.4195    1.8435   -2.2396 H   0  0  0  0  0  0  0  0  0  0  0  0
    2.5612    2.1464   -0.2962 H   0  0  0  0  0  0  0  0  0  0  0  0
    1.1545    1.9015    0.7451 H   0  0  0  0  0  0  0  0  0  0  0  0
    1.6319   -2.2672    3.5045 H   0  0  0  0  0  0  0  0  0  0  0  0
    4.9600   -0.7388    5.3311 H   0  0  0  0  0  0  0  0  0  0  0  0
    5.9522    0.7652    2.1988 H   0  0  0  0  0  0  0  0  0  0  0  0
  1  2  1  0  0  0  0
  1 44  1  0  0  0  0
  2  3  1  6  0  0  0
  2  4  1  0  0  0  0
  2  9  1  0  0  0  0
  4  5  2  0  0  0  0
  4 45  1  0  0  0  0
  5  6  1  0  0  0  0
  5 41  1  0  0  0  0
  6  7  1  0  0  0  0
  7  9  1  0  0  0  0
  7 16  1  0  0  0  0
  7  8  1  1  0  0  0
  9 11  1  0  0  0  0
  9 10  1  6  0  0  0
 11 12  1  0  0  0  0
 12 13  2  0  0  0  0
 12 14  2  0  0  0  0
 12 15  1  0  0  0  0
 17 19  1  0  0  0  0
 17 32  1  0  0  0  0
 17 18  1  1  0  0  0
 17 16  1  0  0  0  0
 19 20  1  6  0  0  0
 19 21  1  0  0  0  0
 19 27  1  0  0  0  0
 21 22  1  0  0  0  0
 21 46  1  0  0  0  0
 21 47  1  0  0  0  0
 22 23  1  0  0  0  0
 23 24  2  0  0  0  0
 23 25  2  0  0  0  0
 23 26  1  0  0  0  0
 27 28  1  0  0  0  0
 28 29  1  1  0  0  0
 28 30  1  0  0  0  0
 28 40  1  0  0  0  0
 30 31  1  1  0  0  0
 30 32  1  0  0  0  0
 30 35  1  0  0  0  0
 32 34  1  0  0  0  0
 32 33  1  6  0  0  0
 34 48  1  0  0  0  0
 35 36  1  0  0  0  0
 35 49  1  0  0  0  0
 36 37  2  0  0  0  0
 36 38  2  0  0  0  0
 36 39  1  0  0  0  0
 40 50  1  0  0  0  0
 41 42  2  0  0  0  0
 41 43  1  0  0  0  0
M  CHG  4  15  -1  26  -1  39  -1  43  -1
M  END
$$$$
