H20
 OpenBabel04121316133D

 44 46  0  0  0  0  0  0  0  0999 V2000
    0.8894   -0.0180   -0.2072 Cl  0  0  0  0  0  0  0  0  0  0  0  0
    2.6033    0.0053   -0.0894 C   0  0  0  0  0  0  0  0  0  0  0  0
    3.2785    1.2220   -0.1488 C   0  0  0  0  0  0  0  0  0  0  0  0
    4.6368    1.2652    0.1286 C   0  0  0  0  0  0  0  0  0  0  0  0
    5.3401    0.0719    0.1651 C   0  0  0  0  0  0  0  0  0  0  0  0
    4.7043   -1.1613    0.0592 C   0  0  0  0  0  0  0  0  0  0  0  0
    3.3044   -1.1864    0.0645 C   0  0  0  0  0  0  0  0  0  0  0  0
    5.5206   -2.3799   -0.1059 C   0  0  0  0  0  0  0  0  0  0  0  0
    4.7076   -3.5170   -0.1501 O   0  0  0  0  0  0  0  0  0  0  0  0
    5.1879   -4.7950    0.3231 C   0  0  0  0  0  0  0  0  0  0  0  0
    5.8353   -4.4012    1.6653 C   0  0  0  0  0  0  0  0  0  0  0  0
    5.3625   -5.3263    2.7315 C   0  0  0  0  0  0  0  0  0  0  0  0
    5.9030   -6.7085    2.4009 C   0  0  0  0  0  0  0  0  0  0  0  0
    5.3828   -7.1948    1.0530 C   0  0  0  0  0  0  0  0  0  0  0  0
    5.7633   -6.2243   -0.0422 C   0  0  0  0  0  0  0  0  0  0  0  0
    6.8889   -2.3017   -0.1384 C   0  0  0  0  0  0  0  0  0  0  0  0
    7.5115   -0.9534    0.1015 C   0  0  0  0  0  0  0  0  0  0  0  0
    8.7414   -0.7471    0.1661 O   0  0  0  0  0  0  0  0  0  0  0  0
    6.7196    0.1230    0.2413 N   0  0  0  0  0  0  0  0  0  0  0  0
    7.2093    1.0026    0.3269 H   0  0  0  0  0  0  0  0  0  0  0  0
    7.8508   -3.4629   -0.3881 C   0  0  0  0  0  0  0  0  0  0  0  0
    7.6199   -4.1439   -1.7262 C   0  0  0  0  0  0  0  0  0  0  0  0
    9.3276   -3.2635   -0.0784 C   0  0  0  0  0  0  0  0  0  0  0  0
    2.7584    2.1369   -0.4098 H   0  0  0  0  0  0  0  0  0  0  0  0
    5.1472    2.2150    0.2483 H   0  0  0  0  0  0  0  0  0  0  0  0
    2.7631   -2.1271    0.1314 H   0  0  0  0  0  0  0  0  0  0  0  0
    5.3515   -4.7835   -0.7459 H   0  0  0  0  0  0  0  0  0  0  0  0
    5.6025   -3.3836    1.9932 H   0  0  0  0  0  0  0  0  0  0  0  0
    6.9165   -4.4859    1.7688 H   0  0  0  0  0  0  0  0  0  0  0  0
    4.2722   -5.2781    2.7596 H   0  0  0  0  0  0  0  0  0  0  0  0
    5.7702   -4.9565    3.6767 H   0  0  0  0  0  0  0  0  0  0  0  0
    5.6233   -7.3944    3.1958 H   0  0  0  0  0  0  0  0  0  0  0  0
    7.0034   -6.6720    2.3557 H   0  0  0  0  0  0  0  0  0  0  0  0
    4.2909   -7.2526    1.0646 H   0  0  0  0  0  0  0  0  0  0  0  0
    5.7771   -8.1900    0.8253 H   0  0  0  0  0  0  0  0  0  0  0  0
    5.4084   -6.6257   -1.0090 H   0  0  0  0  0  0  0  0  0  0  0  0
    6.8635   -6.2155   -0.1399 H   0  0  0  0  0  0  0  0  0  0  0  0
    7.6733   -4.2550    0.3068 H   0  0  0  0  0  0  0  0  0  0  0  0
    7.9746   -3.5466   -2.5561 H   0  0  0  0  0  0  0  0  0  0  0  0
    6.5688   -4.3230   -1.9381 H   0  0  0  0  0  0  0  0  0  0  0  0
    8.0960   -5.1306   -1.7112 H   0  0  0  0  0  0  0  0  0  0  0  0
    9.7915   -2.6354   -0.8382 H   0  0  0  0  0  0  0  0  0  0  0  0
    9.8432   -4.2283   -0.0562 H   0  0  0  0  0  0  0  0  0  0  0  0
    9.4604   -2.8338    0.9242 H   0  0  0  0  0  0  0  0  0  0  0  0
  1  2  1  0  0  0  0
  2  3  2  0  0  0  0
  2  7  1  0  0  0  0
  3  4  1  0  0  0  0
  3 24  1  0  0  0  0
  4  5  2  0  0  0  0
  4 25  1  0  0  0  0
  5  6  1  0  0  0  0
  5 19  1  0  0  0  0
  6  7  2  0  0  0  0
  6  8  1  0  0  0  0
  7 26  1  0  0  0  0
  8  9  1  0  0  0  0
  8 16  2  0  0  0  0
  9 10  1  0  0  0  0
 10 11  1  0  0  0  0
 10 15  1  0  0  0  0
 10 27  1  0  0  0  0
 11 12  1  0  0  0  0
 11 28  1  0  0  0  0
 11 29  1  0  0  0  0
 12 13  1  0  0  0  0
 12 30  1  0  0  0  0
 12 31  1  0  0  0  0
 13 14  1  0  0  0  0
 13 32  1  0  0  0  0
 13 33  1  0  0  0  0
 14 15  1  0  0  0  0
 14 34  1  0  0  0  0
 14 35  1  0  0  0  0
 15 36  1  0  0  0  0
 15 37  1  0  0  0  0
 16 17  1  0  0  0  0
 16 21  1  0  0  0  0
 17 18  2  0  0  0  0
 17 19  1  0  0  0  0
 19 20  1  0  0  0  0
 21 22  1  0  0  0  0
 21 23  1  0  0  0  0
 21 38  1  0  0  0  0
 22 39  1  0  0  0  0
 22 40  1  0  0  0  0
 22 41  1  0  0  0  0
 23 42  1  0  0  0  0
 23 43  1  0  0  0  0
 23 44  1  0  0  0  0
M  END
$$$$
