H21
 OpenBabel04121316133D

 46 49  0  0  0  0  0  0  0  0999 V2000
    0.9896   -0.2730   -0.1698 O   0  0  0  0  0  0  0  0  0  0  0  0
    2.1940   -0.0185   -0.0248 C   0  0  0  0  0  0  0  0  0  0  0  0
    2.7154    1.2196    0.2330 N   0  0  0  0  0  0  0  0  0  0  0  0
    2.0551    2.4325    0.1742 C   0  0  0  0  0  0  0  0  0  0  0  0
    0.6861    2.4797    0.0854 C   0  0  0  0  0  0  0  0  0  0  0  0
    0.0639    3.6904   -0.0602 C   0  0  0  0  0  0  0  0  0  0  0  0
    0.7846    4.8884   -0.0081 C   0  0  0  0  0  0  0  0  0  0  0  0
    2.1712    4.8287    0.2111 C   0  0  0  0  0  0  0  0  0  0  0  0
    2.8043    3.6042    0.2362 C   0  0  0  0  0  0  0  0  0  0  0  0
    4.1470    3.5536    0.2841 F   0  0  0  0  0  0  0  0  0  0  0  0
    0.0898    6.1166   -0.2443 N   0  0  0  0  0  0  0  0  0  0  0  0
   -1.1330    6.1144   -0.9258 C   0  0  0  0  0  0  0  0  0  0  0  0
   -1.7057    7.2351   -1.3683 C   0  0  0  0  0  0  0  0  0  0  0  0
   -1.1294    8.5007   -1.0332 C   0  0  0  0  0  0  0  0  0  0  0  0
   -0.0464    8.5621   -0.2558 C   0  0  0  0  0  0  0  0  0  0  0  0
    0.6904    7.3352    0.1229 C   0  0  0  0  0  0  0  0  0  0  0  0
    1.7446    7.5039    0.7284 O   0  0  0  0  0  0  0  0  0  0  0  0
    3.1554   -1.1425   -0.1409 C   0  0  0  0  0  0  0  0  0  0  0  0
    4.5720   -0.8498   -0.1592 N   0  0  0  0  0  0  0  0  0  0  0  0
    5.3396    0.2629   -0.3231 C   0  0  0  0  0  0  0  0  0  0  0  0
    6.6038   -0.0195   -0.1287 N   0  0  0  0  0  0  0  0  0  0  0  0
    6.5720   -1.3620   -0.0377 C   0  0  0  0  0  0  0  0  0  0  0  0
    5.3645   -1.9023   -0.0260 N   0  0  0  0  0  0  0  0  0  0  0  0
    7.7455   -2.0219   -0.0132 N   0  0  0  0  0  0  0  0  0  0  0  0
    7.7628   -3.3895   -0.0428 C   0  0  0  0  0  0  0  0  0  0  0  0
    6.7630   -4.0959   -0.0810 O   0  0  0  0  0  0  0  0  0  0  0  0
    9.0861   -3.9629   -0.0259 C   0  0  0  0  0  0  0  0  0  0  0  0
   10.3531   -3.4082    0.0022 C   0  0  0  0  0  0  0  0  0  0  0  0
   11.3592   -4.4252    0.0318 C   0  0  0  0  0  0  0  0  0  0  0  0
   10.8049   -5.6784    0.0178 C   0  0  0  0  0  0  0  0  0  0  0  0
    9.1327   -5.6784   -0.0323 S   0  0  0  0  0  0  0  0  0  0  0  0
   11.6027   -7.1913    0.0451 Cl  0  0  0  0  0  0  0  0  0  0  0  0
    3.6543    1.3344    0.5760 H   0  0  0  0  0  0  0  0  0  0  0  0
    0.0618    1.6011    0.1506 H   0  0  0  0  0  0  0  0  0  0  0  0
   -1.0091    3.6302   -0.1806 H   0  0  0  0  0  0  0  0  0  0  0  0
    2.8123    5.6952    0.3190 H   0  0  0  0  0  0  0  0  0  0  0  0
   -1.6216    5.1759   -1.1607 H   0  0  0  0  0  0  0  0  0  0  0  0
   -2.6218    7.1964   -1.9471 H   0  0  0  0  0  0  0  0  0  0  0  0
   -1.6287    9.3993   -1.3670 H   0  0  0  0  0  0  0  0  0  0  0  0
    0.3783    9.4839    0.1126 H   0  0  0  0  0  0  0  0  0  0  0  0
    2.9279   -1.6892   -1.0643 H   0  0  0  0  0  0  0  0  0  0  0  0
    2.9573   -1.8060    0.7122 H   0  0  0  0  0  0  0  0  0  0  0  0
    5.0215    1.2621   -0.5752 H   0  0  0  0  0  0  0  0  0  0  0  0
    8.5552   -1.4291   -0.0319 H   0  0  0  0  0  0  0  0  0  0  0  0
   10.5727   -2.3448    0.0082 H   0  0  0  0  0  0  0  0  0  0  0  0
   12.4237   -4.2408    0.0630 H   0  0  0  0  0  0  0  0  0  0  0  0
  1  2  2  0  0  0  0
  2  3  1  0  0  0  0
  2 18  1  0  0  0  0
  3  4  1  0  0  0  0
  3 33  1  0  0  0  0
  4  5  2  0  0  0  0
  4  9  1  0  0  0  0
  5  6  1  0  0  0  0
  5 34  1  0  0  0  0
  6  7  2  0  0  0  0
  6 35  1  0  0  0  0
  7  8  1  0  0  0  0
  7 11  1  0  0  0  0
  8  9  2  0  0  0  0
  8 36  1  0  0  0  0
  9 10  1  0  0  0  0
 11 12  1  0  0  0  0
 11 16  1  0  0  0  0
 12 13  2  0  0  0  0
 12 37  1  0  0  0  0
 13 14  1  0  0  0  0
 13 38  1  0  0  0  0
 14 15  2  0  0  0  0
 14 39  1  0  0  0  0
 15 16  1  0  0  0  0
 15 40  1  0  0  0  0
 16 17  2  0  0  0  0
 18 19  1  0  0  0  0
 18 41  1  0  0  0  0
 18 42  1  0  0  0  0
 19 20  1  0  0  0  0
 19 23  1  0  0  0  0
 20 21  2  0  0  0  0
 20 43  1  0  0  0  0
 21 22  1  0  0  0  0
 22 23  2  0  0  0  0
 22 24  1  0  0  0  0
 24 25  1  0  0  0  0
 24 44  1  0  0  0  0
 25 26  2  0  0  0  0
 25 27  1  0  0  0  0
 27 28  2  0  0  0  0
 27 31  1  0  0  0  0
 28 29  1  0  0  0  0
 28 45  1  0  0  0  0
 29 30  2  0  0  0  0
 29 46  1  0  0  0  0
 30 31  1  0  0  0  0
 30 32  1  0  0  0  0
M  END
$$$$
