H59
 OpenBabel04121316133D

 68 71  0  0  1  0  0  0  0  0999 V2000
    0.9283    0.0056   -0.0104 C   0  0  0  0  0  0  0  0  0  0  0  0
    2.4501   -0.0734   -0.0774 C   0  0  0  0  0  0  0  0  0  0  0  0
    3.0085   -1.3942   -0.6431 C   0  0  0  0  0  0  0  0  0  0  0  0
    2.4516   -2.5883    0.2425 C   0  0  2  0  0  0  0  0  0  0  0  0
    1.7082   -2.3048    0.9825 H   0  0  0  0  0  0  0  0  0  0  0  0
    3.4639   -3.3816    0.9141 N   0  0  0  0  0  0  0  0  0  0  0  0
    3.9099   -3.1736    2.3037 C   0  0  0  0  0  0  0  0  0  0  0  0
    3.4211   -1.8947    2.9609 C   0  0  0  0  0  0  0  0  0  0  0  0
    2.1549   -1.8118    3.5672 C   0  0  0  0  0  0  0  0  0  0  0  0
    1.6461   -0.5742    3.9754 C   0  0  0  0  0  0  0  0  0  0  0  0
    2.3485    0.5892    3.6811 C   0  0  0  0  0  0  0  0  0  0  0  0
    3.6197    0.5342    3.1118 C   0  0  0  0  0  0  0  0  0  0  0  0
    4.1868   -0.7231    2.8469 C   0  0  0  0  0  0  0  0  0  0  0  0
    4.2967    1.7732    2.6026 C   0  0  0  0  0  0  0  0  0  0  0  0
    1.7563    1.7741    3.8881 F   0  0  0  0  0  0  0  0  0  0  0  0
    3.7276   -4.5408    0.1958 C   0  0  0  0  0  0  0  0  0  0  0  0
    4.6067   -5.3550    0.3904 O   0  0  0  0  0  0  0  0  0  0  0  0
    2.6300   -4.6845   -0.8074 C   0  0  0  0  0  0  0  0  0  0  0  0
    1.8400   -3.6211   -0.6368 C   0  0  0  0  0  0  0  0  0  0  0  0
    0.6316   -3.3397   -1.2275 O   0  0  0  0  0  0  0  0  0  0  0  0
    2.4094   -5.7934   -1.6888 C   0  0  0  0  0  0  0  0  0  0  0  0
    1.9933   -5.5017   -2.9312 C   0  0  0  0  0  0  0  0  0  0  0  0
    1.6556   -6.7298   -4.0487 S   0  0  0  0  0  0  0  0  0  0  0  0
    0.2244   -6.7929   -4.2424 O   0  0  0  0  0  0  0  0  0  0  0  0
    2.5548   -6.5466   -5.1787 O   0  0  0  0  0  0  0  0  0  0  0  0
    2.1276   -8.2035   -3.2568 C   0  0  0  0  0  0  0  0  0  0  0  0
    2.5724   -8.2198   -1.9455 C   0  0  0  0  0  0  0  0  0  0  0  0
    2.6279   -7.0546   -1.1862 N   0  0  0  0  0  0  0  0  0  0  0  0
    2.9100   -9.4621   -1.4044 C   0  0  0  0  0  0  0  0  0  0  0  0
    2.8131  -10.6333   -2.1851 C   0  0  0  0  0  0  0  0  0  0  0  0
    2.3667  -10.5718   -3.5114 C   0  0  0  0  0  0  0  0  0  0  0  0
    2.0262   -9.3395   -4.0306 C   0  0  0  0  0  0  0  0  0  0  0  0
    2.2526  -11.7461   -4.3178 N   0  0  0  0  0  0  0  0  0  0  0  0
    1.7075  -11.6094   -5.9084 S   0  0  0  0  0  0  0  0  0  0  0  0
    0.3244  -11.1843   -5.8667 O   0  0  0  0  0  0  0  0  0  0  0  0
    2.6981  -10.8606   -6.6542 O   0  0  0  0  0  0  0  0  0  0  0  0
    1.7319  -13.2660   -6.5189 C   0  0  0  0  0  0  0  0  0  0  0  0
    2.5897   -1.4283   -2.1395 C   0  0  0  0  0  0  0  0  0  0  0  0
    4.5578   -1.3611   -0.6574 C   0  0  0  0  0  0  0  0  0  0  0  0
    0.6222    0.9361    0.4718 H   0  0  0  0  0  0  0  0  0  0  0  0
    0.4889   -0.8058    0.5754 H   0  0  0  0  0  0  0  0  0  0  0  0
    0.4844   -0.0276   -1.0059 H   0  0  0  0  0  0  0  0  0  0  0  0
    2.8141    0.0409    0.9266 H   0  0  0  0  0  0  0  0  0  0  0  0
    2.8433    0.7857   -0.6320 H   0  0  0  0  0  0  0  0  0  0  0  0
    5.0060   -3.2039    2.3088 H   0  0  0  0  0  0  0  0  0  0  0  0
    3.5872   -4.0361    2.9016 H   0  0  0  0  0  0  0  0  0  0  0  0
    1.5320   -2.6976    3.6779 H   0  0  0  0  0  0  0  0  0  0  0  0
    0.6803   -0.4985    4.4657 H   0  0  0  0  0  0  0  0  0  0  0  0
    5.1834   -0.7742    2.4140 H   0  0  0  0  0  0  0  0  0  0  0  0
    3.6997    2.6697    2.7949 H   0  0  0  0  0  0  0  0  0  0  0  0
    4.4278    1.7101    1.5136 H   0  0  0  0  0  0  0  0  0  0  0  0
    5.2753    1.8895    3.0704 H   0  0  0  0  0  0  0  0  0  0  0  0
    0.3935   -4.0080   -1.8913 H   0  0  0  0  0  0  0  0  0  0  0  0
    1.8335   -4.5077   -3.3177 H   0  0  0  0  0  0  0  0  0  0  0  0
    3.0764   -7.1065   -0.2710 H   0  0  0  0  0  0  0  0  0  0  0  0
    3.2582   -9.5293   -0.3746 H   0  0  0  0  0  0  0  0  0  0  0  0
    3.0918  -11.5794   -1.7312 H   0  0  0  0  0  0  0  0  0  0  0  0
    1.6681   -9.2001   -5.0455 H   0  0  0  0  0  0  0  0  0  0  0  0
    2.5127  -12.6480   -3.9327 H   0  0  0  0  0  0  0  0  0  0  0  0
    1.0509  -13.8742   -5.9248 H   0  0  0  0  0  0  0  0  0  0  0  0
    2.7543  -13.6409   -6.4910 H   0  0  0  0  0  0  0  0  0  0  0  0
    1.3818  -13.2221   -7.5546 H   0  0  0  0  0  0  0  0  0  0  0  0
    1.5047   -1.4019   -2.2646 H   0  0  0  0  0  0  0  0  0  0  0  0
    2.9678   -2.3200   -2.6487 H   0  0  0  0  0  0  0  0  0  0  0  0
    2.9764   -0.5571   -2.6791 H   0  0  0  0  0  0  0  0  0  0  0  0
    4.9858   -1.2868    0.3408 H   0  0  0  0  0  0  0  0  0  0  0  0
    4.9370   -0.5056   -1.2256 H   0  0  0  0  0  0  0  0  0  0  0  0
    4.9691   -2.2675   -1.1186 H   0  0  0  0  0  0  0  0  0  0  0  0
  1  2  1  0  0  0  0
  1 40  1  0  0  0  0
  1 41  1  0  0  0  0
  1 42  1  0  0  0  0
  2  3  1  0  0  0  0
  2 43  1  0  0  0  0
  2 44  1  0  0  0  0
  3  4  1  0  0  0  0
  3 38  1  0  0  0  0
  3 39  1  0  0  0  0
  4  5  1  1  0  0  0
  4  6  1  0  0  0  0
  4 19  1  0  0  0  0
  6  7  1  0  0  0  0
  6 16  1  0  0  0  0
  7  8  1  0  0  0  0
  7 45  1  0  0  0  0
  7 46  1  0  0  0  0
  8  9  2  0  0  0  0
  8 13  1  0  0  0  0
  9 10  1  0  0  0  0
  9 47  1  0  0  0  0
 10 11  2  0  0  0  0
 10 48  1  0  0  0  0
 11 12  1  0  0  0  0
 11 15  1  0  0  0  0
 12 13  2  0  0  0  0
 12 14  1  0  0  0  0
 13 49  1  0  0  0  0
 14 50  1  0  0  0  0
 14 51  1  0  0  0  0
 14 52  1  0  0  0  0
 16 17  2  0  0  0  0
 16 18  1  0  0  0  0
 18 19  2  0  0  0  0
 18 21  1  0  0  0  0
 19 20  1  0  0  0  0
 20 53  1  0  0  0  0
 21 22  2  0  0  0  0
 21 28  1  0  0  0  0
 22 23  1  0  0  0  0
 22 54  1  0  0  0  0
 23 24  2  0  0  0  0
 23 25  2  0  0  0  0
 23 26  1  0  0  0  0
 26 27  2  0  0  0  0
 26 32  1  0  0  0  0
 27 28  1  0  0  0  0
 27 29  1  0  0  0  0
 28 55  1  0  0  0  0
 29 30  2  0  0  0  0
 29 56  1  0  0  0  0
 30 31  1  0  0  0  0
 30 57  1  0  0  0  0
 31 32  2  0  0  0  0
 31 33  1  0  0  0  0
 32 58  1  0  0  0  0
 33 34  1  0  0  0  0
 33 59  1  0  0  0  0
 34 35  2  0  0  0  0
 34 36  2  0  0  0  0
 34 37  1  0  0  0  0
 37 60  1  0  0  0  0
 37 61  1  0  0  0  0
 37 62  1  0  0  0  0
 38 63  1  0  0  0  0
 38 64  1  0  0  0  0
 38 65  1  0  0  0  0
 39 66  1  0  0  0  0
 39 67  1  0  0  0  0
 39 68  1  0  0  0  0
M  END
$$$$
