H64
 OpenBabel04121316133D

 49 52  0  0  0  0  0  0  0  0999 V2000
    1.0682   -0.2901   -0.0085 C   0  0  0  0  0  0  0  0  0  0  0  0
    2.6157   -0.1688   -0.0453 C   0  0  0  0  0  0  0  0  0  0  0  0
    3.2876    1.0509    0.4899 N   0  0  0  0  0  0  0  0  0  0  0  0
    3.2760    2.1349   -0.4813 C   0  0  0  0  0  0  0  0  0  0  0  0
    3.4612    3.5161    0.2158 C   0  0  0  0  0  0  0  0  0  0  0  0
    3.0093    4.8103   -0.5241 C   0  0  0  0  0  0  0  0  0  0  0  0
    3.2629    6.1508   -0.0989 N   0  0  0  0  0  0  0  0  0  0  0  0
    2.6237    7.3278   -0.4869 C   0  0  0  0  0  0  0  0  0  0  0  0
    1.4469    7.6911   -1.7758 S   0  0  0  0  0  0  0  0  0  0  0  0
    0.8647    6.2248   -2.5394 C   0  0  0  0  0  0  0  0  0  0  0  0
    0.2770    5.3304   -1.7613 C   0  0  0  0  0  0  0  0  0  0  0  0
    0.4863    4.0465   -2.2191 C   0  0  0  0  0  0  0  0  0  0  0  0
    1.4047    3.4042   -1.4445 O   0  0  0  0  0  0  0  0  0  0  0  0
    0.3761    2.6238   -0.9841 C   0  0  0  0  0  0  0  0  0  0  0  0
    0.2087    2.2288   -2.3868 O   0  0  0  0  0  0  0  0  0  0  0  0
    0.3476    3.2613   -3.3103 C   0  0  0  0  0  0  0  0  0  0  0  0
    0.4761    4.3340   -4.1651 C   0  0  0  0  0  0  0  0  0  0  0  0
    0.7800    5.7913   -3.8513 C   0  0  0  0  0  0  0  0  0  0  0  0
    0.7930    7.0990   -5.2222 Br  0  0  0  0  0  0  0  0  0  0  0  0
    3.0660    8.3243    0.2666 N   0  0  0  0  0  0  0  0  0  0  0  0
    3.9438    7.7580    1.1713 C   0  0  0  0  0  0  0  0  0  0  0  0
    4.0299    6.4034    0.9944 C   0  0  0  0  0  0  0  0  0  0  0  0
    4.7276    5.5197    1.7213 N   0  0  0  0  0  0  0  0  0  0  0  0
    5.4368    6.1168    2.6796 C   0  0  0  0  0  0  0  0  0  0  0  0
    5.4931    7.4347    2.9436 N   0  0  0  0  0  0  0  0  0  0  0  0
    4.7401    8.2774    2.1935 C   0  0  0  0  0  0  0  0  0  0  0  0
    4.7881    9.6226    2.4493 N   0  0  0  0  0  0  0  0  0  0  0  0
    3.1225   -1.3058    0.8096 C   0  0  0  0  0  0  0  0  0  0  0  0
    0.5334    0.2887   -0.7518 H   0  0  0  0  0  0  0  0  0  0  0  0
    0.6583   -0.0746    0.9873 H   0  0  0  0  0  0  0  0  0  0  0  0
    0.7337   -1.2782   -0.3297 H   0  0  0  0  0  0  0  0  0  0  0  0
    2.9400   -0.3200   -1.0818 H   0  0  0  0  0  0  0  0  0  0  0  0
    4.2766    0.8658    0.6611 H   0  0  0  0  0  0  0  0  0  0  0  0
    2.3801    1.8652   -0.9858 H   0  0  0  0  0  0  0  0  0  0  0  0
    3.9477    2.0561   -1.3391 H   0  0  0  0  0  0  0  0  0  0  0  0
    4.5289    3.5858    0.3978 H   0  0  0  0  0  0  0  0  0  0  0  0
    2.9349    3.5255    1.1848 H   0  0  0  0  0  0  0  0  0  0  0  0
    1.9710    4.8538   -0.2325 H   0  0  0  0  0  0  0  0  0  0  0  0
    3.2200    4.7802   -1.5971 H   0  0  0  0  0  0  0  0  0  0  0  0
    0.1487    5.4157   -0.6920 H   0  0  0  0  0  0  0  0  0  0  0  0
    0.6250    1.8515   -0.2896 H   0  0  0  0  0  0  0  0  0  0  0  0
    0.4846    3.3300   -0.0997 H   0  0  0  0  0  0  0  0  0  0  0  0
    0.3581    4.1520   -5.2408 H   0  0  0  0  0  0  0  0  0  0  0  0
    6.0401    5.4572    3.2960 H   0  0  0  0  0  0  0  0  0  0  0  0
    5.4146    9.9495    3.1631 H   0  0  0  0  0  0  0  0  0  0  0  0
    4.2454   10.2363    1.8579 H   0  0  0  0  0  0  0  0  0  0  0  0
    2.7613   -1.1909    1.8383 H   0  0  0  0  0  0  0  0  0  0  0  0
    4.2136   -1.3233    0.8116 H   0  0  0  0  0  0  0  0  0  0  0  0
    2.7546   -2.2523    0.4077 H   0  0  0  0  0  0  0  0  0  0  0  0
  1  2  1  0  0  0  0
  1 29  1  0  0  0  0
  1 30  1  0  0  0  0
  1 31  1  0  0  0  0
  2  3  1  0  0  0  0
  2 28  1  0  0  0  0
  2 32  1  0  0  0  0
  3  4  1  0  0  0  0
  3 33  1  0  0  0  0
  4  5  1  0  0  0  0
  4 34  1  0  0  0  0
  4 35  1  0  0  0  0
  5  6  1  0  0  0  0
  5 36  1  0  0  0  0
  5 37  1  0  0  0  0
  6  7  1  0  0  0  0
  6 38  1  0  0  0  0
  6 39  1  0  0  0  0
  7  8  1  0  0  0  0
  7 22  1  0  0  0  0
  8  9  1  0  0  0  0
  8 20  2  0  0  0  0
  9 10  1  0  0  0  0
 10 11  2  0  0  0  0
 10 18  1  0  0  0  0
 11 12  1  0  0  0  0
 11 40  1  0  0  0  0
 12 13  1  0  0  0  0
 12 16  2  0  0  0  0
 13 14  1  0  0  0  0
 14 15  1  0  0  0  0
 14 41  1  0  0  0  0
 14 42  1  0  0  0  0
 15 16  1  0  0  0  0
 16 17  1  0  0  0  0
 17 18  2  0  0  0  0
 17 43  1  0  0  0  0
 18 19  1  0  0  0  0
 20 21  1  0  0  0  0
 21 22  2  0  0  0  0
 21 26  1  0  0  0  0
 22 23  1  0  0  0  0
 23 24  2  0  0  0  0
 24 25  1  0  0  0  0
 24 44  1  0  0  0  0
 25 26  2  0  0  0  0
 26 27  1  0  0  0  0
 27 45  1  0  0  0  0
 27 46  1  0  0  0  0
 28 47  1  0  0  0  0
 28 48  1  0  0  0  0
 28 49  1  0  0  0  0
M  END
$$$$
