HAI
 OpenBabel04121316133D

 21 21  0  0  0  0  0  0  0  0999 V2000
    0.9586    0.0355    0.1656 N   0  3  0  0  0  0  0  0  0  0  0  0
    0.5268   -0.1812   -0.7404 H   0  0  0  0  0  0  0  0  0  0  0  0
    0.6041   -0.6549    0.8399 H   0  0  0  0  0  0  0  0  0  0  0  0
    0.6014    0.9577    0.4541 H   0  0  0  0  0  0  0  0  0  0  0  0
    2.4507    0.0250    0.1069 C   0  0  0  0  0  0  0  0  0  0  0  0
    2.9245   -1.3802   -0.2680 C   0  0  0  0  0  0  0  0  0  0  0  0
    2.5231   -1.7640   -1.6926 C   0  0  0  0  0  0  0  0  0  0  0  0
    3.0128   -0.7256   -2.7001 C   0  0  0  0  0  0  0  0  0  0  0  0
    2.5332    0.6819   -2.3482 C   0  0  0  0  0  0  0  0  0  0  0  0
    2.9183    1.0608   -0.9168 C   0  0  0  0  0  0  0  0  0  0  0  0
    2.7931    0.2919    1.1117 H   0  0  0  0  0  0  0  0  0  0  0  0
    2.5370   -2.1205    0.4414 H   0  0  0  0  0  0  0  0  0  0  0  0
    4.0196   -1.4159   -0.1896 H   0  0  0  0  0  0  0  0  0  0  0  0
    1.4330   -1.8589   -1.7631 H   0  0  0  0  0  0  0  0  0  0  0  0
    2.9358   -2.7478   -1.9410 H   0  0  0  0  0  0  0  0  0  0  0  0
    2.6677   -0.9939   -3.7043 H   0  0  0  0  0  0  0  0  0  0  0  0
    4.1096   -0.7367   -2.7236 H   0  0  0  0  0  0  0  0  0  0  0  0
    1.4452    0.7396   -2.4708 H   0  0  0  0  0  0  0  0  0  0  0  0
    2.9619    1.4060   -3.0497 H   0  0  0  0  0  0  0  0  0  0  0  0
    2.5168    2.0515   -0.6732 H   0  0  0  0  0  0  0  0  0  0  0  0
    4.0118    1.1445   -0.8585 H   0  0  0  0  0  0  0  0  0  0  0  0
  1  2  1  0  0  0  0
  1  3  1  0  0  0  0
  1  4  1  0  0  0  0
  1  5  1  0  0  0  0
  5  6  1  0  0  0  0
  5 10  1  0  0  0  0
  5 11  1  0  0  0  0
  6  7  1  0  0  0  0
  6 12  1  0  0  0  0
  6 13  1  0  0  0  0
  7  8  1  0  0  0  0
  7 14  1  0  0  0  0
  7 15  1  0  0  0  0
  8  9  1  0  0  0  0
  8 16  1  0  0  0  0
  8 17  1  0  0  0  0
  9 10  1  0  0  0  0
  9 18  1  0  0  0  0
  9 19  1  0  0  0  0
 10 20  1  0  0  0  0
 10 21  1  0  0  0  0
M  CHG  1   1   1
M  END
$$$$
