HAL
 OpenBabel04121316133D

 62 63  0  0  1  0  0  0  0  0999 V2000
    0.9782   -0.0116    0.1036 O   0  0  0  0  0  0  0  0  0  0  0  0
    2.1981    0.0286    0.0137 C   0  0  0  0  0  0  0  0  0  0  0  0
    2.9850    1.2892   -0.3303 C   0  0  0  0  0  0  0  0  0  0  0  0
    2.1013    2.3723   -0.5344 O   0  0  0  0  0  0  0  0  0  0  0  0
    2.9663    3.8273   -0.8920 P   0  0  1  0  0  0  0  0  0  0  0  0
    1.7933    4.3498   -1.7174 O   0  0  0  0  0  0  0  0  0  0  0  0
    2.8214    4.4665    0.9653 C   0  0  1  0  0  0  0  0  0  0  0  0
    3.8700    4.4971    1.2865 H   0  0  0  0  0  0  0  0  0  0  0  0
    2.1191    5.8673    1.1553 C   0  0  0  0  0  0  0  0  0  0  0  0
    2.7349    7.1499    0.5879 C   0  0  0  0  0  0  0  0  0  0  0  0
    2.3468    8.4516    0.7877 C   0  0  0  0  0  0  0  0  0  0  0  0
    2.7797    9.4611   -0.1181 C   0  0  0  0  0  0  0  0  0  0  0  0
    3.5464    9.1519   -1.2427 C   0  0  0  0  0  0  0  0  0  0  0  0
    4.1429    7.9296   -1.2274 C   0  0  0  0  0  0  0  0  0  0  0  0
    3.9235    7.1443   -0.0915 C   0  0  0  0  0  0  0  0  0  0  0  0
    2.1815    3.3901    1.7410 N   0  0  0  0  0  0  0  0  0  0  0  0
    2.1542    3.4591    3.1066 C   0  0  0  0  0  0  0  0  0  0  0  0
    2.7184    4.3389    3.7122 O   0  0  0  0  0  0  0  0  0  0  0  0
    1.3864    2.3351    3.7761 C   0  0  0  0  0  0  0  0  0  0  0  0
    1.3240    2.6667    5.2595 C   0  0  0  0  0  0  0  0  0  0  0  0
    0.6046    1.6190    6.0904 C   0  0  0  0  0  0  0  0  0  0  0  0
    0.6089    2.0470    7.5418 C   0  0  0  0  0  0  0  0  0  0  0  0
    1.1152    3.0746    7.9699 O   0  0  0  0  0  0  0  0  0  0  0  0
   -0.0089    1.1672    8.3580 O   0  0  0  0  0  0  0  0  0  0  0  0
    3.8313    5.2822   -1.2495 O   0  0  0  0  0  0  0  0  0  0  0  0
    2.9310   -1.0974    0.2673 N   0  0  0  0  0  0  0  0  0  0  0  0
    4.3660   -1.1280    0.3183 C   0  0  0  0  0  0  0  0  0  0  0  0
    4.9352   -2.4857    0.6994 C   0  0  0  0  0  0  0  0  0  0  0  0
    6.4430   -2.4602    0.6919 C   0  0  0  0  0  0  0  0  0  0  0  0
    7.1666   -1.2872    0.9648 C   0  0  0  0  0  0  0  0  0  0  0  0
    8.5360   -1.2297    0.7432 C   0  0  0  0  0  0  0  0  0  0  0  0
    9.2228   -2.3877    0.4058 C   0  0  0  0  0  0  0  0  0  0  0  0
    8.5388   -3.5979    0.2969 C   0  0  0  0  0  0  0  0  0  0  0  0
    7.1482   -3.6274    0.3876 C   0  0  0  0  0  0  0  0  0  0  0  0
    3.5847    1.1364   -1.2324 H   0  0  0  0  0  0  0  0  0  0  0  0
    3.6512    1.5357    0.5042 H   0  0  0  0  0  0  0  0  0  0  0  0
    2.0078    6.0421    2.2270 H   0  0  0  0  0  0  0  0  0  0  0  0
    1.1003    5.7282    0.7579 H   0  0  0  0  0  0  0  0  0  0  0  0
    1.8470    8.7137    1.7143 H   0  0  0  0  0  0  0  0  0  0  0  0
    2.5469   10.4996    0.0722 H   0  0  0  0  0  0  0  0  0  0  0  0
    3.8186    9.8657   -2.0134 H   0  0  0  0  0  0  0  0  0  0  0  0
    4.8234    7.5966   -2.0098 H   0  0  0  0  0  0  0  0  0  0  0  0
    4.6083    6.3442    0.1461 H   0  0  0  0  0  0  0  0  0  0  0  0
    1.6477    2.6850    1.2354 H   0  0  0  0  0  0  0  0  0  0  0  0
    1.9119    1.3887    3.6080 H   0  0  0  0  0  0  0  0  0  0  0  0
    0.3798    2.2608    3.3504 H   0  0  0  0  0  0  0  0  0  0  0  0
    0.8293    3.6399    5.3874 H   0  0  0  0  0  0  0  0  0  0  0  0
    2.3459    2.7924    5.6435 H   0  0  0  0  0  0  0  0  0  0  0  0
    1.1195    0.6573    5.9965 H   0  0  0  0  0  0  0  0  0  0  0  0
   -0.4289    1.5168    5.7446 H   0  0  0  0  0  0  0  0  0  0  0  0
   -0.3783    0.3872    7.9064 H   0  0  0  0  0  0  0  0  0  0  0  0
    3.8350    5.3814   -2.2225 H   0  0  0  0  0  0  0  0  0  0  0  0
    2.3850   -1.9146    0.5148 H   0  0  0  0  0  0  0  0  0  0  0  0
    4.6592   -0.3679    1.0495 H   0  0  0  0  0  0  0  0  0  0  0  0
    4.7471   -0.8114   -0.6615 H   0  0  0  0  0  0  0  0  0  0  0  0
    4.5731   -3.2219   -0.0313 H   0  0  0  0  0  0  0  0  0  0  0  0
    4.5706   -2.7967    1.6844 H   0  0  0  0  0  0  0  0  0  0  0  0
    6.6840   -0.3840    1.3254 H   0  0  0  0  0  0  0  0  0  0  0  0
    9.0586   -0.2822    0.8418 H   0  0  0  0  0  0  0  0  0  0  0  0
   10.2952   -2.3481    0.2436 H   0  0  0  0  0  0  0  0  0  0  0  0
    9.0893   -4.5174    0.1218 H   0  0  0  0  0  0  0  0  0  0  0  0
    6.6204   -4.5613    0.2051 H   0  0  0  0  0  0  0  0  0  0  0  0
  1  2  2  0  0  0  0
  2  3  1  0  0  0  0
  2 26  1  0  0  0  0
  3  4  1  0  0  0  0
  3 35  1  0  0  0  0
  3 36  1  0  0  0  0
  5  4  1  6  0  0  0
  5  6  2  0  0  0  0
  5  7  1  0  0  0  0
  5 25  1  0  0  0  0
  7  8  1  1  0  0  0
  7  9  1  0  0  0  0
  7 16  1  0  0  0  0
  9 10  1  0  0  0  0
  9 37  1  0  0  0  0
  9 38  1  0  0  0  0
 10 11  2  0  0  0  0
 10 15  1  0  0  0  0
 11 12  1  0  0  0  0
 11 39  1  0  0  0  0
 12 13  2  0  0  0  0
 12 40  1  0  0  0  0
 13 14  1  0  0  0  0
 13 41  1  0  0  0  0
 14 15  2  0  0  0  0
 14 42  1  0  0  0  0
 15 43  1  0  0  0  0
 16 17  1  0  0  0  0
 16 44  1  0  0  0  0
 17 18  2  0  0  0  0
 17 19  1  0  0  0  0
 19 20  1  0  0  0  0
 19 45  1  0  0  0  0
 19 46  1  0  0  0  0
 20 21  1  0  0  0  0
 20 47  1  0  0  0  0
 20 48  1  0  0  0  0
 21 22  1  0  0  0  0
 21 49  1  0  0  0  0
 21 50  1  0  0  0  0
 22 23  2  0  0  0  0
 22 24  1  0  0  0  0
 24 51  1  0  0  0  0
 25 52  1  0  0  0  0
 26 27  1  0  0  0  0
 26 53  1  0  0  0  0
 27 28  1  0  0  0  0
 27 54  1  0  0  0  0
 27 55  1  0  0  0  0
 28 29  1  0  0  0  0
 28 56  1  0  0  0  0
 28 57  1  0  0  0  0
 29 30  2  0  0  0  0
 29 34  1  0  0  0  0
 30 31  1  0  0  0  0
 30 58  1  0  0  0  0
 31 32  2  0  0  0  0
 31 59  1  0  0  0  0
 32 33  1  0  0  0  0
 32 60  1  0  0  0  0
 33 34  2  0  0  0  0
 33 61  1  0  0  0  0
 34 62  1  0  0  0  0
M  END
$$$$
