HBI
 OpenBabel04121316133D

 30 31  0  0  1  0  0  0  0  0999 V2000
    1.0128   -0.0687    0.0496 C   0  0  0  0  0  0  0  0  0  0  0  0
    2.5306   -0.0613    0.0883 C   0  0  1  0  0  0  0  0  0  0  0  0
    2.9210   -0.7517   -0.6715 H   0  0  0  0  0  0  0  0  0  0  0  0
    3.0998    1.3476   -0.1376 C   0  0  1  0  0  0  0  0  0  0  0  0
    2.7907    2.0178    0.6737 H   0  0  0  0  0  0  0  0  0  0  0  0
    4.6288    1.3408   -0.1552 C   0  0  0  0  0  0  0  0  0  0  0  0
    5.2795    0.2173   -0.0476 N   0  0  0  0  0  0  0  0  0  0  0  0
    6.6577    0.2770   -0.0144 C   0  0  0  0  0  0  0  0  0  0  0  0
    7.4007    1.4055   -0.1448 C   0  0  0  0  0  0  0  0  0  0  0  0
    6.7265    2.6001   -0.3124 N   0  0  0  0  0  0  0  0  0  0  0  0
    5.2855    2.7082   -0.2852 C   0  0  0  0  0  0  0  0  0  0  0  0
    8.7770    1.4143   -0.1279 N   0  0  0  0  0  0  0  0  0  0  0  0
    9.4017    0.2914    0.0196 C   0  0  0  0  0  0  0  0  0  0  0  0
    8.7605   -0.8938    0.1715 N   0  0  0  0  0  0  0  0  0  0  0  0
    9.2643   -1.7546    0.2911 H   0  0  0  0  0  0  0  0  0  0  0  0
    7.4050   -0.9974    0.1811 C   0  0  0  0  0  0  0  0  0  0  0  0
    6.8610   -2.0923    0.3401 O   0  0  0  0  0  0  0  0  0  0  0  0
   10.7507    0.2394    0.0303 N   0  0  0  0  0  0  0  0  0  0  0  0
    2.6674    1.9134   -1.3770 O   0  0  0  0  0  0  0  0  0  0  0  0
    2.8813   -0.5239    1.3953 O   0  0  0  0  0  0  0  0  0  0  0  0
    0.6170    0.2820   -0.9050 H   0  0  0  0  0  0  0  0  0  0  0  0
    0.6190    0.5611    0.8555 H   0  0  0  0  0  0  0  0  0  0  0  0
    0.6405   -1.0823    0.2270 H   0  0  0  0  0  0  0  0  0  0  0  0
    7.3024    3.4264   -0.3993 H   0  0  0  0  0  0  0  0  0  0  0  0
    4.9296    3.1757   -1.2081 H   0  0  0  0  0  0  0  0  0  0  0  0
    4.9661    3.3170    0.5665 H   0  0  0  0  0  0  0  0  0  0  0  0
   11.2588    1.1066   -0.0846 H   0  0  0  0  0  0  0  0  0  0  0  0
   11.2752   -0.6135    0.1438 H   0  0  0  0  0  0  0  0  0  0  0  0
    1.6974    1.9703   -1.3634 H   0  0  0  0  0  0  0  0  0  0  0  0
    2.8134   -1.4951    1.3797 H   0  0  0  0  0  0  0  0  0  0  0  0
  1  2  1  0  0  0  0
  1 21  1  0  0  0  0
  1 22  1  0  0  0  0
  1 23  1  0  0  0  0
  2  3  1  6  0  0  0
  2  4  1  0  0  0  0
  2 20  1  0  0  0  0
  4  5  1  1  0  0  0
  4  6  1  0  0  0  0
  4 19  1  0  0  0  0
  6  7  2  0  0  0  0
  6 11  1  0  0  0  0
  7  8  1  0  0  0  0
  8  9  2  0  0  0  0
  8 16  1  0  0  0  0
  9 10  1  0  0  0  0
  9 12  1  0  0  0  0
 10 11  1  0  0  0  0
 10 24  1  0  0  0  0
 11 25  1  0  0  0  0
 11 26  1  0  0  0  0
 12 13  2  0  0  0  0
 13 14  1  0  0  0  0
 13 18  1  0  0  0  0
 14 15  1  0  0  0  0
 14 16  1  0  0  0  0
 16 17  2  0  0  0  0
 18 27  1  0  0  0  0
 18 28  1  0  0  0  0
 19 29  1  0  0  0  0
 20 30  1  0  0  0  0
M  END
$$$$
