HBP
 OpenBabel04121316133D

 51 52  0  0  0  0  0  0  0  0999 V2000
    0.7954   -0.3689   -1.0061 O   0  0  0  0  0  0  0  0  0  0  0  0
    2.0777   -0.5277   -0.5019 N   0  0  0  0  0  0  0  0  0  0  0  0
    2.9888   -0.3959   -1.4254 C   0  0  0  0  0  0  0  0  0  0  0  0
    4.4545   -0.3105   -1.1542 C   0  0  0  0  0  0  0  0  0  0  0  0
    5.2017   -0.8681   -2.2094 C   0  0  0  0  0  0  0  0  0  0  0  0
    6.5734   -1.0262   -2.1047 C   0  0  0  0  0  0  0  0  0  0  0  0
    7.2199   -0.5183   -0.9994 C   0  0  0  0  0  0  0  0  0  0  0  0
    6.4855    0.1357   -0.0259 C   0  0  0  0  0  0  0  0  0  0  0  0
    5.1203    0.2030   -0.0499 N   0  3  0  0  0  0  0  0  0  0  0  0
    4.5778    0.8604    1.2085 C   0  0  0  0  0  0  0  0  0  0  0  0
    3.0981    0.8572    1.3001 C   0  0  0  0  0  0  0  0  0  0  0  0
    2.3200    1.4287    2.4512 C   0  0  0  0  0  0  0  0  0  0  0  0
    0.8301    1.2212    2.1174 C   0  0  0  0  0  0  0  0  0  0  0  0
   -0.0219    1.7647    3.2344 C   0  0  0  0  0  0  0  0  0  0  0  0
   -1.5025    1.5889    2.9540 C   0  0  0  0  0  0  0  0  0  0  0  0
   -2.2630    1.9961    4.2093 C   0  0  0  0  0  0  0  0  0  0  0  0
   -3.7046    2.0313    3.9040 N   0  3  0  0  0  0  0  0  0  0  0  0
   -4.3127    0.8203    3.8134 C   0  0  0  0  0  0  0  0  0  0  0  0
   -5.6264    0.6948    3.4066 C   0  0  0  0  0  0  0  0  0  0  0  0
   -6.3759    1.8395    3.2010 C   0  0  0  0  0  0  0  0  0  0  0  0
   -5.7856    3.0862    3.3881 C   0  0  0  0  0  0  0  0  0  0  0  0
   -4.4202    3.1743    3.6827 C   0  0  0  0  0  0  0  0  0  0  0  0
   -3.7870    4.5189    3.6817 C   0  0  0  0  0  0  0  0  0  0  0  0
   -2.5138    4.6782    3.7462 N   0  0  0  0  0  0  0  0  0  0  0  0
   -2.1821    6.0311    3.7862 O   0  0  0  0  0  0  0  0  0  0  0  0
    0.2762   -0.2023   -0.1907 H   0  0  0  0  0  0  0  0  0  0  0  0
    2.6628   -0.4003   -2.4761 H   0  0  0  0  0  0  0  0  0  0  0  0
    4.7055   -1.2321   -3.1085 H   0  0  0  0  0  0  0  0  0  0  0  0
    7.1291   -1.5473   -2.8825 H   0  0  0  0  0  0  0  0  0  0  0  0
    8.2982   -0.6249   -0.8950 H   0  0  0  0  0  0  0  0  0  0  0  0
    6.9969    0.6046    0.8149 H   0  0  0  0  0  0  0  0  0  0  0  0
    4.9791    1.8797    1.2434 H   0  0  0  0  0  0  0  0  0  0  0  0
    4.9972    0.2869    2.0468 H   0  0  0  0  0  0  0  0  0  0  0  0
    2.8597   -0.2067    1.3592 H   0  0  0  0  0  0  0  0  0  0  0  0
    2.7444    1.3915    0.4128 H   0  0  0  0  0  0  0  0  0  0  0  0
    2.5391    2.4903    2.5832 H   0  0  0  0  0  0  0  0  0  0  0  0
    2.5661    0.8926    3.3732 H   0  0  0  0  0  0  0  0  0  0  0  0
    0.6110    0.1515    1.9876 H   0  0  0  0  0  0  0  0  0  0  0  0
    0.5673    1.7147    1.1710 H   0  0  0  0  0  0  0  0  0  0  0  0
    0.2000    2.8281    3.3736 H   0  0  0  0  0  0  0  0  0  0  0  0
    0.2388    1.2410    4.1604 H   0  0  0  0  0  0  0  0  0  0  0  0
   -1.7241    0.5429    2.7022 H   0  0  0  0  0  0  0  0  0  0  0  0
   -1.8054    2.1849    2.0829 H   0  0  0  0  0  0  0  0  0  0  0  0
   -1.8904    2.9143    4.6477 H   0  0  0  0  0  0  0  0  0  0  0  0
   -2.1129    1.2600    5.0073 H   0  0  0  0  0  0  0  0  0  0  0  0
   -3.7113   -0.0587    4.0385 H   0  0  0  0  0  0  0  0  0  0  0  0
   -6.0605   -0.2922    3.2588 H   0  0  0  0  0  0  0  0  0  0  0  0
   -7.4173    1.7570    2.8919 H   0  0  0  0  0  0  0  0  0  0  0  0
   -6.3955    3.9808    3.2684 H   0  0  0  0  0  0  0  0  0  0  0  0
   -4.4659    5.3951    3.6022 H   0  0  0  0  0  0  0  0  0  0  0  0
   -1.2203    6.0232    3.9642 H   0  0  0  0  0  0  0  0  0  0  0  0
  1  2  1  0  0  0  0
  1 26  1  0  0  0  0
  2  3  2  0  0  0  0
  3  4  1  0  0  0  0
  3 27  1  0  0  0  0
  4  5  2  0  0  0  0
  4  9  1  0  0  0  0
  5  6  1  0  0  0  0
  5 28  1  0  0  0  0
  6  7  2  0  0  0  0
  6 29  1  0  0  0  0
  7  8  1  0  0  0  0
  7 30  1  0  0  0  0
  8  9  2  0  0  0  0
  8 31  1  0  0  0  0
  9 10  1  0  0  0  0
 10 11  1  0  0  0  0
 10 32  1  0  0  0  0
 10 33  1  0  0  0  0
 11 12  1  0  0  0  0
 11 34  1  0  0  0  0
 11 35  1  0  0  0  0
 12 13  1  0  0  0  0
 12 36  1  0  0  0  0
 12 37  1  0  0  0  0
 13 14  1  0  0  0  0
 13 38  1  0  0  0  0
 13 39  1  0  0  0  0
 14 15  1  0  0  0  0
 14 40  1  0  0  0  0
 14 41  1  0  0  0  0
 15 16  1  0  0  0  0
 15 42  1  0  0  0  0
 15 43  1  0  0  0  0
 16 17  1  0  0  0  0
 16 44  1  0  0  0  0
 16 45  1  0  0  0  0
 17 18  2  0  0  0  0
 17 22  1  0  0  0  0
 18 19  1  0  0  0  0
 18 46  1  0  0  0  0
 19 20  2  0  0  0  0
 19 47  1  0  0  0  0
 20 21  1  0  0  0  0
 20 48  1  0  0  0  0
 21 22  2  0  0  0  0
 21 49  1  0  0  0  0
 22 23  1  0  0  0  0
 23 24  2  0  0  0  0
 23 50  1  0  0  0  0
 24 25  1  0  0  0  0
 25 51  1  0  0  0  0
M  CHG  2   9   1  17   1
M  END
$$$$
