HBT
 OpenBabel04121316133D

 42 44  0  0  1  0  0  0  0  0999 V2000
    2.9350    1.2461    0.8133 C   0  0  0  0  0  0  0  0  0  0  0  0
    2.4728    0.0046    0.0658 C   0  0  1  0  0  0  0  0  0  0  0  0
    1.3729    0.0126    0.0265 H   0  0  0  0  0  0  0  0  0  0  0  0
    3.0126    0.1729   -1.3434 C   0  0  0  0  0  0  0  0  0  0  0  0
    2.4369   -0.8819   -2.2111 C   0  0  0  0  0  0  0  0  0  0  0  0
    2.4964   -2.2553   -1.6951 C   0  0  0  0  0  0  0  0  0  0  0  0
    2.7263   -2.5091   -0.3618 C   0  0  0  0  0  0  0  0  0  0  0  0
    2.9422   -1.3760    0.6641 C   0  0  0  0  0  0  0  0  0  0  0  0
    2.7961   -4.2055   -0.1253 S   0  0  0  0  0  0  0  0  0  0  0  0
    2.4475   -4.5531   -1.8071 C   0  0  0  0  0  0  0  0  0  0  0  0
    2.3092   -3.3917   -2.5662 C   0  0  0  0  0  0  0  0  0  0  0  0
    2.0941   -3.2405   -4.0314 C   0  0  0  0  0  0  0  0  0  0  0  0
    2.2513   -4.0793   -4.9221 O   0  0  0  0  0  0  0  0  0  0  0  0
    1.7690   -2.0473   -4.6014 N   0  0  0  0  0  0  0  0  0  0  0  0
    2.4064   -5.9119   -2.1355 N   0  0  0  0  0  0  0  0  0  0  0  0
    1.9317   -6.3433   -3.3592 C   0  0  0  0  0  0  0  0  0  0  0  0
    1.0600   -5.8257   -4.0684 O   0  0  0  0  0  0  0  0  0  0  0  0
    2.1891   -7.6906   -3.8085 C   0  0  0  0  0  0  0  0  0  0  0  0
    1.2255   -8.6018   -3.3529 C   0  0  0  0  0  0  0  0  0  0  0  0
    1.2523   -9.9124   -3.7936 C   0  0  0  0  0  0  0  0  0  0  0  0
    2.1254  -10.2689   -4.8185 C   0  0  0  0  0  0  0  0  0  0  0  0
    2.9254   -9.3047   -5.4419 C   0  0  0  0  0  0  0  0  0  0  0  0
    2.9967   -8.0092   -4.9092 C   0  0  0  0  0  0  0  0  0  0  0  0
    3.9292   -7.0520   -5.5299 N   0  3  0  0  0  0  0  0  0  0  0  0
    4.5650   -7.4429   -6.5233 O   0  0  0  0  0  0  0  0  0  0  0  0
    4.1270   -5.9660   -4.9814 O   0  5  0  0  0  0  0  0  0  0  0  0
    4.0278    1.3142    0.8132 H   0  0  0  0  0  0  0  0  0  0  0  0
    2.5632    1.2600    1.8358 H   0  0  0  0  0  0  0  0  0  0  0  0
    2.5614    2.1479    0.3035 H   0  0  0  0  0  0  0  0  0  0  0  0
    4.1066    0.0982   -1.3604 H   0  0  0  0  0  0  0  0  0  0  0  0
    2.7400    1.1336   -1.7971 H   0  0  0  0  0  0  0  0  0  0  0  0
    3.0586   -0.8335   -3.1038 H   0  0  0  0  0  0  0  0  0  0  0  0
    1.3762   -0.6656   -2.3919 H   0  0  0  0  0  0  0  0  0  0  0  0
    4.0106   -1.2954    0.9038 H   0  0  0  0  0  0  0  0  0  0  0  0
    2.3973   -1.5535    1.5980 H   0  0  0  0  0  0  0  0  0  0  0  0
    1.6388   -1.1300   -4.2263 H   0  0  0  0  0  0  0  0  0  0  0  0
    1.6963   -2.1480   -5.5998 H   0  0  0  0  0  0  0  0  0  0  0  0
    2.6673   -6.5873   -1.4222 H   0  0  0  0  0  0  0  0  0  0  0  0
    0.4074   -8.2495   -2.7221 H   0  0  0  0  0  0  0  0  0  0  0  0
    0.5672  -10.6363   -3.3623 H   0  0  0  0  0  0  0  0  0  0  0  0
    2.1633  -11.3008   -5.1537 H   0  0  0  0  0  0  0  0  0  0  0  0
    3.4814   -9.5790   -6.3377 H   0  0  0  0  0  0  0  0  0  0  0  0
  1 27  1  0  0  0  0
  1 28  1  0  0  0  0
  1 29  1  0  0  0  0
  2  4  1  0  0  0  0
  2  8  1  0  0  0  0
  2  3  1  6  0  0  0
  2  1  1  0  0  0  0
  4  5  1  0  0  0  0
  4 30  1  0  0  0  0
  4 31  1  0  0  0  0
  5  6  1  0  0  0  0
  5 32  1  0  0  0  0
  5 33  1  0  0  0  0
  6  7  2  0  0  0  0
  6 11  1  0  0  0  0
  7  8  1  0  0  0  0
  7  9  1  0  0  0  0
  8 34  1  0  0  0  0
  8 35  1  0  0  0  0
  9 10  1  0  0  0  0
 10 11  2  0  0  0  0
 10 15  1  0  0  0  0
 11 12  1  0  0  0  0
 12 13  2  0  0  0  0
 12 14  1  0  0  0  0
 14 36  1  0  0  0  0
 14 37  1  0  0  0  0
 15 16  1  0  0  0  0
 15 38  1  0  0  0  0
 16 17  2  0  0  0  0
 16 18  1  0  0  0  0
 18 19  2  0  0  0  0
 18 23  1  0  0  0  0
 19 20  1  0  0  0  0
 19 39  1  0  0  0  0
 20 21  2  0  0  0  0
 20 40  1  0  0  0  0
 21 22  1  0  0  0  0
 21 41  1  0  0  0  0
 22 23  2  0  0  0  0
 22 42  1  0  0  0  0
 23 24  1  0  0  0  0
 24 25  2  0  0  0  0
 24 26  1  0  0  0  0
M  CHG  2  24   1  26  -1
M  END
$$$$
