HBX
 OpenBabel04121316133D

 14 14  0  0  0  0  0  0  0  0999 V2000
    1.0016    0.0429    0.0262 O   0  0  0  0  0  0  0  0  0  0  0  0
    2.2272    0.0500   -0.0846 C   0  0  0  0  0  0  0  0  0  0  0  0
    2.9342   -1.1174   -0.6266 C   0  0  0  0  0  0  0  0  0  0  0  0
    3.9531   -0.9464   -1.5661 C   0  0  0  0  0  0  0  0  0  0  0  0
    4.4474   -2.0674   -2.2360 C   0  0  0  0  0  0  0  0  0  0  0  0
    4.0225   -3.3469   -1.8697 C   0  0  0  0  0  0  0  0  0  0  0  0
    3.1129   -3.5121   -0.8254 C   0  0  0  0  0  0  0  0  0  0  0  0
    2.5226   -2.3945   -0.2418 C   0  0  0  0  0  0  0  0  0  0  0  0
    2.8294    0.9272    0.1913 H   0  0  0  0  0  0  0  0  0  0  0  0
    4.3236    0.0415   -1.8246 H   0  0  0  0  0  0  0  0  0  0  0  0
    5.1519   -1.9486   -3.0561 H   0  0  0  0  0  0  0  0  0  0  0  0
    4.3971   -4.2182   -2.4017 H   0  0  0  0  0  0  0  0  0  0  0  0
    2.8405   -4.5083   -0.4874 H   0  0  0  0  0  0  0  0  0  0  0  0
    1.7414   -2.5141    0.5051 H   0  0  0  0  0  0  0  0  0  0  0  0
  1  2  2  0  0  0  0
  2  3  1  0  0  0  0
  2  9  1  0  0  0  0
  3  4  2  0  0  0  0
  3  8  1  0  0  0  0
  4  5  1  0  0  0  0
  4 10  1  0  0  0  0
  5  6  2  0  0  0  0
  5 11  1  0  0  0  0
  6  7  1  0  0  0  0
  6 12  1  0  0  0  0
  7  8  2  0  0  0  0
  7 13  1  0  0  0  0
  8 14  1  0  0  0  0
M  END
$$$$
