HBY
 OpenBabel04121316133D

 42 43  0  0  1  0  0  0  0  0999 V2000
    6.2624   -4.6222   -3.5272 C   0  0  0  0  0  0  0  0  0  0  0  0
    5.7269   -3.9940   -1.9362 S   0  0  0  0  0  0  0  0  0  0  0  0
    5.3625   -2.1945   -2.2712 C   0  0  0  0  0  0  0  0  0  0  0  0
    4.9211   -1.3959   -0.9784 C   0  0  1  0  0  0  0  0  0  0  0  0
    3.8269   -1.3816   -0.9316 H   0  0  0  0  0  0  0  0  0  0  0  0
    5.4906   -2.0760    0.2684 C   0  0  0  0  0  0  0  0  0  0  0  0
    4.5717   -2.7796    1.4705 S   0  0  0  0  0  0  0  0  0  0  0  0
    6.8677   -2.1429    0.2542 N   0  0  0  0  0  0  0  0  0  0  0  0
    7.5884   -1.0382   -0.2187 C   0  0  0  0  0  0  0  0  0  0  0  0
    6.8934    0.0817   -0.7284 C   0  0  0  0  0  0  0  0  0  0  0  0
    5.4642   -0.0084   -0.9530 N   0  0  0  0  0  0  0  0  0  0  0  0
    4.6646    1.1321   -1.0194 C   0  0  0  0  0  0  0  0  0  0  0  0
    5.0738    2.2794   -0.8121 O   0  0  0  0  0  0  0  0  0  0  0  0
    3.3529    0.9056   -1.3418 O   0  0  0  0  0  0  0  0  0  0  0  0
    2.5402    2.1077   -1.4479 C   0  0  0  0  0  0  0  0  0  0  0  0
    2.9521    2.9503   -2.6596 C   0  0  0  0  0  0  0  0  0  0  0  0
    1.0785    1.6999   -1.6162 C   0  0  0  0  0  0  0  0  0  0  0  0
    7.6357    1.2272   -1.0241 C   0  0  0  0  0  0  0  0  0  0  0  0
    9.0177    1.2646   -0.8224 C   0  0  0  0  0  0  0  0  0  0  0  0
    9.6806    0.1364   -0.3404 C   0  0  0  0  0  0  0  0  0  0  0  0
    8.9699   -1.0249   -0.0503 C   0  0  0  0  0  0  0  0  0  0  0  0
    9.6057    2.4579   -1.1420 O   0  0  0  0  0  0  0  0  0  0  0  0
   11.0097    2.5319   -0.9420 C   0  0  0  0  0  0  0  0  0  0  0  0
    6.6145   -5.6466   -3.3590 H   0  0  0  0  0  0  0  0  0  0  0  0
    7.0853   -4.0517   -3.9627 H   0  0  0  0  0  0  0  0  0  0  0  0
    5.4067   -4.6622   -4.1999 H   0  0  0  0  0  0  0  0  0  0  0  0
    4.5600   -2.1458   -3.0132 H   0  0  0  0  0  0  0  0  0  0  0  0
    6.2455   -1.7302   -2.7289 H   0  0  0  0  0  0  0  0  0  0  0  0
    7.3301   -2.9596    0.6354 H   0  0  0  0  0  0  0  0  0  0  0  0
    2.6259    2.6945   -0.5223 H   0  0  0  0  0  0  0  0  0  0  0  0
    2.9024    2.3513   -3.5741 H   0  0  0  0  0  0  0  0  0  0  0  0
    3.9798    3.3154   -2.5855 H   0  0  0  0  0  0  0  0  0  0  0  0
    2.3080    3.8284   -2.7697 H   0  0  0  0  0  0  0  0  0  0  0  0
    0.9523    1.0731   -2.5052 H   0  0  0  0  0  0  0  0  0  0  0  0
    0.4326    2.5800   -1.7216 H   0  0  0  0  0  0  0  0  0  0  0  0
    0.7302    1.1181   -0.7578 H   0  0  0  0  0  0  0  0  0  0  0  0
    7.1732    2.1179   -1.4367 H   0  0  0  0  0  0  0  0  0  0  0  0
   10.7496    0.1375   -0.1598 H   0  0  0  0  0  0  0  0  0  0  0  0
    9.4985   -1.8838    0.3522 H   0  0  0  0  0  0  0  0  0  0  0  0
   11.3433    3.5295   -1.2381 H   0  0  0  0  0  0  0  0  0  0  0  0
   11.5287    1.8025   -1.5727 H   0  0  0  0  0  0  0  0  0  0  0  0
   11.2604    2.3920    0.1149 H   0  0  0  0  0  0  0  0  0  0  0  0
  1  2  1  0  0  0  0
  1 24  1  0  0  0  0
  1 25  1  0  0  0  0
  1 26  1  0  0  0  0
  2  3  1  0  0  0  0
  3 27  1  0  0  0  0
  3 28  1  0  0  0  0
  4  6  1  0  0  0  0
  4 11  1  0  0  0  0
  4  5  1  1  0  0  0
  4  3  1  0  0  0  0
  6  7  2  0  0  0  0
  6  8  1  0  0  0  0
  8  9  1  0  0  0  0
  8 29  1  0  0  0  0
  9 10  2  0  0  0  0
  9 21  1  0  0  0  0
 10 11  1  0  0  0  0
 10 18  1  0  0  0  0
 11 12  1  0  0  0  0
 12 13  2  0  0  0  0
 12 14  1  0  0  0  0
 14 15  1  0  0  0  0
 15 16  1  0  0  0  0
 15 17  1  0  0  0  0
 15 30  1  0  0  0  0
 16 31  1  0  0  0  0
 16 32  1  0  0  0  0
 16 33  1  0  0  0  0
 17 34  1  0  0  0  0
 17 35  1  0  0  0  0
 17 36  1  0  0  0  0
 18 19  2  0  0  0  0
 18 37  1  0  0  0  0
 19 20  1  0  0  0  0
 19 22  1  0  0  0  0
 20 21  2  0  0  0  0
 20 38  1  0  0  0  0
 21 39  1  0  0  0  0
 22 23  1  0  0  0  0
 23 40  1  0  0  0  0
 23 41  1  0  0  0  0
 23 42  1  0  0  0  0
M  END
$$$$
