HCG
 OpenBabel04121316133D

 40 39  0  0  1  0  0  0  0  0999 V2000
    0.9389    0.3102   -0.0208 S   0  0  0  0  0  0  0  0  0  0  0  0
    2.7577    0.0968   -0.0670 C   0  0  0  0  0  0  0  0  0  0  0  0
    3.3001   -0.7817    1.0733 C   0  0  1  0  0  0  0  0  0  0  0  0
    2.9406   -0.4168    2.0446 H   0  0  0  0  0  0  0  0  0  0  0  0
    2.8592   -2.2660    0.8957 C   0  0  0  0  0  0  0  0  0  0  0  0
    3.6378   -3.1877    0.6505 O   0  0  0  0  0  0  0  0  0  0  0  0
    1.5117   -2.4940    1.0162 N   0  0  0  0  0  0  0  0  0  0  0  0
    0.9521   -3.8122    0.8164 C   0  0  0  0  0  0  0  0  0  0  0  0
   -0.5672   -3.7298    0.8108 C   0  0  0  0  0  0  0  0  0  0  0  0
   -1.1953   -2.6827    0.9015 O   0  0  0  0  0  0  0  0  0  0  0  0
   -1.1807   -4.9272    0.6759 O   0  0  0  0  0  0  0  0  0  0  0  0
    4.7662   -0.7289    1.1282 N   0  0  0  0  0  0  0  0  0  0  0  0
    5.4139   -1.3822    2.1495 C   0  0  0  0  0  0  0  0  0  0  0  0
    4.8162   -1.9297    3.0728 O   0  0  0  0  0  0  0  0  0  0  0  0
    6.9250   -1.3704    2.0412 C   0  0  0  0  0  0  0  0  0  0  0  0
    7.4683   -2.2348    3.1643 C   0  0  0  0  0  0  0  0  0  0  0  0
    8.9825   -2.3161    3.2238 C   0  0  0  0  0  0  0  0  0  0  0  0
    9.4605   -3.1769    4.4049 C   0  0  1  0  0  0  0  0  0  0  0  0
    9.0829   -2.7859    5.3569 H   0  0  0  0  0  0  0  0  0  0  0  0
    9.0415   -4.6697    4.2912 C   0  0  0  0  0  0  0  0  0  0  0  0
    9.8316   -5.5907    4.0800 O   0  0  0  0  0  0  0  0  0  0  0  0
    7.7243   -4.9309    4.4407 O   0  0  0  0  0  0  0  0  0  0  0  0
   10.9379   -3.0941    4.4565 N   0  0  0  0  0  0  0  0  0  0  0  0
    0.7677    0.8808   -1.2213 H   0  0  0  0  0  0  0  0  0  0  0  0
    3.1872    1.1022   -0.0029 H   0  0  0  0  0  0  0  0  0  0  0  0
    3.0535   -0.3201   -1.0373 H   0  0  0  0  0  0  0  0  0  0  0  0
    0.8603   -1.7066    1.0242 H   0  0  0  0  0  0  0  0  0  0  0  0
    1.2955   -4.4449    1.6390 H   0  0  0  0  0  0  0  0  0  0  0  0
    1.3066   -4.2020   -0.1427 H   0  0  0  0  0  0  0  0  0  0  0  0
   -0.5760   -5.6910    0.6116 H   0  0  0  0  0  0  0  0  0  0  0  0
    5.3025   -0.3291    0.3699 H   0  0  0  0  0  0  0  0  0  0  0  0
    7.2879   -0.3430    2.1205 H   0  0  0  0  0  0  0  0  0  0  0  0
    7.2306   -1.7939    1.0772 H   0  0  0  0  0  0  0  0  0  0  0  0
    7.0600   -3.2298    2.9735 H   0  0  0  0  0  0  0  0  0  0  0  0
    7.0847   -1.8888    4.1338 H   0  0  0  0  0  0  0  0  0  0  0  0
    9.3811   -1.2968    3.3218 H   0  0  0  0  0  0  0  0  0  0  0  0
    9.3597   -2.7221    2.2778 H   0  0  0  0  0  0  0  0  0  0  0  0
    7.1307   -4.1778    4.6236 H   0  0  0  0  0  0  0  0  0  0  0  0
   11.2611   -2.1312    4.4429 H   0  0  0  0  0  0  0  0  0  0  0  0
   11.3144   -3.5532    3.6225 H   0  0  0  0  0  0  0  0  0  0  0  0
  1  2  1  0  0  0  0
  1 24  1  0  0  0  0
  2  3  1  0  0  0  0
  2 25  1  0  0  0  0
  2 26  1  0  0  0  0
  3  4  1  1  0  0  0
  3  5  1  0  0  0  0
  3 12  1  0  0  0  0
  5  6  2  0  0  0  0
  5  7  1  0  0  0  0
  7  8  1  0  0  0  0
  7 27  1  0  0  0  0
  8  9  1  0  0  0  0
  8 28  1  0  0  0  0
  8 29  1  0  0  0  0
  9 10  2  0  0  0  0
  9 11  1  0  0  0  0
 11 30  1  0  0  0  0
 12 13  1  0  0  0  0
 12 31  1  0  0  0  0
 13 14  2  0  0  0  0
 13 15  1  0  0  0  0
 15 16  1  0  0  0  0
 15 32  1  0  0  0  0
 15 33  1  0  0  0  0
 16 17  1  0  0  0  0
 16 34  1  0  0  0  0
 16 35  1  0  0  0  0
 17 18  1  0  0  0  0
 17 36  1  0  0  0  0
 17 37  1  0  0  0  0
 18 19  1  1  0  0  0
 18 20  1  0  0  0  0
 18 23  1  0  0  0  0
 20 21  2  0  0  0  0
 20 22  1  0  0  0  0
 22 38  1  0  0  0  0
 23 39  1  0  0  0  0
 23 40  1  0  0  0  0
M  END
$$$$
