HDB
 OpenBabel04121316133D

 34 35  0  0  1  0  0  0  0  0999 V2000
    1.6501    1.1873   -2.7777 O   0  0  0  0  0  0  0  0  0  0  0  0
    2.8269    1.1938   -1.9830 C   0  0  0  0  0  0  0  0  0  0  0  0
    2.8647    1.2990   -0.4671 C   0  0  2  0  0  0  0  0  0  0  0  0
    2.5080    0.3647   -0.0867 H   0  0  0  0  0  0  0  0  0  0  0  0
    2.0351    2.5360   -0.0435 C   0  0  0  0  0  0  0  0  0  0  0  0
    3.0777    3.6835   -0.1115 O   0  0  0  0  0  0  0  0  0  0  0  0
    4.3817    3.0422    0.4079 B   0  0  0  0  0  0  0  0  0  0  0  0
    4.2458    1.5261    0.1817 O   0  0  0  0  0  0  0  0  0  0  0  0
    5.5682    3.7664    1.0227 C   0  0  0  0  0  0  0  0  0  0  0  0
    5.4873    5.1712    1.2333 C   0  0  0  0  0  0  0  0  0  0  0  0
    6.6538    5.8899    1.5418 C   0  0  0  0  0  0  0  0  0  0  0  0
    7.7324    5.2574    1.8996 C   0  0  0  0  0  0  0  0  0  0  0  0
    7.7298    3.8590    1.9882 C   0  0  0  0  0  0  0  0  0  0  0  0
    6.6750    3.1222    1.3966 C   0  0  0  0  0  0  0  0  0  0  0  0
    8.9657    6.0166    2.2139 C   0  0  0  0  0  0  0  0  0  0  0  0
   10.0095    5.1030    2.5794 N   0  0  0  0  0  0  0  0  0  0  0  0
   11.2740    5.5877    2.9204 C   0  0  0  0  0  0  0  0  0  0  0  0
   11.5000    6.8382    2.9070 N   0  0  0  0  0  0  0  0  0  0  0  0
   12.2902    4.6983    3.2763 N   0  0  0  0  0  0  0  0  0  0  0  0
    1.8925    1.1112   -3.7138 H   0  0  0  0  0  0  0  0  0  0  0  0
    3.4048    2.0210   -2.3390 H   0  0  0  0  0  0  0  0  0  0  0  0
    3.1461    0.1804   -2.1100 H   0  0  0  0  0  0  0  0  0  0  0  0
    1.6508    2.4218    0.9485 H   0  0  0  0  0  0  0  0  0  0  0  0
    1.1771    2.7040   -0.6602 H   0  0  0  0  0  0  0  0  0  0  0  0
    4.5800    5.6574    1.1600 H   0  0  0  0  0  0  0  0  0  0  0  0
    6.6551    6.9203    1.4845 H   0  0  0  0  0  0  0  0  0  0  0  0
    8.4921    3.3688    2.4818 H   0  0  0  0  0  0  0  0  0  0  0  0
    6.7612    2.1034    1.2569 H   0  0  0  0  0  0  0  0  0  0  0  0
    8.7756    6.6849    3.0276 H   0  0  0  0  0  0  0  0  0  0  0  0
    9.2678    6.5779    1.3545 H   0  0  0  0  0  0  0  0  0  0  0  0
    9.8345    4.1342    2.5899 H   0  0  0  0  0  0  0  0  0  0  0  0
   10.7837    7.4652    2.6561 H   0  0  0  0  0  0  0  0  0  0  0  0
   12.1151    3.7296    3.2867 H   0  0  0  0  0  0  0  0  0  0  0  0
   13.1816    5.0401    3.5167 H   0  0  0  0  0  0  0  0  0  0  0  0
  1  2  1  0  0  0  0
  1 20  1  0  0  0  0
  2 21  1  0  0  0  0
  2 22  1  0  0  0  0
  3  5  1  0  0  0  0
  3  8  1  0  0  0  0
  3  4  1  1  0  0  0
  3  2  1  0  0  0  0
  5  6  1  0  0  0  0
  5 23  1  0  0  0  0
  5 24  1  0  0  0  0
  6  7  1  0  0  0  0
  7  8  1  0  0  0  0
  7  9  1  0  0  0  0
  9 10  2  0  0  0  0
  9 14  1  0  0  0  0
 10 11  1  0  0  0  0
 10 25  1  0  0  0  0
 11 12  2  0  0  0  0
 11 26  1  0  0  0  0
 12 13  1  0  0  0  0
 12 15  1  0  0  0  0
 13 14  2  0  0  0  0
 13 27  1  0  0  0  0
 14 28  1  0  0  0  0
 15 16  1  0  0  0  0
 15 29  1  0  0  0  0
 15 30  1  0  0  0  0
 16 17  1  0  0  0  0
 16 31  1  0  0  0  0
 17 18  2  0  0  0  0
 17 19  1  0  0  0  0
 18 32  1  0  0  0  0
 19 33  1  0  0  0  0
 19 34  1  0  0  0  0
M  END
$$$$
