HDU
 OpenBabel04121316133D

 33 35  0  0  0  0  0  0  0  0999 V2000
    0.9488   -0.0573   -0.0196 C   0  0  0  0  0  0  0  0  0  0  0  0
    2.4409   -0.0904    0.1328 C   0  0  0  0  0  0  0  0  0  0  0  0
    2.9104   -0.2465    1.2635 O   0  0  0  0  0  0  0  0  0  0  0  0
    3.1524    0.0390   -1.0366 N   0  0  0  0  0  0  0  0  0  0  0  0
    4.5461    0.0850   -1.0613 C   0  0  0  0  0  0  0  0  0  0  0  0
    5.1463    0.0998   -2.2608 N   0  0  0  0  0  0  0  0  0  0  0  0
    6.4840    0.3068   -2.2519 C   0  0  0  0  0  0  0  0  0  0  0  0
    7.2080    0.5938   -1.1217 C   0  0  0  0  0  0  0  0  0  0  0  0
    6.5158    0.4266    0.0451 C   0  0  0  0  0  0  0  0  0  0  0  0
    5.2084    0.1669    0.0905 N   0  0  0  0  0  0  0  0  0  0  0  0
    7.1874    0.2906    1.3163 C   0  0  0  0  0  0  0  0  0  0  0  0
    7.5221   -0.8704    1.9955 C   0  0  0  0  0  0  0  0  0  0  0  0
    7.2509   -2.2714    1.5893 C   0  0  0  0  0  0  0  0  0  0  0  0
    8.2151   -0.5847    3.1496 N   0  0  0  0  0  0  0  0  0  0  0  0
    8.2700    0.7301    3.2051 C   0  0  0  0  0  0  0  0  0  0  0  0
    7.6508    1.3187    2.1031 N   0  0  0  0  0  0  0  0  0  0  0  0
    7.5845    2.6999    1.9107 C   0  0  0  0  0  0  0  0  0  0  0  0
    8.1392    3.5192    2.8195 C   0  0  0  0  0  0  0  0  0  0  0  0
    8.7909    2.9392    3.9835 C   0  0  0  0  0  0  0  0  0  0  0  0
    8.8504    1.6057    4.1679 C   0  0  0  0  0  0  0  0  0  0  0  0
    0.5078   -0.2019    0.9745 H   0  0  0  0  0  0  0  0  0  0  0  0
    0.6096   -0.8710   -0.6633 H   0  0  0  0  0  0  0  0  0  0  0  0
    0.6178    0.9113   -0.4000 H   0  0  0  0  0  0  0  0  0  0  0  0
    2.7044    0.1263   -1.9363 H   0  0  0  0  0  0  0  0  0  0  0  0
    6.9906    0.1932   -3.2066 H   0  0  0  0  0  0  0  0  0  0  0  0
    8.2608    0.8335   -1.1372 H   0  0  0  0  0  0  0  0  0  0  0  0
    6.7132   -2.3145    0.6359 H   0  0  0  0  0  0  0  0  0  0  0  0
    6.6400   -2.7814    2.3388 H   0  0  0  0  0  0  0  0  0  0  0  0
    8.1888   -2.8196    1.4611 H   0  0  0  0  0  0  0  0  0  0  0  0
    7.0759    3.0609    1.0267 H   0  0  0  0  0  0  0  0  0  0  0  0
    8.1067    4.5978    2.7140 H   0  0  0  0  0  0  0  0  0  0  0  0
    9.2258    3.6192    4.7096 H   0  0  0  0  0  0  0  0  0  0  0  0
    9.3306    1.1733    5.0383 H   0  0  0  0  0  0  0  0  0  0  0  0
  1  2  1  0  0  0  0
  1 21  1  0  0  0  0
  1 22  1  0  0  0  0
  1 23  1  0  0  0  0
  2  3  2  0  0  0  0
  2  4  1  0  0  0  0
  4  5  1  0  0  0  0
  4 24  1  0  0  0  0
  5  6  2  0  0  0  0
  5 10  1  0  0  0  0
  6  7  1  0  0  0  0
  7  8  2  0  0  0  0
  7 25  1  0  0  0  0
  8  9  1  0  0  0  0
  8 26  1  0  0  0  0
  9 10  2  0  0  0  0
  9 11  1  0  0  0  0
 11 12  2  0  0  0  0
 11 16  1  0  0  0  0
 12 13  1  0  0  0  0
 12 14  1  0  0  0  0
 13 27  1  0  0  0  0
 13 28  1  0  0  0  0
 13 29  1  0  0  0  0
 14 15  2  0  0  0  0
 15 16  1  0  0  0  0
 15 20  1  0  0  0  0
 16 17  1  0  0  0  0
 17 18  2  0  0  0  0
 17 30  1  0  0  0  0
 18 19  1  0  0  0  0
 18 31  1  0  0  0  0
 19 20  2  0  0  0  0
 19 32  1  0  0  0  0
 20 33  1  0  0  0  0
M  END
$$$$
