HEX
 OpenBabel04121316133D

 20 19  0  0  0  0  0  0  0  0999 V2000
    0.9727    0.0338   -0.1007 C   0  0  0  0  0  0  0  0  0  0  0  0
    2.4921    0.0454   -0.0907 C   0  0  0  0  0  0  0  0  0  0  0  0
    3.0260    1.1257    0.8478 C   0  0  0  0  0  0  0  0  0  0  0  0
    4.5532    1.1387    0.8592 C   0  0  0  0  0  0  0  0  0  0  0  0
    5.0871    2.2191    1.7977 C   0  0  0  0  0  0  0  0  0  0  0  0
    6.6065    2.2306    1.8078 C   0  0  0  0  0  0  0  0  0  0  0  0
    0.6034   -0.7439   -0.7764 H   0  0  0  0  0  0  0  0  0  0  0  0
    0.5775    0.9965   -0.4395 H   0  0  0  0  0  0  0  0  0  0  0  0
    0.5775   -0.1671    0.8999 H   0  0  0  0  0  0  0  0  0  0  0  0
    2.8599    0.2196   -1.1083 H   0  0  0  0  0  0  0  0  0  0  0  0
    2.8599   -0.9379    0.2241 H   0  0  0  0  0  0  0  0  0  0  0  0
    2.6518    0.9491    1.8633 H   0  0  0  0  0  0  0  0  0  0  0  0
    2.6518    2.1065    0.5311 H   0  0  0  0  0  0  0  0  0  0  0  0
    4.9274    1.3153   -0.1563 H   0  0  0  0  0  0  0  0  0  0  0  0
    4.9274    0.1579    1.1760 H   0  0  0  0  0  0  0  0  0  0  0  0
    4.7192    2.0448    2.8153 H   0  0  0  0  0  0  0  0  0  0  0  0
    4.7192    3.2023    1.4829 H   0  0  0  0  0  0  0  0  0  0  0  0
    7.0017    1.2679    2.1466 H   0  0  0  0  0  0  0  0  0  0  0  0
    6.9758    3.0083    2.4834 H   0  0  0  0  0  0  0  0  0  0  0  0
    7.0017    2.4315    0.8071 H   0  0  0  0  0  0  0  0  0  0  0  0
  1  2  1  0  0  0  0
  1  7  1  0  0  0  0
  1  8  1  0  0  0  0
  1  9  1  0  0  0  0
  2  3  1  0  0  0  0
  2 10  1  0  0  0  0
  2 11  1  0  0  0  0
  3  4  1  0  0  0  0
  3 12  1  0  0  0  0
  3 13  1  0  0  0  0
  4  5  1  0  0  0  0
  4 14  1  0  0  0  0
  4 15  1  0  0  0  0
  5  6  1  0  0  0  0
  5 16  1  0  0  0  0
  5 17  1  0  0  0  0
  6 18  1  0  0  0  0
  6 19  1  0  0  0  0
  6 20  1  0  0  0  0
M  END
$$$$
