HFA
 OpenBabel04121316133D

 22 22  0  0  1  0  0  0  0  0999 V2000
    2.7180    0.0467   -1.3368 O   0  0  0  0  0  0  0  0  0  0  0  0
    2.2760    0.1142    0.0230 C   0  0  2  0  0  0  0  0  0  0  0  0
    1.1897   -0.0189   -0.0116 H   0  0  0  0  0  0  0  0  0  0  0  0
    2.4783    1.4952    0.6714 C   0  0  0  0  0  0  0  0  0  0  0  0
    2.7326    1.6834    1.8577 O   0  0  0  0  0  0  0  0  0  0  0  0
    2.3486    2.5246   -0.1959 O   0  0  0  0  0  0  0  0  0  0  0  0
    2.8844   -1.0196    0.8798 C   0  0  0  0  0  0  0  0  0  0  0  0
    4.4035   -1.0620    0.8735 C   0  0  0  0  0  0  0  0  0  0  0  0
    5.1804    0.1073    0.8931 C   0  0  0  0  0  0  0  0  0  0  0  0
    6.5475    0.0859    0.6666 C   0  0  0  0  0  0  0  0  0  0  0  0
    7.1988   -1.1296    0.5845 C   0  0  0  0  0  0  0  0  0  0  0  0
    6.4740   -2.3120    0.7349 C   0  0  0  0  0  0  0  0  0  0  0  0
    5.0781   -2.2855    0.8293 C   0  0  0  0  0  0  0  0  0  0  0  0
    3.6787   -0.1423   -1.3304 H   0  0  0  0  0  0  0  0  0  0  0  0
    2.0566    2.2154   -1.0783 H   0  0  0  0  0  0  0  0  0  0  0  0
    2.5092   -1.9730    0.4780 H   0  0  0  0  0  0  0  0  0  0  0  0
    2.5254   -0.9521    1.9141 H   0  0  0  0  0  0  0  0  0  0  0  0
    4.7700    1.0908    1.0725 H   0  0  0  0  0  0  0  0  0  0  0  0
    7.0810    1.0284    0.5791 H   0  0  0  0  0  0  0  0  0  0  0  0
    8.2725   -1.1460    0.4321 H   0  0  0  0  0  0  0  0  0  0  0  0
    7.0021   -3.2601    0.7676 H   0  0  0  0  0  0  0  0  0  0  0  0
    4.5312   -3.2261    0.8597 H   0  0  0  0  0  0  0  0  0  0  0  0
  1 14  1  0  0  0  0
  2  4  1  0  0  0  0
  2  7  1  0  0  0  0
  2  3  1  6  0  0  0
  2  1  1  0  0  0  0
  4  5  2  0  0  0  0
  4  6  1  0  0  0  0
  6 15  1  0  0  0  0
  7  8  1  0  0  0  0
  7 16  1  0  0  0  0
  7 17  1  0  0  0  0
  8  9  2  0  0  0  0
  8 13  1  0  0  0  0
  9 10  1  0  0  0  0
  9 18  1  0  0  0  0
 10 11  2  0  0  0  0
 10 19  1  0  0  0  0
 11 12  1  0  0  0  0
 11 20  1  0  0  0  0
 12 13  2  0  0  0  0
 12 21  1  0  0  0  0
 13 22  1  0  0  0  0
M  END
$$$$
