HFP
 OpenBabel04121316133D

 53 52  0  0  1  0  0  0  0  0999 V2000
    2.1941   -0.9401   -2.8769 C   0  0  0  0  0  0  0  0  0  0  0  0
    2.0844    0.5951   -2.3290 C   0  0  2  0  0  0  0  0  0  0  0  0
    0.9962    0.7409   -2.3155 H   0  0  0  0  0  0  0  0  0  0  0  0
    2.7537    1.5194   -3.3429 C   0  0  0  0  0  0  0  0  0  0  0  0
    2.3697    1.1514   -4.7435 C   0  0  0  0  0  0  0  0  0  0  0  0
    2.8439    2.1856   -5.7297 C   0  0  0  0  0  0  0  0  0  0  0  0
    2.3565    1.7968   -7.1234 C   0  0  0  0  0  0  0  0  0  0  0  0
    0.8284    1.7015   -7.1718 C   0  0  0  0  0  0  0  0  0  0  0  0
    2.8558    2.8306   -8.1168 C   0  0  0  0  0  0  0  0  0  0  0  0
    2.6219    1.1929   -0.8598 C   0  0  0  0  0  0  0  0  0  0  0  0
    4.1732    1.5282   -0.6992 C   0  0  0  0  0  0  0  0  0  0  0  0
    4.8189    1.5321    0.6930 C   0  0  0  0  0  0  0  0  0  0  0  0
    6.3859    1.3913    0.6154 C   0  0  2  0  0  0  0  0  0  0  0  0
    6.7635    2.1830   -0.0473 H   0  0  0  0  0  0  0  0  0  0  0  0
    7.0082    0.0354    0.1274 C   0  0  0  0  0  0  0  0  0  0  0  0
    6.6916   -0.4041   -1.2888 C   0  0  2  0  0  0  0  0  0  0  0  0
    6.7316    0.4675   -1.9525 H   0  0  0  0  0  0  0  0  0  0  0  0
    5.2887   -1.4523   -1.5926 P   0  0  0  0  0  0  0  0  0  0  0  0
    5.1971   -1.6150   -3.0990 O   0  0  0  0  0  0  0  0  0  0  0  0
    5.5268   -2.7648   -0.7550 O   0  0  0  0  0  0  0  0  0  0  0  0
    3.9673   -1.0925   -0.8368 O   0  0  0  0  0  0  0  0  0  0  0  0
    7.7061   -1.2929   -1.8042 O   0  0  0  0  0  0  0  0  0  0  0  0
    6.9355    1.6421    2.0227 C   0  0  0  0  0  0  0  0  0  0  0  0
    3.2000   -1.1864   -3.1945 H   0  0  0  0  0  0  0  0  0  0  0  0
    1.6758   -1.1428   -3.8276 H   0  0  0  0  0  0  0  0  0  0  0  0
    1.8834   -1.7192   -2.1718 H   0  0  0  0  0  0  0  0  0  0  0  0
    3.8445    1.4595   -3.2709 H   0  0  0  0  0  0  0  0  0  0  0  0
    2.4584    2.5505   -3.1179 H   0  0  0  0  0  0  0  0  0  0  0  0
    1.2837    1.0421   -4.7500 H   0  0  0  0  0  0  0  0  0  0  0  0
    2.8178    0.1949   -5.0361 H   0  0  0  0  0  0  0  0  0  0  0  0
    3.9413    2.2333   -5.7053 H   0  0  0  0  0  0  0  0  0  0  0  0
    2.4723    3.1765   -5.4434 H   0  0  0  0  0  0  0  0  0  0  0  0
    2.7771    0.8165   -7.3867 H   0  0  0  0  0  0  0  0  0  0  0  0
    0.3747    2.6445   -6.8488 H   0  0  0  0  0  0  0  0  0  0  0  0
    0.4403    0.9075   -6.5254 H   0  0  0  0  0  0  0  0  0  0  0  0
    0.4823    1.4634   -8.1788 H   0  0  0  0  0  0  0  0  0  0  0  0
    2.4678    3.8229   -7.8641 H   0  0  0  0  0  0  0  0  0  0  0  0
    2.5319    2.5754   -9.1283 H   0  0  0  0  0  0  0  0  0  0  0  0
    3.9496    2.8797   -8.1046 H   0  0  0  0  0  0  0  0  0  0  0  0
    2.2855    0.5248   -0.0556 H   0  0  0  0  0  0  0  0  0  0  0  0
    2.0974    2.1435   -0.6837 H   0  0  0  0  0  0  0  0  0  0  0  0
    4.5405    2.3155   -1.3641 H   0  0  0  0  0  0  0  0  0  0  0  0
    4.7291    0.7370   -1.1167 H   0  0  0  0  0  0  0  0  0  0  0  0
    4.4458    0.6960    1.2970 H   0  0  0  0  0  0  0  0  0  0  0  0
    4.5465    2.4606    1.2129 H   0  0  0  0  0  0  0  0  0  0  0  0
    6.7672   -0.7642    0.8345 H   0  0  0  0  0  0  0  0  0  0  0  0
    8.1039    0.1336    0.1680 H   0  0  0  0  0  0  0  0  0  0  0  0
    5.6435   -2.4628    0.1720 H   0  0  0  0  0  0  0  0  0  0  0  0
    3.5034   -0.5350   -1.4671 H   0  0  0  0  0  0  0  0  0  0  0  0
    7.2680   -1.7250   -2.5867 H   0  0  0  0  0  0  0  0  0  0  0  0
    8.0298    1.6829    2.0205 H   0  0  0  0  0  0  0  0  0  0  0  0
    6.6246    0.8364    2.6972 H   0  0  0  0  0  0  0  0  0  0  0  0
    6.5586    2.5879    2.4204 H   0  0  0  0  0  0  0  0  0  0  0  0
  1 24  1  0  0  0  0
  1 25  1  0  0  0  0
  1 26  1  0  0  0  0
  2  4  1  0  0  0  0
  2 10  1  0  0  0  0
  2  3  1  6  0  0  0
  2  1  1  0  0  0  0
  4  5  1  0  0  0  0
  4 27  1  0  0  0  0
  4 28  1  0  0  0  0
  5  6  1  0  0  0  0
  5 29  1  0  0  0  0
  5 30  1  0  0  0  0
  6  7  1  0  0  0  0
  6 31  1  0  0  0  0
  6 32  1  0  0  0  0
  7  8  1  0  0  0  0
  7  9  1  0  0  0  0
  7 33  1  0  0  0  0
  8 34  1  0  0  0  0
  8 35  1  0  0  0  0
  8 36  1  0  0  0  0
  9 37  1  0  0  0  0
  9 38  1  0  0  0  0
  9 39  1  0  0  0  0
 10 11  1  0  0  0  0
 10 40  1  0  0  0  0
 10 41  1  0  0  0  0
 11 12  1  0  0  0  0
 11 42  1  0  0  0  0
 11 43  1  0  0  0  0
 12 44  1  0  0  0  0
 12 45  1  0  0  0  0
 13 15  1  0  0  0  0
 13 23  1  0  0  0  0
 13 14  1  6  0  0  0
 13 12  1  0  0  0  0
 15 46  1  0  0  0  0
 15 47  1  0  0  0  0
 16 18  1  0  0  0  0
 16 22  1  0  0  0  0
 16 17  1  6  0  0  0
 16 15  1  0  0  0  0
 18 19  2  0  0  0  0
 18 20  1  0  0  0  0
 18 21  1  0  0  0  0
 20 48  1  0  0  0  0
 21 49  1  0  0  0  0
 22 50  1  0  0  0  0
 23 51  1  0  0  0  0
 23 52  1  0  0  0  0
 23 53  1  0  0  0  0
M  END
$$$$
