HFS
 OpenBabel04121316133D

 38 40  0  0  0  0  0  0  0  0999 V2000
    1.0186    0.0730   -0.0449 O   0  0  0  0  0  0  0  0  0  0  0  0
    2.3828    0.0807   -0.0005 C   0  0  0  0  0  0  0  0  0  0  0  0
    2.9369    1.2994   -0.0967 N   0  0  0  0  0  0  0  0  0  0  0  0
    4.2883    1.3287   -0.1030 C   0  0  0  0  0  0  0  0  0  0  0  0
    5.0945    0.2080   -0.0045 C   0  0  0  0  0  0  0  0  0  0  0  0
    4.4919   -1.0605    0.0534 C   0  0  0  0  0  0  0  0  0  0  0  0
    3.0780   -1.1195    0.0476 C   0  0  0  0  0  0  0  0  0  0  0  0
    2.3998   -2.3449    0.0099 C   0  0  0  0  0  0  0  0  0  0  0  0
    3.1056   -3.4870   -0.2841 C   0  0  0  0  0  0  0  0  0  0  0  0
    4.4903   -3.4368   -0.2829 C   0  0  0  0  0  0  0  0  0  0  0  0
    5.1950   -2.2770    0.0346 C   0  0  0  0  0  0  0  0  0  0  0  0
    6.9355   -2.3033    0.4378 S   0  0  0  0  0  0  0  0  0  0  0  0
    7.5994   -1.5247   -0.5985 O   0  0  0  0  0  0  0  0  0  0  0  0
    7.0455   -1.9193    1.8236 O   0  0  0  0  0  0  0  0  0  0  0  0
    7.4873   -3.9175    0.3027 N   0  0  0  0  0  0  0  0  0  0  0  0
    6.7725   -4.9995    1.0507 C   0  0  0  0  0  0  0  0  0  0  0  0
    7.4631   -6.3683    1.0976 C   0  0  0  0  0  0  0  0  0  0  0  0
    7.5135   -7.0173   -0.2302 N   0  0  0  0  0  0  0  0  0  0  0  0
    8.7327   -6.6929   -0.9636 C   0  0  0  0  0  0  0  0  0  0  0  0
    9.2014   -5.2500   -0.8400 C   0  0  0  0  0  0  0  0  0  0  0  0
    8.0533   -4.2697   -1.0162 C   0  0  0  0  0  0  0  0  0  0  0  0
    0.8229    1.0198   -0.1278 H   0  0  0  0  0  0  0  0  0  0  0  0
    4.7459    2.3082   -0.2073 H   0  0  0  0  0  0  0  0  0  0  0  0
    6.1716    0.3427   -0.0499 H   0  0  0  0  0  0  0  0  0  0  0  0
    1.3172   -2.3925    0.0990 H   0  0  0  0  0  0  0  0  0  0  0  0
    2.5943   -4.4090   -0.5428 H   0  0  0  0  0  0  0  0  0  0  0  0
    4.9759   -4.3393   -0.5907 H   0  0  0  0  0  0  0  0  0  0  0  0
    5.8654   -5.2760    0.5355 H   0  0  0  0  0  0  0  0  0  0  0  0
    6.4540   -4.6614    2.0409 H   0  0  0  0  0  0  0  0  0  0  0  0
    6.8288   -7.0146    1.7172 H   0  0  0  0  0  0  0  0  0  0  0  0
    8.4403   -6.3247    1.5833 H   0  0  0  0  0  0  0  0  0  0  0  0
    6.7039   -6.7391   -0.7883 H   0  0  0  0  0  0  0  0  0  0  0  0
    8.5716   -6.9235   -2.0243 H   0  0  0  0  0  0  0  0  0  0  0  0
    9.5275   -7.3606   -0.6194 H   0  0  0  0  0  0  0  0  0  0  0  0
    9.9571   -5.0637   -1.6113 H   0  0  0  0  0  0  0  0  0  0  0  0
    9.7062   -5.0933    0.1228 H   0  0  0  0  0  0  0  0  0  0  0  0
    7.2596   -4.6312   -1.6748 H   0  0  0  0  0  0  0  0  0  0  0  0
    8.4920   -3.3901   -1.4952 H   0  0  0  0  0  0  0  0  0  0  0  0
  1  2  1  0  0  0  0
  1 22  1  0  0  0  0
  2  3  2  0  0  0  0
  2  7  1  0  0  0  0
  3  4  1  0  0  0  0
  4  5  2  0  0  0  0
  4 23  1  0  0  0  0
  5  6  1  0  0  0  0
  5 24  1  0  0  0  0
  6  7  2  0  0  0  0
  6 11  1  0  0  0  0
  7  8  1  0  0  0  0
  8  9  2  0  0  0  0
  8 25  1  0  0  0  0
  9 10  1  0  0  0  0
  9 26  1  0  0  0  0
 10 11  2  0  0  0  0
 10 27  1  0  0  0  0
 11 12  1  0  0  0  0
 12 13  2  0  0  0  0
 12 14  2  0  0  0  0
 12 15  1  0  0  0  0
 15 16  1  0  0  0  0
 15 21  1  0  0  0  0
 16 17  1  0  0  0  0
 16 28  1  0  0  0  0
 16 29  1  0  0  0  0
 17 18  1  0  0  0  0
 17 30  1  0  0  0  0
 17 31  1  0  0  0  0
 18 19  1  0  0  0  0
 18 32  1  0  0  0  0
 19 20  1  0  0  0  0
 19 33  1  0  0  0  0
 19 34  1  0  0  0  0
 20 21  1  0  0  0  0
 20 35  1  0  0  0  0
 20 36  1  0  0  0  0
 21 37  1  0  0  0  0
 21 38  1  0  0  0  0
M  END
$$$$
