HFT
 OpenBabel04121316133D

 31 31  0  0  0  0  0  0  0  0999 V2000
    0.8896    0.2185    0.0820 O   0  0  0  0  0  0  0  0  0  0  0  0
    2.1104    0.0467    0.0380 C   0  0  0  0  0  0  0  0  0  0  0  0
    2.7196   -1.3327   -0.3227 C   0  0  0  0  0  0  0  0  0  0  0  0
    3.5636   -1.2338   -1.5004 O   0  0  0  0  0  0  0  0  0  0  0  0
    3.3656   -1.9641    0.9657 C   0  0  0  0  0  0  0  0  0  0  0  0
    1.7261   -2.3743   -0.7821 C   0  0  0  0  0  0  0  0  0  0  0  0
    2.9475    1.1242    0.3098 N   0  0  0  0  0  0  0  0  0  0  0  0
    4.3634    1.2221    0.3108 C   0  0  0  0  0  0  0  0  0  0  0  0
    5.0216    2.4301    0.3775 C   0  0  0  0  0  0  0  0  0  0  0  0
    6.4382    2.4390    0.2876 C   0  0  0  0  0  0  0  0  0  0  0  0
    7.2018    1.2444    0.1198 C   0  0  0  0  0  0  0  0  0  0  0  0
    6.5728    0.0272    0.1092 C   0  0  0  0  0  0  0  0  0  0  0  0
    5.1985    0.1176    0.1808 C   0  0  0  0  0  0  0  0  0  0  0  0
    7.1481   -1.3626   -0.1031 C   0  0  0  0  0  0  0  0  0  0  0  0
    7.6260   -1.5398   -1.3601 F   0  0  0  0  0  0  0  0  0  0  0  0
    8.1148   -1.6930    0.7874 F   0  0  0  0  0  0  0  0  0  0  0  0
    6.2210   -2.3641    0.0427 F   0  0  0  0  0  0  0  0  0  0  0  0
    8.6265    1.3028   -0.1926 N   0  3  0  0  0  0  0  0  0  0  0  0
    9.2243    0.2536   -0.4123 O   0  0  0  0  0  0  0  0  0  0  0  0
    9.1410    2.4313   -0.2576 O   0  5  0  0  0  0  0  0  0  0  0  0
    3.8330   -0.3080   -1.6581 H   0  0  0  0  0  0  0  0  0  0  0  0
    3.9428   -1.2784    1.6042 H   0  0  0  0  0  0  0  0  0  0  0  0
    4.0403   -2.7822    0.6903 H   0  0  0  0  0  0  0  0  0  0  0  0
    2.6129   -2.3169    1.6695 H   0  0  0  0  0  0  0  0  0  0  0  0
    1.1590   -2.0239   -1.6464 H   0  0  0  0  0  0  0  0  0  0  0  0
    1.0497   -2.6491    0.0261 H   0  0  0  0  0  0  0  0  0  0  0  0
    2.2828   -3.2674   -1.1035 H   0  0  0  0  0  0  0  0  0  0  0  0
    2.4076    1.9637    0.5119 H   0  0  0  0  0  0  0  0  0  0  0  0
    4.4686    3.3673    0.4112 H   0  0  0  0  0  0  0  0  0  0  0  0
    6.9423    3.4029    0.3061 H   0  0  0  0  0  0  0  0  0  0  0  0
    4.8279   -0.8538    0.0125 H   0  0  0  0  0  0  0  0  0  0  0  0
  1  2  2  0  0  0  0
  2  3  1  0  0  0  0
  2  7  1  0  0  0  0
  3  4  1  0  0  0  0
  3  5  1  0  0  0  0
  3  6  1  0  0  0  0
  4 21  1  0  0  0  0
  5 22  1  0  0  0  0
  5 23  1  0  0  0  0
  5 24  1  0  0  0  0
  6 25  1  0  0  0  0
  6 26  1  0  0  0  0
  6 27  1  0  0  0  0
  7  8  1  0  0  0  0
  7 28  1  0  0  0  0
  8  9  2  0  0  0  0
  8 13  1  0  0  0  0
  9 10  1  0  0  0  0
  9 29  1  0  0  0  0
 10 11  2  0  0  0  0
 10 30  1  0  0  0  0
 11 12  1  0  0  0  0
 11 18  1  0  0  0  0
 12 13  2  0  0  0  0
 12 14  1  0  0  0  0
 13 31  1  0  0  0  0
 14 15  1  0  0  0  0
 14 16  1  0  0  0  0
 14 17  1  0  0  0  0
 18 19  2  0  0  0  0
 18 20  1  0  0  0  0
M  CHG  2  18   1  20  -1
M  END
$$$$
