HGA
 OpenBabel04121316133D

 21 20  0  0  1  0  0  0  0  0999 V2000
    0.9283    0.0441   -0.1067 O   0  0  0  0  0  0  0  0  0  0  0  0
    2.3350   -0.0032   -0.1212 N   0  0  0  0  0  0  0  0  0  0  0  0
    2.8965   -1.1068    0.4840 C   0  0  0  0  0  0  0  0  0  0  0  0
    2.2753   -2.0318    0.9914 O   0  0  0  0  0  0  0  0  0  0  0  0
    4.4046   -1.0430    0.4905 C   0  0  0  0  0  0  0  0  0  0  0  0
    5.0325   -2.2507    1.1866 C   0  0  0  0  0  0  0  0  0  0  0  0
    6.5663   -2.2321    1.1903 C   0  0  1  0  0  0  0  0  0  0  0  0
    6.9601   -2.1819    0.1690 H   0  0  0  0  0  0  0  0  0  0  0  0
    7.1556   -1.0485    2.0059 C   0  0  0  0  0  0  0  0  0  0  0  0
    7.7685   -1.1684    3.0635 O   0  0  0  0  0  0  0  0  0  0  0  0
    6.9516    0.1798    1.4749 O   0  0  0  0  0  0  0  0  0  0  0  0
    7.0476   -3.5026    1.7775 N   0  0  0  0  0  0  0  0  0  0  0  0
    0.7078    0.8814   -0.5472 H   0  0  0  0  0  0  0  0  0  0  0  0
    2.8536    0.7831   -0.4971 H   0  0  0  0  0  0  0  0  0  0  0  0
    4.6425   -0.1266    1.0354 H   0  0  0  0  0  0  0  0  0  0  0  0
    4.7770   -0.9618   -0.5380 H   0  0  0  0  0  0  0  0  0  0  0  0
    4.6802   -3.1625    0.6821 H   0  0  0  0  0  0  0  0  0  0  0  0
    4.6571   -2.3037    2.2169 H   0  0  0  0  0  0  0  0  0  0  0  0
    6.5363    0.2053    0.5968 H   0  0  0  0  0  0  0  0  0  0  0  0
    6.6096   -4.3108    1.3417 H   0  0  0  0  0  0  0  0  0  0  0  0
    6.7789   -3.5249    2.7664 H   0  0  0  0  0  0  0  0  0  0  0  0
  1  2  1  0  0  0  0
  1 13  1  0  0  0  0
  2  3  1  0  0  0  0
  2 14  1  0  0  0  0
  3  4  2  0  0  0  0
  3  5  1  0  0  0  0
  5  6  1  0  0  0  0
  5 15  1  0  0  0  0
  5 16  1  0  0  0  0
  6  7  1  0  0  0  0
  6 17  1  0  0  0  0
  6 18  1  0  0  0  0
  7  8  1  6  0  0  0
  7  9  1  0  0  0  0
  7 12  1  0  0  0  0
  9 10  2  0  0  0  0
  9 11  1  0  0  0  0
 11 19  1  0  0  0  0
 12 20  1  0  0  0  0
 12 21  1  0  0  0  0
M  END
$$$$
