HGF
 OpenBabel04121316133D

 49 53  0  0  0  0  0  0  0  0999 V2000
    0.9708   -0.0544    0.0761 C   0  0  0  0  0  0  0  0  0  0  0  0
    2.3931   -0.0503    0.0823 O   0  0  0  0  0  0  0  0  0  0  0  0
    2.8826    0.5694    1.2668 C   0  0  0  0  0  0  0  0  0  0  0  0
    4.4033    0.5699    1.2776 C   0  0  0  0  0  0  0  0  0  0  0  0
    4.7986    1.2279    2.4841 O   0  0  0  0  0  0  0  0  0  0  0  0
    6.1495    1.3006    2.6208 C   0  0  0  0  0  0  0  0  0  0  0  0
    6.7267    2.5536    2.7461 C   0  0  0  0  0  0  0  0  0  0  0  0
    8.0392    2.7538    2.9588 N   0  0  0  0  0  0  0  0  0  0  0  0
    8.7913    1.6359    3.0726 C   0  0  0  0  0  0  0  0  0  0  0  0
    8.3266    0.3153    2.9867 C   0  0  0  0  0  0  0  0  0  0  0  0
    6.9533    0.1725    2.7539 C   0  0  0  0  0  0  0  0  0  0  0  0
    9.2188   -0.8471    3.1438 C   0  0  0  0  0  0  0  0  0  0  0  0
    8.6569   -2.0776    3.0070 N   0  0  0  0  0  0  0  0  0  0  0  0
    9.4591   -3.1651    3.1427 C   0  0  0  0  0  0  0  0  0  0  0  0
   10.8256   -3.1067    3.4096 C   0  0  0  0  0  0  0  0  0  0  0  0
   11.3770   -1.8253    3.5430 C   0  0  0  0  0  0  0  0  0  0  0  0
   10.5733   -0.6956    3.4159 C   0  0  0  0  0  0  0  0  0  0  0  0
   12.7571   -1.6873    3.8026 C   0  0  0  0  0  0  0  0  0  0  0  0
   13.5385   -0.5619    3.9805 N   0  0  0  0  0  0  0  0  0  0  0  0
   13.2039    0.3917    3.9542 H   0  0  0  0  0  0  0  0  0  0  0  0
   14.8243   -0.9354    4.2111 C   0  0  0  0  0  0  0  0  0  0  0  0
   14.8949   -2.3183    4.1956 C   0  0  0  0  0  0  0  0  0  0  0  0
   13.5873   -2.8057    3.9291 C   0  0  0  0  0  0  0  0  0  0  0  0
   13.0154   -4.0901    3.8083 C   0  0  0  0  0  0  0  0  0  0  0  0
   11.6454   -4.2318    3.5459 C   0  0  0  0  0  0  0  0  0  0  0  0
   16.1350   -3.0225    4.5089 C   0  0  0  0  0  0  0  0  0  0  0  0
   16.2756   -4.2299    4.4847 O   0  0  0  0  0  0  0  0  0  0  0  0
   17.1260   -2.1529    4.9445 N   0  0  0  0  0  0  0  0  0  0  0  0
   17.2560   -0.8451    4.3184 C   0  0  0  0  0  0  0  0  0  0  0  0
   15.9694   -0.0191    4.4760 C   0  0  0  0  0  0  0  0  0  0  0  0
    0.6277   -0.5353   -0.8426 H   0  0  0  0  0  0  0  0  0  0  0  0
    0.5892    0.9711    0.1020 H   0  0  0  0  0  0  0  0  0  0  0  0
    0.5898   -0.6177    0.9336 H   0  0  0  0  0  0  0  0  0  0  0  0
    2.5136    0.0332    2.1500 H   0  0  0  0  0  0  0  0  0  0  0  0
    2.5157    1.6014    1.3289 H   0  0  0  0  0  0  0  0  0  0  0  0
    4.7852    1.1105    0.4017 H   0  0  0  0  0  0  0  0  0  0  0  0
    4.7699   -0.4624    1.2304 H   0  0  0  0  0  0  0  0  0  0  0  0
    6.1292    3.4554    2.6748 H   0  0  0  0  0  0  0  0  0  0  0  0
    9.8342    1.8725    3.2517 H   0  0  0  0  0  0  0  0  0  0  0  0
    6.5123   -0.8206    2.7054 H   0  0  0  0  0  0  0  0  0  0  0  0
    8.9531   -4.1201    3.0232 H   0  0  0  0  0  0  0  0  0  0  0  0
   11.0188    0.2802    3.5290 H   0  0  0  0  0  0  0  0  0  0  0  0
   13.6407   -4.9727    3.9167 H   0  0  0  0  0  0  0  0  0  0  0  0
   11.2272   -5.2305    3.4486 H   0  0  0  0  0  0  0  0  0  0  0  0
   17.8302   -2.5286    5.5632 H   0  0  0  0  0  0  0  0  0  0  0  0
   17.4310   -1.0347    3.2497 H   0  0  0  0  0  0  0  0  0  0  0  0
   18.1326   -0.3305    4.7188 H   0  0  0  0  0  0  0  0  0  0  0  0
   15.9737    0.8271    3.7820 H   0  0  0  0  0  0  0  0  0  0  0  0
   15.9037    0.3675    5.4992 H   0  0  0  0  0  0  0  0  0  0  0  0
  1  2  1  0  0  0  0
  1 31  1  0  0  0  0
  1 32  1  0  0  0  0
  1 33  1  0  0  0  0
  2  3  1  0  0  0  0
  3  4  1  0  0  0  0
  3 34  1  0  0  0  0
  3 35  1  0  0  0  0
  4  5  1  0  0  0  0
  4 36  1  0  0  0  0
  4 37  1  0  0  0  0
  5  6  1  0  0  0  0
  6  7  2  0  0  0  0
  6 11  1  0  0  0  0
  7  8  1  0  0  0  0
  7 38  1  0  0  0  0
  8  9  2  0  0  0  0
  9 10  1  0  0  0  0
  9 39  1  0  0  0  0
 10 11  2  0  0  0  0
 10 12  1  0  0  0  0
 11 40  1  0  0  0  0
 12 13  2  0  0  0  0
 12 17  1  0  0  0  0
 13 14  1  0  0  0  0
 14 15  2  0  0  0  0
 14 41  1  0  0  0  0
 15 16  1  0  0  0  0
 15 25  1  0  0  0  0
 16 17  2  0  0  0  0
 16 18  1  0  0  0  0
 17 42  1  0  0  0  0
 18 19  1  0  0  0  0
 18 23  2  0  0  0  0
 19 20  1  0  0  0  0
 19 21  1  0  0  0  0
 21 22  2  0  0  0  0
 21 30  1  0  0  0  0
 22 23  1  0  0  0  0
 22 26  1  0  0  0  0
 23 24  1  0  0  0  0
 24 25  2  0  0  0  0
 24 43  1  0  0  0  0
 25 44  1  0  0  0  0
 26 27  2  0  0  0  0
 26 28  1  0  0  0  0
 28 29  1  0  0  0  0
 28 45  1  0  0  0  0
 29 30  1  0  0  0  0
 29 46  1  0  0  0  0
 29 47  1  0  0  0  0
 30 48  1  0  0  0  0
 30 49  1  0  0  0  0
M  END
$$$$
