HGX
 OpenBabel04121316133D

125124  0  0  1  0  0  0  0  0999 V2000
    5.0939    9.1312  -11.2893 C   0  0  0  0  0  0  0  0  0  0  0  0
    5.1235    7.7622  -10.6391 C   0  0  0  0  0  0  0  0  0  0  0  0
    6.1070    6.8536  -11.3622 C   0  0  0  0  0  0  0  0  0  0  0  0
    6.1386    5.4802  -10.7122 C   0  0  0  0  0  0  0  0  0  0  0  0
    7.1226    4.5806  -11.4404 C   0  0  0  0  0  0  0  0  0  0  0  0
    7.1523    3.2097  -10.7894 C   0  0  0  0  0  0  0  0  0  0  0  0
    8.1353    2.3120  -11.5175 C   0  0  0  0  0  0  0  0  0  0  0  0
    8.1638    0.9425  -10.8656 C   0  0  0  0  0  0  0  0  0  0  0  0
    9.1467    0.0459  -11.5939 C   0  0  0  0  0  0  0  0  0  0  0  0
    9.1750   -1.3229  -10.9421 C   0  0  0  0  0  0  0  0  0  0  0  0
   10.1581   -2.2192  -11.6702 C   0  0  0  0  0  0  0  0  0  0  0  0
   10.1835   -3.5854  -11.0149 C   0  0  0  0  0  0  0  0  0  0  0  0
   11.1633   -4.4896  -11.7341 C   0  0  0  0  0  0  0  0  0  0  0  0
   11.1705   -5.8518  -11.0618 C   0  0  0  0  0  0  0  0  0  0  0  0
   12.1298   -6.7656  -11.7805 C   0  0  0  0  0  0  0  0  0  0  0  0
   12.1535   -8.1553  -11.1509 C   0  0  0  0  0  0  0  0  0  0  0  0
   12.9911   -9.0304  -12.0221 C   0  0  0  0  0  0  0  0  0  0  0  0
   13.2608   -8.7254  -13.1847 O   0  0  0  0  0  0  0  0  0  0  0  0
   13.3672  -10.1745  -11.3930 O   0  0  0  0  0  0  0  0  0  0  0  0
   14.3033  -10.9961  -12.1436 C   0  0  1  0  0  0  0  0  0  0  0  0
   13.9574  -11.0927  -13.1816 H   0  0  0  0  0  0  0  0  0  0  0  0
   15.6925  -10.3102  -12.1100 C   0  0  0  0  0  0  0  0  0  0  0  0
   15.5835   -9.0332  -12.7552 O   0  0  0  0  0  0  0  0  0  0  0  0
   16.5281   -7.7202  -12.5437 P   0  0  2  0  0  0  0  0  0  0  0  0
   17.0429   -8.1790  -11.1619 O   0  0  0  0  0  0  0  0  0  0  0  0
   15.5491   -6.5336  -11.8882 O   0  0  0  0  0  0  0  0  0  0  0  0
   15.8917   -6.2852  -10.5234 C   0  0  0  0  0  0  0  0  0  0  0  0
   15.3380   -5.0699   -9.8358 C   0  0  0  0  0  0  0  0  0  0  0  0
   15.6657   -5.1222   -8.3064 N   0  3  0  0  0  0  0  0  0  0  0  0
   15.0667   -6.3726   -7.6535 C   0  0  0  0  0  0  0  0  0  0  0  0
   17.1742   -5.0992   -8.0380 C   0  0  0  0  0  0  0  0  0  0  0  0
   15.0392   -3.8953   -7.6682 C   0  0  0  0  0  0  0  0  0  0  0  0
   15.9515   -7.2063  -14.0917 O   0  0  0  0  0  0  0  0  0  0  0  0
   14.3228  -12.4024  -11.5158 C   0  0  0  0  0  0  0  0  0  0  0  0
   15.2374  -13.2682  -12.2107 O   0  0  0  0  0  0  0  0  0  0  0  0
   15.3081  -14.5236  -11.6787 C   0  0  0  0  0  0  0  0  0  0  0  0
   14.6677  -14.8951  -10.7026 O   0  0  0  0  0  0  0  0  0  0  0  0
   16.2957  -15.3765  -12.4395 C   0  0  0  0  0  0  0  0  0  0  0  0
   16.3591  -16.7670  -11.8158 C   0  0  0  0  0  0  0  0  0  0  0  0
   17.3432  -17.6675  -12.5421 C   0  0  0  0  0  0  0  0  0  0  0  0
   17.3698  -19.0406  -11.8858 C   0  0  0  0  0  0  0  0  0  0  0  0
   18.3517  -19.9446  -12.6092 C   0  0  0  0  0  0  0  0  0  0  0  0
   18.3795  -21.3149  -11.9562 C   0  0  0  0  0  0  0  0  0  0  0  0
   19.3628  -22.2141  -12.6838 C   0  0  0  0  0  0  0  0  0  0  0  0
   19.3929  -23.5854  -12.0331 C   0  0  0  0  0  0  0  0  0  0  0  0
   20.3770  -24.4852  -12.7613 C   0  0  0  0  0  0  0  0  0  0  0  0
   20.4087  -25.8587  -12.1114 C   0  0  0  0  0  0  0  0  0  0  0  0
   21.3922  -26.7674  -12.8345 C   0  0  0  0  0  0  0  0  0  0  0  0
   21.4219  -28.1364  -12.1843 C   0  0  0  0  0  0  0  0  0  0  0  0
    4.3872    9.7825  -10.7689 H   0  0  0  0  0  0  0  0  0  0  0  0
    4.7872    9.0546  -12.3374 H   0  0  0  0  0  0  0  0  0  0  0  0
    6.0841    9.5968  -11.2548 H   0  0  0  0  0  0  0  0  0  0  0  0
    4.1204    7.3207  -10.6635 H   0  0  0  0  0  0  0  0  0  0  0  0
    5.4113    7.8604   -9.5859 H   0  0  0  0  0  0  0  0  0  0  0  0
    7.1108    7.2957  -11.3396 H   0  0  0  0  0  0  0  0  0  0  0  0
    5.8204    6.7563  -12.4167 H   0  0  0  0  0  0  0  0  0  0  0  0
    5.1379    5.0316  -10.7362 H   0  0  0  0  0  0  0  0  0  0  0  0
    6.4290    5.5714   -9.6584 H   0  0  0  0  0  0  0  0  0  0  0  0
    8.1251    5.0255  -11.4170 H   0  0  0  0  0  0  0  0  0  0  0  0
    6.8342    4.4858  -12.4946 H   0  0  0  0  0  0  0  0  0  0  0  0
    6.1509    2.7625  -10.8132 H   0  0  0  0  0  0  0  0  0  0  0  0
    7.4419    3.3023   -9.7354 H   0  0  0  0  0  0  0  0  0  0  0  0
    9.1375    2.7577  -11.4938 H   0  0  0  0  0  0  0  0  0  0  0  0
    7.8464    2.2179  -12.5716 H   0  0  0  0  0  0  0  0  0  0  0  0
    7.1621    0.4960  -10.8893 H   0  0  0  0  0  0  0  0  0  0  0  0
    8.4531    1.0357   -9.8116 H   0  0  0  0  0  0  0  0  0  0  0  0
   10.1486    0.4918  -11.5701 H   0  0  0  0  0  0  0  0  0  0  0  0
    8.8575   -0.0481  -12.6479 H   0  0  0  0  0  0  0  0  0  0  0  0
    8.1733   -1.7696  -10.9657 H   0  0  0  0  0  0  0  0  0  0  0  0
    9.4640   -1.2297   -9.8879 H   0  0  0  0  0  0  0  0  0  0  0  0
   11.1603   -1.7738  -11.6464 H   0  0  0  0  0  0  0  0  0  0  0  0
    9.8689   -2.3143  -12.7241 H   0  0  0  0  0  0  0  0  0  0  0  0
    9.1812   -4.0306  -11.0394 H   0  0  0  0  0  0  0  0  0  0  0  0
   10.4720   -3.4904   -9.9610 H   0  0  0  0  0  0  0  0  0  0  0  0
   12.1685   -4.0496  -11.7130 H   0  0  0  0  0  0  0  0  0  0  0  0
   10.8779   -4.5880  -12.7895 H   0  0  0  0  0  0  0  0  0  0  0  0
   10.1652   -6.2869  -11.0886 H   0  0  0  0  0  0  0  0  0  0  0  0
   11.4671   -5.7525  -10.0118 H   0  0  0  0  0  0  0  0  0  0  0  0
   13.1320   -6.3267  -11.7709 H   0  0  0  0  0  0  0  0  0  0  0  0
   11.8385   -6.8300  -12.8373 H   0  0  0  0  0  0  0  0  0  0  0  0
   11.1500   -8.5884  -11.1329 H   0  0  0  0  0  0  0  0  0  0  0  0
   12.5549   -8.1000  -10.1323 H   0  0  0  0  0  0  0  0  0  0  0  0
   16.4301  -10.9294  -12.6329 H   0  0  0  0  0  0  0  0  0  0  0  0
   15.9955  -10.2065  -11.0632 H   0  0  0  0  0  0  0  0  0  0  0  0
   16.9846   -6.1933  -10.4432 H   0  0  0  0  0  0  0  0  0  0  0  0
   15.5299   -7.1655   -9.9903 H   0  0  0  0  0  0  0  0  0  0  0  0
   14.2532   -5.0246   -9.9455 H   0  0  0  0  0  0  0  0  0  0  0  0
   15.7886   -4.1553  -10.2366 H   0  0  0  0  0  0  0  0  0  0  0  0
   15.5655   -7.2648   -8.0408 H   0  0  0  0  0  0  0  0  0  0  0  0
   13.9974   -6.3939   -7.8793 H   0  0  0  0  0  0  0  0  0  0  0  0
   15.2449   -6.3217   -6.5769 H   0  0  0  0  0  0  0  0  0  0  0  0
   17.6317   -6.0050   -8.4454 H   0  0  0  0  0  0  0  0  0  0  0  0
   17.3316   -5.0772   -6.9553 H   0  0  0  0  0  0  0  0  0  0  0  0
   17.5951   -4.2064   -8.5085 H   0  0  0  0  0  0  0  0  0  0  0  0
   13.9631   -3.9267   -7.8590 H   0  0  0  0  0  0  0  0  0  0  0  0
   15.4869   -3.0079   -8.1240 H   0  0  0  0  0  0  0  0  0  0  0  0
   15.2428   -3.9235   -6.5947 H   0  0  0  0  0  0  0  0  0  0  0  0
   16.3210   -6.3447  -14.3445 H   0  0  0  0  0  0  0  0  0  0  0  0
   13.3135  -12.8375  -11.5571 H   0  0  0  0  0  0  0  0  0  0  0  0
   14.6048  -12.3384  -10.4567 H   0  0  0  0  0  0  0  0  0  0  0  0
   17.2844  -14.9060  -12.3960 H   0  0  0  0  0  0  0  0  0  0  0  0
   15.9800  -15.4519  -13.4858 H   0  0  0  0  0  0  0  0  0  0  0  0
   15.3623  -17.2260  -11.8336 H   0  0  0  0  0  0  0  0  0  0  0  0
   16.6496  -16.6864  -10.7603 H   0  0  0  0  0  0  0  0  0  0  0  0
   18.3464  -17.2255  -12.5164 H   0  0  0  0  0  0  0  0  0  0  0  0
   17.0547  -17.7662  -13.5954 H   0  0  0  0  0  0  0  0  0  0  0  0
   16.3678  -19.4873  -11.9081 H   0  0  0  0  0  0  0  0  0  0  0  0
   17.6580  -18.9477  -10.8311 H   0  0  0  0  0  0  0  0  0  0  0  0
   19.3544  -19.5004  -12.5853 H   0  0  0  0  0  0  0  0  0  0  0  0
   18.0632  -20.0402  -13.6632 H   0  0  0  0  0  0  0  0  0  0  0  0
   17.3776  -21.7611  -11.9798 H   0  0  0  0  0  0  0  0  0  0  0  0
   18.6686  -21.2213  -10.9021 H   0  0  0  0  0  0  0  0  0  0  0  0
   20.3645  -21.7674  -12.6602 H   0  0  0  0  0  0  0  0  0  0  0  0
   19.0735  -22.3071  -13.7379 H   0  0  0  0  0  0  0  0  0  0  0  0
   18.3906  -24.0305  -12.0565 H   0  0  0  0  0  0  0  0  0  0  0  0
   19.6815  -23.4908  -10.9789 H   0  0  0  0  0  0  0  0  0  0  0  0
   21.3778  -24.0367  -12.7374 H   0  0  0  0  0  0  0  0  0  0  0  0
   20.0867  -24.5765  -13.8152 H   0  0  0  0  0  0  0  0  0  0  0  0
   19.4050  -26.3009  -12.1341 H   0  0  0  0  0  0  0  0  0  0  0  0
   20.6953  -25.7615  -11.0569 H   0  0  0  0  0  0  0  0  0  0  0  0
   22.3954  -26.3259  -12.8101 H   0  0  0  0  0  0  0  0  0  0  0  0
   21.1045  -26.8656  -13.8878 H   0  0  0  0  0  0  0  0  0  0  0  0
   21.7286  -28.0599  -11.1363 H   0  0  0  0  0  0  0  0  0  0  0  0
   22.1286  -28.7878  -12.7047 H   0  0  0  0  0  0  0  0  0  0  0  0
   20.4317  -28.6020  -12.2188 H   0  0  0  0  0  0  0  0  0  0  0  0
  1  2  1  0  0  0  0
  1 50  1  0  0  0  0
  1 51  1  0  0  0  0
  1 52  1  0  0  0  0
  2  3  1  0  0  0  0
  2 53  1  0  0  0  0
  2 54  1  0  0  0  0
  3  4  1  0  0  0  0
  3 55  1  0  0  0  0
  3 56  1  0  0  0  0
  4  5  1  0  0  0  0
  4 57  1  0  0  0  0
  4 58  1  0  0  0  0
  5  6  1  0  0  0  0
  5 59  1  0  0  0  0
  5 60  1  0  0  0  0
  6  7  1  0  0  0  0
  6 61  1  0  0  0  0
  6 62  1  0  0  0  0
  7  8  1  0  0  0  0
  7 63  1  0  0  0  0
  7 64  1  0  0  0  0
  8  9  1  0  0  0  0
  8 65  1  0  0  0  0
  8 66  1  0  0  0  0
  9 10  1  0  0  0  0
  9 67  1  0  0  0  0
  9 68  1  0  0  0  0
 10 11  1  0  0  0  0
 10 69  1  0  0  0  0
 10 70  1  0  0  0  0
 11 12  1  0  0  0  0
 11 71  1  0  0  0  0
 11 72  1  0  0  0  0
 12 13  1  0  0  0  0
 12 73  1  0  0  0  0
 12 74  1  0  0  0  0
 13 14  1  0  0  0  0
 13 75  1  0  0  0  0
 13 76  1  0  0  0  0
 14 15  1  0  0  0  0
 14 77  1  0  0  0  0
 14 78  1  0  0  0  0
 15 16  1  0  0  0  0
 15 79  1  0  0  0  0
 15 80  1  0  0  0  0
 16 17  1  0  0  0  0
 16 81  1  0  0  0  0
 16 82  1  0  0  0  0
 17 18  2  0  0  0  0
 17 19  1  0  0  0  0
 19 20  1  0  0  0  0
 20 21  1  6  0  0  0
 20 22  1  0  0  0  0
 20 34  1  0  0  0  0
 22 23  1  0  0  0  0
 22 83  1  0  0  0  0
 22 84  1  0  0  0  0
 24 26  1  1  0  0  0
 24 33  1  0  0  0  0
 24 25  2  0  0  0  0
 24 23  1  0  0  0  0
 26 27  1  0  0  0  0
 27 28  1  0  0  0  0
 27 85  1  0  0  0  0
 27 86  1  0  0  0  0
 28 29  1  0  0  0  0
 28 87  1  0  0  0  0
 28 88  1  0  0  0  0
 29 30  1  0  0  0  0
 29 31  1  0  0  0  0
 29 32  1  0  0  0  0
 30 89  1  0  0  0  0
 30 90  1  0  0  0  0
 30 91  1  0  0  0  0
 31 92  1  0  0  0  0
 31 93  1  0  0  0  0
 31 94  1  0  0  0  0
 32 95  1  0  0  0  0
 32 96  1  0  0  0  0
 32 97  1  0  0  0  0
 33 98  1  0  0  0  0
 34 35  1  0  0  0  0
 34 99  1  0  0  0  0
 34100  1  0  0  0  0
 35 36  1  0  0  0  0
 36 37  2  0  0  0  0
 36 38  1  0  0  0  0
 38 39  1  0  0  0  0
 38101  1  0  0  0  0
 38102  1  0  0  0  0
 39 40  1  0  0  0  0
 39103  1  0  0  0  0
 39104  1  0  0  0  0
 40 41  1  0  0  0  0
 40105  1  0  0  0  0
 40106  1  0  0  0  0
 41 42  1  0  0  0  0
 41107  1  0  0  0  0
 41108  1  0  0  0  0
 42 43  1  0  0  0  0
 42109  1  0  0  0  0
 42110  1  0  0  0  0
 43 44  1  0  0  0  0
 43111  1  0  0  0  0
 43112  1  0  0  0  0
 44 45  1  0  0  0  0
 44113  1  0  0  0  0
 44114  1  0  0  0  0
 45 46  1  0  0  0  0
 45115  1  0  0  0  0
 45116  1  0  0  0  0
 46 47  1  0  0  0  0
 46117  1  0  0  0  0
 46118  1  0  0  0  0
 47 48  1  0  0  0  0
 47119  1  0  0  0  0
 47120  1  0  0  0  0
 48 49  1  0  0  0  0
 48121  1  0  0  0  0
 48122  1  0  0  0  0
 49123  1  0  0  0  0
 49124  1  0  0  0  0
 49125  1  0  0  0  0
M  CHG  1  29   1
M  END
$$$$
