HL6
 OpenBabel04121316133D

 31 31  0  0  1  0  0  0  0  0999 V2000
    1.0685   -0.0021    0.0281 C   0  0  0  0  0  0  0  0  0  0  0  0
    2.5836    0.0086    0.0397 C   0  0  0  0  0  0  0  0  0  0  0  0
    3.0934    0.9692    1.1073 C   0  0  0  0  0  0  0  0  0  0  0  0
    4.6073    0.9825    1.1209 C   0  0  0  0  0  0  0  0  0  0  0  0
    5.1488    1.9364    2.1798 C   0  0  0  0  0  0  0  0  0  0  0  0
    6.6504    1.8806    2.1323 C   0  0  0  0  0  0  0  0  0  0  0  0
    7.2623    1.1449    1.3626 O   0  0  0  0  0  0  0  0  0  0  0  0
    7.2947    2.7048    3.0234 N   0  0  0  0  0  0  0  0  0  0  0  0
    8.7435    2.6858    3.0664 C   0  0  1  0  0  0  0  0  0  0  0  0
    9.0754    3.4814    3.7437 H   0  0  0  0  0  0  0  0  0  0  0  0
    9.3341    1.3525    3.4712 C   0  0  0  0  0  0  0  0  0  0  0  0
   10.6895    1.3966    2.8156 C   0  0  0  0  0  0  0  0  0  0  0  0
   10.5356    2.1611    1.6183 O   0  0  0  0  0  0  0  0  0  0  0  0
    9.4086    2.9353    1.7129 C   0  0  0  0  0  0  0  0  0  0  0  0
    9.0470    3.7327    0.8646 O   0  0  0  0  0  0  0  0  0  0  0  0
    0.6983   -0.6897   -0.7365 H   0  0  0  0  0  0  0  0  0  0  0  0
    0.6787    0.9980   -0.1866 H   0  0  0  0  0  0  0  0  0  0  0  0
    0.6788   -0.3213    0.9999 H   0  0  0  0  0  0  0  0  0  0  0  0
    2.9583    0.3084   -0.9464 H   0  0  0  0  0  0  0  0  0  0  0  0
    2.9584   -1.0037    0.2339 H   0  0  0  0  0  0  0  0  0  0  0  0
    2.7208    0.6658    2.0926 H   0  0  0  0  0  0  0  0  0  0  0  0
    2.7200    1.9808    0.9101 H   0  0  0  0  0  0  0  0  0  0  0  0
    4.9848    1.2760    0.1319 H   0  0  0  0  0  0  0  0  0  0  0  0
    4.9836   -0.0323    1.3099 H   0  0  0  0  0  0  0  0  0  0  0  0
    4.8108    1.6360    3.1778 H   0  0  0  0  0  0  0  0  0  0  0  0
    4.8150    2.9614    1.9849 H   0  0  0  0  0  0  0  0  0  0  0  0
    6.7715    3.2963    3.6568 H   0  0  0  0  0  0  0  0  0  0  0  0
    8.7695    0.5068    3.0639 H   0  0  0  0  0  0  0  0  0  0  0  0
    9.3744    1.2043    4.5538 H   0  0  0  0  0  0  0  0  0  0  0  0
   11.0501    0.3933    2.5704 H   0  0  0  0  0  0  0  0  0  0  0  0
   11.4316    1.8951    3.4467 H   0  0  0  0  0  0  0  0  0  0  0  0
  1  2  1  0  0  0  0
  1 16  1  0  0  0  0
  1 17  1  0  0  0  0
  1 18  1  0  0  0  0
  2  3  1  0  0  0  0
  2 19  1  0  0  0  0
  2 20  1  0  0  0  0
  3  4  1  0  0  0  0
  3 21  1  0  0  0  0
  3 22  1  0  0  0  0
  4  5  1  0  0  0  0
  4 23  1  0  0  0  0
  4 24  1  0  0  0  0
  5  6  1  0  0  0  0
  5 25  1  0  0  0  0
  5 26  1  0  0  0  0
  6  7  2  0  0  0  0
  6  8  1  0  0  0  0
  8  9  1  0  0  0  0
  8 27  1  0  0  0  0
  9 10  1  1  0  0  0
  9 11  1  0  0  0  0
  9 14  1  0  0  0  0
 11 12  1  0  0  0  0
 11 28  1  0  0  0  0
 11 29  1  0  0  0  0
 12 13  1  0  0  0  0
 12 30  1  0  0  0  0
 12 31  1  0  0  0  0
 13 14  1  0  0  0  0
 14 15  2  0  0  0  0
M  END
$$$$
