HM2
 OpenBabel04121316133D

 40 42  0  0  0  0  0  0  0  0999 V2000
    1.0207    0.2047   -0.0486 C   0  0  0  0  0  0  0  0  0  0  0  0
    2.5213    0.1277   -0.0378 C   0  0  0  0  0  0  0  0  0  0  0  0
    3.1960    1.2918   -0.0105 N   0  0  0  0  0  0  0  0  0  0  0  0
    4.5463    1.2339    0.0001 C   0  0  0  0  0  0  0  0  0  0  0  0
    5.2504    0.0771   -0.0160 N   0  0  0  0  0  0  0  0  0  0  0  0
    4.5617   -1.0859   -0.0240 C   0  0  0  0  0  0  0  0  0  0  0  0
    3.1592   -1.1029   -0.0412 C   0  0  0  0  0  0  0  0  0  0  0  0
    2.1235   -2.5043   -0.0609 Cl  0  0  0  0  0  0  0  0  0  0  0  0
    5.3887   -2.2005    0.0136 N   0  0  0  0  0  0  0  0  0  0  0  0
    4.8465   -3.5289   -0.0295 C   0  0  0  0  0  0  0  0  0  0  0  0
    5.8235   -4.6832   -0.0094 C   0  0  0  0  0  0  0  0  0  0  0  0
    5.0835   -6.0164   -0.0238 C   0  0  0  0  0  0  0  0  0  0  0  0
    5.8065   -7.1871    0.2144 C   0  0  0  0  0  0  0  0  0  0  0  0
    5.2015   -8.4350    0.0471 C   0  0  0  0  0  0  0  0  0  0  0  0
    3.8469   -8.5307   -0.2705 C   0  0  0  0  0  0  0  0  0  0  0  0
    3.0871   -7.3790   -0.4047 C   0  0  0  0  0  0  0  0  0  0  0  0
    3.7095   -6.1370   -0.3219 C   0  0  0  0  0  0  0  0  0  0  0  0
    5.2589    2.5436   -0.0020 C   0  0  0  0  0  0  0  0  0  0  0  0
    4.5459    3.7345    0.2017 C   0  0  0  0  0  0  0  0  0  0  0  0
    5.1700    4.9644    0.0090 C   0  0  0  0  0  0  0  0  0  0  0  0
    6.5169    4.9929   -0.3087 C   0  0  0  0  0  0  0  0  0  0  0  0
    7.1897    3.7847   -0.3904 C   0  0  0  0  0  0  0  0  0  0  0  0
    6.5951    2.5730   -0.2673 N   0  0  0  0  0  0  0  0  0  0  0  0
    0.6703    1.2379   -0.0489 H   0  0  0  0  0  0  0  0  0  0  0  0
    0.6175   -0.2915    0.8420 H   0  0  0  0  0  0  0  0  0  0  0  0
    0.6247   -0.2889   -0.9440 H   0  0  0  0  0  0  0  0  0  0  0  0
    6.3802   -2.0183   -0.0369 H   0  0  0  0  0  0  0  0  0  0  0  0
    4.2802   -3.6136   -0.9632 H   0  0  0  0  0  0  0  0  0  0  0  0
    4.2089   -3.6601    0.8524 H   0  0  0  0  0  0  0  0  0  0  0  0
    6.4565   -4.6146    0.8824 H   0  0  0  0  0  0  0  0  0  0  0  0
    6.4709   -4.6298   -0.8925 H   0  0  0  0  0  0  0  0  0  0  0  0
    6.8507   -7.1336    0.5123 H   0  0  0  0  0  0  0  0  0  0  0  0
    5.7935   -9.3384    0.1576 H   0  0  0  0  0  0  0  0  0  0  0  0
    3.3822   -9.5012   -0.4133 H   0  0  0  0  0  0  0  0  0  0  0  0
    2.0185   -7.4349   -0.5964 H   0  0  0  0  0  0  0  0  0  0  0  0
    3.0761   -5.2752   -0.5100 H   0  0  0  0  0  0  0  0  0  0  0  0
    3.4983    3.7051    0.4854 H   0  0  0  0  0  0  0  0  0  0  0  0
    4.6002    5.8847    0.1016 H   0  0  0  0  0  0  0  0  0  0  0  0
    7.0324    5.9326   -0.4740 H   0  0  0  0  0  0  0  0  0  0  0  0
    8.2617    3.7605   -0.5647 H   0  0  0  0  0  0  0  0  0  0  0  0
  1  2  1  0  0  0  0
  1 24  1  0  0  0  0
  1 25  1  0  0  0  0
  1 26  1  0  0  0  0
  2  3  2  0  0  0  0
  2  7  1  0  0  0  0
  3  4  1  0  0  0  0
  4  5  2  0  0  0  0
  4 18  1  0  0  0  0
  5  6  1  0  0  0  0
  6  7  2  0  0  0  0
  6  9  1  0  0  0  0
  7  8  1  0  0  0  0
  9 10  1  0  0  0  0
  9 27  1  0  0  0  0
 10 11  1  0  0  0  0
 10 28  1  0  0  0  0
 10 29  1  0  0  0  0
 11 12  1  0  0  0  0
 11 30  1  0  0  0  0
 11 31  1  0  0  0  0
 12 13  2  0  0  0  0
 12 17  1  0  0  0  0
 13 14  1  0  0  0  0
 13 32  1  0  0  0  0
 14 15  2  0  0  0  0
 14 33  1  0  0  0  0
 15 16  1  0  0  0  0
 15 34  1  0  0  0  0
 16 17  2  0  0  0  0
 16 35  1  0  0  0  0
 17 36  1  0  0  0  0
 18 19  2  0  0  0  0
 18 23  1  0  0  0  0
 19 20  1  0  0  0  0
 19 37  1  0  0  0  0
 20 21  2  0  0  0  0
 20 38  1  0  0  0  0
 21 22  1  0  0  0  0
 21 39  1  0  0  0  0
 22 23  2  0  0  0  0
 22 40  1  0  0  0  0
M  END
$$$$
