HM5
 OpenBabel04121316133D

 37 38  0  0  0  0  0  0  0  0999 V2000
    1.1092    0.0842   -0.1434 O   0  0  0  0  0  0  0  0  0  0  0  0
    2.3416   -0.0036   -0.2013 C   0  0  0  0  0  0  0  0  0  0  0  0
    3.0635   -0.8959   -1.2781 C   0  0  0  0  0  0  0  0  0  0  0  0
    3.8792    0.0307   -2.1750 C   0  0  0  0  0  0  0  0  0  0  0  0
    4.0514   -1.9989   -0.8999 C   0  0  0  0  0  0  0  0  0  0  0  0
    1.9702   -1.6658   -2.0375 C   0  0  0  0  0  0  0  0  0  0  0  0
    3.0059    0.7832    0.7099 N   0  0  0  0  0  0  0  0  0  0  0  0
    4.3667    0.7821    1.0331 C   0  0  0  0  0  0  0  0  0  0  0  0
    5.0604    1.9930    0.9241 C   0  0  0  0  0  0  0  0  0  0  0  0
    6.4350    2.0144    1.1373 C   0  0  0  0  0  0  0  0  0  0  0  0
    7.0867    0.8045    1.2566 C   0  0  0  0  0  0  0  0  0  0  0  0
    6.4393   -0.3618    1.4323 N   0  0  0  0  0  0  0  0  0  0  0  0
    5.0770   -0.3471    1.4417 C   0  0  0  0  0  0  0  0  0  0  0  0
    4.4436   -1.6841    1.8405 C   0  0  0  0  0  0  0  0  0  0  0  0
    5.1641   -2.6562    1.9387 O   0  0  0  0  0  0  0  0  0  0  0  0
    3.0504   -1.7122    1.9693 N   0  0  0  0  0  0  0  0  0  0  0  0
    2.3471   -2.8842    1.8073 C   0  0  0  0  0  0  0  0  0  0  0  0
    2.7910   -4.0882    1.5551 N   0  0  0  0  0  0  0  0  0  0  0  0
    1.7315   -4.9618    1.4538 C   0  0  0  0  0  0  0  0  0  0  0  0
    0.4871   -4.3971    1.6315 C   0  0  0  0  0  0  0  0  0  0  0  0
    0.6474   -2.6966    1.8000 S   0  0  0  0  0  0  0  0  0  0  0  0
    4.6278    0.5748   -1.5887 H   0  0  0  0  0  0  0  0  0  0  0  0
    3.2559    0.7666   -2.6813 H   0  0  0  0  0  0  0  0  0  0  0  0
    4.4412   -0.5514   -2.9117 H   0  0  0  0  0  0  0  0  0  0  0  0
    4.9688   -1.5952   -0.4906 H   0  0  0  0  0  0  0  0  0  0  0  0
    4.4132   -2.5839   -1.7497 H   0  0  0  0  0  0  0  0  0  0  0  0
    3.5971   -2.7416   -0.2604 H   0  0  0  0  0  0  0  0  0  0  0  0
    1.2835   -1.0022   -2.5648 H   0  0  0  0  0  0  0  0  0  0  0  0
    1.3792   -2.2761   -1.3391 H   0  0  0  0  0  0  0  0  0  0  0  0
    2.4136   -2.3594   -2.7594 H   0  0  0  0  0  0  0  0  0  0  0  0
    2.4207    1.4778    1.1711 H   0  0  0  0  0  0  0  0  0  0  0  0
    4.5681    2.9063    0.5949 H   0  0  0  0  0  0  0  0  0  0  0  0
    6.9904    2.9447    1.1800 H   0  0  0  0  0  0  0  0  0  0  0  0
    8.1711    0.7360    1.2339 H   0  0  0  0  0  0  0  0  0  0  0  0
    2.4885   -0.8808    1.8928 H   0  0  0  0  0  0  0  0  0  0  0  0
    1.9342   -6.0130    1.2891 H   0  0  0  0  0  0  0  0  0  0  0  0
   -0.4762   -4.8815    1.6728 H   0  0  0  0  0  0  0  0  0  0  0  0
  1  2  2  0  0  0  0
  2  3  1  0  0  0  0
  2  7  1  0  0  0  0
  3  4  1  0  0  0  0
  3  5  1  0  0  0  0
  3  6  1  0  0  0  0
  4 22  1  0  0  0  0
  4 23  1  0  0  0  0
  4 24  1  0  0  0  0
  5 25  1  0  0  0  0
  5 26  1  0  0  0  0
  5 27  1  0  0  0  0
  6 28  1  0  0  0  0
  6 29  1  0  0  0  0
  6 30  1  0  0  0  0
  7  8  1  0  0  0  0
  7 31  1  0  0  0  0
  8  9  2  0  0  0  0
  8 13  1  0  0  0  0
  9 10  1  0  0  0  0
  9 32  1  0  0  0  0
 10 11  2  0  0  0  0
 10 33  1  0  0  0  0
 11 12  1  0  0  0  0
 11 34  1  0  0  0  0
 12 13  2  0  0  0  0
 13 14  1  0  0  0  0
 14 15  2  0  0  0  0
 14 16  1  0  0  0  0
 16 17  1  0  0  0  0
 16 35  1  0  0  0  0
 17 18  2  0  0  0  0
 17 21  1  0  0  0  0
 18 19  1  0  0  0  0
 19 20  2  0  0  0  0
 19 36  1  0  0  0  0
 20 21  1  0  0  0  0
 20 37  1  0  0  0  0
M  END
$$$$
