HMG
 OpenBabel04121316133D

 97 99  0  0  1  0  0  0  0  0999 V2000
   10.3838  -10.1111   -3.6827 O   0  0  0  0  0  0  0  0  0  0  0  0
    9.3534   -9.6544   -4.1792 C   0  0  0  0  0  0  0  0  0  0  0  0
    9.3206   -8.7170   -5.1863 N   0  0  0  0  0  0  0  0  0  0  0  0
   10.5113   -8.1286   -5.7501 C   0  0  0  0  0  0  0  0  0  0  0  0
   10.1650   -7.0096   -6.7728 C   0  0  0  0  0  0  0  0  0  0  0  0
   11.3811   -5.6029   -6.8564 S   0  0  0  0  0  0  0  0  0  0  0  0
   11.2910   -5.1376   -8.5827 C   0  0  0  0  0  0  0  0  0  0  0  0
   10.2033   -4.8630   -9.0893 O   0  0  0  0  0  0  0  0  0  0  0  0
   12.5994   -4.8541   -9.3706 C   0  0  0  0  0  0  0  0  0  0  0  0
   13.9333   -5.4880   -8.9302 C   0  0  2  0  0  0  0  0  0  0  0  0
   13.8537   -6.8881   -8.3073 C   0  0  0  0  0  0  0  0  0  0  0  0
   12.6791   -7.8164   -8.6090 C   0  0  0  0  0  0  0  0  0  0  0  0
   11.9725   -7.5228   -9.6067 O   0  0  0  0  0  0  0  0  0  0  0  0
   12.6021   -8.8047   -7.8329 O   0  5  0  0  0  0  0  0  0  0  0  0
   14.5424   -4.5322   -8.0239 O   0  0  0  0  0  0  0  0  0  0  0  0
   14.9512   -5.5953  -10.0890 C   0  0  0  0  0  0  0  0  0  0  0  0
    8.0325  -10.1348   -3.6747 C   0  0  0  0  0  0  0  0  0  0  0  0
    6.9373   -9.5243   -4.4638 C   0  0  0  0  0  0  0  0  0  0  0  0
    5.7711  -10.2291   -4.1788 N   0  0  0  0  0  0  0  0  0  0  0  0
    4.6955   -9.6346   -4.7807 C   0  0  0  0  0  0  0  0  0  0  0  0
    4.8179   -8.9409   -5.7396 O   0  0  0  0  0  0  0  0  0  0  0  0
    3.4510  -10.2479   -4.1823 C   0  0  1  0  0  0  0  0  0  0  0  0
    3.3443  -11.3043   -4.4165 H   0  0  0  0  0  0  0  0  0  0  0  0
    3.3044  -10.0227   -2.5045 C   0  0  0  0  0  0  0  0  0  0  0  0
    3.4499   -8.5387   -2.2316 C   0  0  0  0  0  0  0  0  0  0  0  0
    4.2198   -7.6300   -2.8177 O   0  0  0  0  0  0  0  0  0  0  0  0
    4.3247   -5.9139   -2.6251 P   0  0  1  0  0  0  0  0  0  0  0  0
    4.7486   -5.8636   -4.0879 O   0  0  0  0  0  0  0  0  0  0  0  0
    2.6446   -5.8855   -2.1645 O   0  0  0  0  0  0  0  0  0  0  0  0
    1.9052   -6.7706   -0.9727 P   0  0  2  0  0  0  0  0  0  0  0  0
    3.0184   -7.2925   -0.0326 O   0  0  0  0  0  0  0  0  0  0  0  0
    0.8903   -7.9957   -1.8908 O   0  0  0  0  0  0  0  0  0  0  0  0
    1.1039   -8.5578   -3.3246 C   0  0  0  0  0  0  0  0  0  0  0  0
    0.4865   -9.7632   -4.1322 C   0  0  1  0  0  0  0  0  0  0  0  0
    0.9156  -10.1145   -5.1024 H   0  0  0  0  0  0  0  0  0  0  0  0
    0.3038  -11.0781   -3.5820 O   0  0  0  0  0  0  0  0  0  0  0  0
   -0.8029  -11.5331   -4.3131 C   0  0  2  0  0  0  0  0  0  0  0  0
   -0.4963  -12.0666   -5.2279 H   0  0  0  0  0  0  0  0  0  0  0  0
   -1.5925  -10.2286   -4.6074 C   0  0  1  0  0  0  0  0  0  0  0  0
   -2.2164   -9.9929   -3.7456 H   0  0  0  0  0  0  0  0  0  0  0  0
   -0.6835   -9.0522   -4.5381 C   0  0  2  0  0  0  0  0  0  0  0  0
   -0.9834   -8.3366   -3.7720 H   0  0  0  0  0  0  0  0  0  0  0  0
   -0.1762   -8.4638   -5.6766 O   0  0  0  0  0  0  0  0  0  0  0  0
    1.0609   -7.2546   -5.6790 P   0  0  0  0  0  0  0  0  0  0  0  0
    1.2242   -7.6849   -7.1690 O   0  0  0  0  0  0  0  0  0  0  0  0
   -0.1129   -6.3052   -5.3089 O   0  5  0  0  0  0  0  0  0  0  0  0
    2.2981   -6.0453   -5.6815 O   0  5  0  0  0  0  0  0  0  0  0  0
   -2.3414  -10.3329   -5.7965 O   0  0  0  0  0  0  0  0  0  0  0  0
   -1.4564  -12.5147   -3.4749 N   0  0  0  0  0  0  0  0  0  0  0  0
   -0.9275  -13.6776   -2.9635 C   0  0  0  0  0  0  0  0  0  0  0  0
   -1.8281  -14.3679   -2.2807 N   0  0  0  0  0  0  0  0  0  0  0  0
   -2.9630  -13.5783   -2.3213 C   0  0  0  0  0  0  0  0  0  0  0  0
   -2.7521  -12.4498   -3.0725 C   0  0  0  0  0  0  0  0  0  0  0  0
   -3.6477  -11.5048   -3.3696 N   0  0  0  0  0  0  0  0  0  0  0  0
   -4.8092  -11.6780   -2.7581 C   0  0  0  0  0  0  0  0  0  0  0  0
   -5.1762  -12.7394   -2.0185 N   0  0  0  0  0  0  0  0  0  0  0  0
   -4.2614  -13.7211   -1.8152 C   0  0  0  0  0  0  0  0  0  0  0  0
   -4.6641  -14.8591   -1.1513 N   0  0  0  0  0  0  0  0  0  0  0  0
    0.8766   -6.1138   -0.0635 O   0  5  0  0  0  0  0  0  0  0  0  0
    4.4297   -4.1979   -2.4325 O   0  5  0  0  0  0  0  0  0  0  0  0
    1.8940  -10.5575   -1.5678 C   0  0  0  0  0  0  0  0  0  0  0  0
    4.3512  -10.5867   -1.5656 C   0  0  0  0  0  0  0  0  0  0  0  0
    2.6362   -9.5573   -5.1141 O   0  0  0  0  0  0  0  0  0  0  0  0
    8.4502   -8.3691   -5.5832 H   0  0  0  0  0  0  0  0  0  0  0  0
   11.0452   -8.9821   -6.1741 H   0  0  0  0  0  0  0  0  0  0  0  0
   11.0860   -7.7556   -4.9002 H   0  0  0  0  0  0  0  0  0  0  0  0
    9.2436   -6.5212   -6.4452 H   0  0  0  0  0  0  0  0  0  0  0  0
    9.9304   -7.4669   -7.7436 H   0  0  0  0  0  0  0  0  0  0  0  0
   12.7088   -3.7590   -9.4139 H   0  0  0  0  0  0  0  0  0  0  0  0
   12.4108   -5.1646  -10.4090 H   0  0  0  0  0  0  0  0  0  0  0  0
   14.6709   -7.5080   -8.6943 H   0  0  0  0  0  0  0  0  0  0  0  0
   14.0355   -6.8242   -7.2276 H   0  0  0  0  0  0  0  0  0  0  0  0
   15.3144   -4.9519   -7.6157 H   0  0  0  0  0  0  0  0  0  0  0  0
   15.9259   -5.9310   -9.6999 H   0  0  0  0  0  0  0  0  0  0  0  0
   15.1438   -4.6348  -10.5750 H   0  0  0  0  0  0  0  0  0  0  0  0
   14.6281   -6.3246  -10.8382 H   0  0  0  0  0  0  0  0  0  0  0  0
    7.9063   -9.8898   -2.6135 H   0  0  0  0  0  0  0  0  0  0  0  0
    7.9735  -11.2264   -3.7748 H   0  0  0  0  0  0  0  0  0  0  0  0
    7.0658   -9.6753   -5.5415 H   0  0  0  0  0  0  0  0  0  0  0  0
    6.8162   -8.4477   -4.2598 H   0  0  0  0  0  0  0  0  0  0  0  0
    5.6416  -10.7318   -3.3355 H   0  0  0  0  0  0  0  0  0  0  0  0
    3.3703   -8.5868   -1.1959 H   0  0  0  0  0  0  0  0  0  0  0  0
    2.6995   -7.9481   -2.5918 H   0  0  0  0  0  0  0  0  0  0  0  0
    1.7258   -9.3329   -3.1101 H   0  0  0  0  0  0  0  0  0  0  0  0
    1.7717   -7.9413   -3.9153 H   0  0  0  0  0  0  0  0  0  0  0  0
   -2.9861  -11.0232   -5.6143 H   0  0  0  0  0  0  0  0  0  0  0  0
    0.1056  -13.9708   -3.1216 H   0  0  0  0  0  0  0  0  0  0  0  0
   -5.5267  -10.8774   -2.9035 H   0  0  0  0  0  0  0  0  0  0  0  0
   -5.5602  -14.8166   -0.7001 H   0  0  0  0  0  0  0  0  0  0  0  0
   -3.9271  -15.4993   -0.8917 H   0  0  0  0  0  0  0  0  0  0  0  0
    0.8704  -10.2129   -1.7971 H   0  0  0  0  0  0  0  0  0  0  0  0
    1.9098  -10.1441   -0.5437 H   0  0  0  0  0  0  0  0  0  0  0  0
    1.8009  -11.6386   -1.5758 H   0  0  0  0  0  0  0  0  0  0  0  0
    5.3121  -10.0905   -1.6852 H   0  0  0  0  0  0  0  0  0  0  0  0
    4.3568  -11.6620   -1.6701 H   0  0  0  0  0  0  0  0  0  0  0  0
    4.0801  -10.3452   -0.5219 H   0  0  0  0  0  0  0  0  0  0  0  0
    2.8202   -9.5671   -6.0834 H   0  0  0  0  0  0  0  0  0  0  0  0
  1  2  2  0  0  0  0
  2  3  1  0  0  0  0
  2 17  1  0  0  0  0
  3  4  1  0  0  0  0
  3 64  1  0  0  0  0
  4  5  1  0  0  0  0
  4 65  1  0  0  0  0
  4 66  1  0  0  0  0
  5  6  1  0  0  0  0
  5 67  1  0  0  0  0
  5 68  1  0  0  0  0
  6  7  1  0  0  0  0
  7  8  2  0  0  0  0
  7  9  1  0  0  0  0
  9 69  1  0  0  0  0
  9 70  1  0  0  0  0
 10 15  1  1  0  0  0
 10 16  1  0  0  0  0
 10 11  1  0  0  0  0
 10  9  1  0  0  0  0
 11 12  1  0  0  0  0
 11 71  1  0  0  0  0
 11 72  1  0  0  0  0
 12 13  2  0  0  0  0
 12 14  1  0  0  0  0
 15 73  1  0  0  0  0
 16 74  1  0  0  0  0
 16 75  1  0  0  0  0
 16 76  1  0  0  0  0
 17 18  1  0  0  0  0
 17 77  1  0  0  0  0
 17 78  1  0  0  0  0
 18 19  1  0  0  0  0
 18 79  1  0  0  0  0
 18 80  1  0  0  0  0
 19 20  1  0  0  0  0
 19 81  1  0  0  0  0
 20 21  2  0  0  0  0
 20 22  1  0  0  0  0
 22 23  1  6  0  0  0
 22 24  1  0  0  0  0
 22 63  1  0  0  0  0
 24 25  1  0  0  0  0
 24 61  1  0  0  0  0
 24 62  1  0  0  0  0
 25 26  1  0  0  0  0
 25 82  1  0  0  0  0
 25 83  1  0  0  0  0
 27 26  1  1  0  0  0
 27 28  2  0  0  0  0
 27 29  1  0  0  0  0
 27 60  1  0  0  0  0
 30 32  1  6  0  0  0
 30 59  1  0  0  0  0
 30 31  2  0  0  0  0
 30 29  1  0  0  0  0
 32 33  1  0  0  0  0
 33 34  1  0  0  0  0
 33 84  1  0  0  0  0
 33 85  1  0  0  0  0
 34 35  1  6  0  0  0
 34 36  1  0  0  0  0
 34 41  1  0  0  0  0
 36 37  1  0  0  0  0
 37 39  1  0  0  0  0
 37 49  1  0  0  0  0
 37 38  1  6  0  0  0
 39 40  1  1  0  0  0
 39 41  1  0  0  0  0
 39 48  1  0  0  0  0
 41 42  1  1  0  0  0
 41 43  1  0  0  0  0
 43 44  1  0  0  0  0
 44 45  2  0  0  0  0
 44 46  1  0  0  0  0
 44 47  1  0  0  0  0
 48 86  1  0  0  0  0
 49 50  1  0  0  0  0
 49 53  1  0  0  0  0
 50 51  2  0  0  0  0
 50 87  1  0  0  0  0
 51 52  1  0  0  0  0
 52 53  2  0  0  0  0
 52 57  1  0  0  0  0
 53 54  1  0  0  0  0
 54 55  2  0  0  0  0
 55 56  1  0  0  0  0
 55 88  1  0  0  0  0
 56 57  2  0  0  0  0
 57 58  1  0  0  0  0
 58 89  1  0  0  0  0
 58 90  1  0  0  0  0
 61 91  1  0  0  0  0
 61 92  1  0  0  0  0
 61 93  1  0  0  0  0
 62 94  1  0  0  0  0
 62 95  1  0  0  0  0
 62 96  1  0  0  0  0
 63 97  1  0  0  0  0
M  CHG  5  14  -1  46  -1  47  -1  59  -1  60  -1
M  END
$$$$
