HN5
 OpenBabel04121316133D

 55 57  0  0  1  0  0  0  0  0999 V2000
    0.6704    0.2300    0.0421 O   0  0  0  0  0  0  0  0  0  0  0  0
    2.0730    0.1847    0.2065 C   0  0  2  0  0  0  0  0  0  0  0  0
    2.4684   -0.5633   -0.4978 H   0  0  0  0  0  0  0  0  0  0  0  0
    2.4731   -0.1771    1.6448 C   0  0  0  0  0  0  0  0  0  0  0  0
    3.6776    0.6786    1.9828 N   0  0  3  0  0  0  0  0  0  0  0  0
    4.1187    1.2502    0.6886 C   0  0  1  0  0  0  0  0  0  0  0  0
    4.6928    0.5324    0.0791 H   0  0  0  0  0  0  0  0  0  0  0  0
    2.8021    1.4988   -0.0573 C   0  0  2  0  0  0  0  0  0  0  0  0
    2.9433    1.6472   -1.1329 H   0  0  0  0  0  0  0  0  0  0  0  0
    2.0752    2.6069    0.4646 O   0  0  0  0  0  0  0  0  0  0  0  0
    5.0296    2.4401    0.9633 C   0  0  2  0  0  0  0  0  0  0  0  0
    4.5530    3.1484    1.6515 H   0  0  0  0  0  0  0  0  0  0  0  0
    5.3282    3.1401   -0.2415 O   0  0  0  0  0  0  0  0  0  0  0  0
    6.3314    1.9513    1.6087 C   0  0  0  0  0  0  0  0  0  0  0  0
    6.1346    0.8569    2.6746 C   0  0  0  0  0  0  0  0  0  0  0  0
    4.8435   -0.0036    2.6253 C   0  0  2  0  0  0  0  0  0  0  0  0
    4.5883   -0.1381    3.6877 H   0  0  0  0  0  0  0  0  0  0  0  0
    4.8474   -1.4064    2.0456 C   0  0  0  0  0  0  0  0  0  0  0  0
    5.7425   -2.2471    1.1976 C   0  0  0  0  0  0  0  0  0  0  0  0
    4.7552   -3.1939    0.4825 C   0  0  0  0  0  0  0  0  0  0  0  0
    4.0981   -4.2071    1.1800 C   0  0  0  0  0  0  0  0  0  0  0  0
    3.3742   -5.1693    0.5031 C   0  0  0  0  0  0  0  0  0  0  0  0
    3.1751   -5.0633   -0.8901 C   0  0  0  0  0  0  0  0  0  0  0  0
    3.5389   -3.8613   -1.5007 C   0  0  0  0  0  0  0  0  0  0  0  0
    4.3433   -2.9442   -0.8428 C   0  0  0  0  0  0  0  0  0  0  0  0
    2.6909   -6.2779   -1.6784 C   0  0  0  0  0  0  0  0  0  0  0  0
    3.7351   -7.4099   -1.5137 C   0  0  0  0  0  0  0  0  0  0  0  0
    1.3293   -6.7527   -1.1499 C   0  0  0  0  0  0  0  0  0  0  0  0
    2.5648   -5.9802   -3.1868 C   0  0  0  0  0  0  0  0  0  0  0  0
    0.3410    0.7655    0.7859 H   0  0  0  0  0  0  0  0  0  0  0  0
    2.5714   -1.2732    1.6047 H   0  0  0  0  0  0  0  0  0  0  0  0
    1.6930   -0.0553    2.3958 H   0  0  0  0  0  0  0  0  0  0  0  0
    2.7141    3.3123    0.6621 H   0  0  0  0  0  0  0  0  0  0  0  0
    4.6171    2.9840   -0.8866 H   0  0  0  0  0  0  0  0  0  0  0  0
    6.8330    2.8149    2.0739 H   0  0  0  0  0  0  0  0  0  0  0  0
    7.0406    1.6105    0.8438 H   0  0  0  0  0  0  0  0  0  0  0  0
    6.1117    1.3977    3.6343 H   0  0  0  0  0  0  0  0  0  0  0  0
    7.0337    0.2297    2.7319 H   0  0  0  0  0  0  0  0  0  0  0  0
    4.2133   -2.0184    2.7032 H   0  0  0  0  0  0  0  0  0  0  0  0
    4.2793   -1.1938    1.1540 H   0  0  0  0  0  0  0  0  0  0  0  0
    6.4669   -2.8213    1.7727 H   0  0  0  0  0  0  0  0  0  0  0  0
    6.2546   -1.6341    0.4493 H   0  0  0  0  0  0  0  0  0  0  0  0
    4.1623   -4.2738    2.2704 H   0  0  0  0  0  0  0  0  0  0  0  0
    3.0281   -6.0402    1.0501 H   0  0  0  0  0  0  0  0  0  0  0  0
    3.2672   -3.6433   -2.5376 H   0  0  0  0  0  0  0  0  0  0  0  0
    4.6490   -2.0438   -1.3651 H   0  0  0  0  0  0  0  0  0  0  0  0
    3.8501   -7.7196   -0.4678 H   0  0  0  0  0  0  0  0  0  0  0  0
    4.7258   -7.0909   -1.8631 H   0  0  0  0  0  0  0  0  0  0  0  0
    3.4503   -8.3004   -2.0836 H   0  0  0  0  0  0  0  0  0  0  0  0
    1.3775   -7.0526   -0.0969 H   0  0  0  0  0  0  0  0  0  0  0  0
    0.9697   -7.6199   -1.7131 H   0  0  0  0  0  0  0  0  0  0  0  0
    0.5807   -5.9567   -1.2289 H   0  0  0  0  0  0  0  0  0  0  0  0
    3.5246   -5.6547   -3.6092 H   0  0  0  0  0  0  0  0  0  0  0  0
    1.8296   -5.1886   -3.3724 H   0  0  0  0  0  0  0  0  0  0  0  0
    2.2488   -6.8640   -3.7489 H   0  0  0  0  0  0  0  0  0  0  0  0
  1  2  1  0  0  0  0
  1 30  1  0  0  0  0
  2  4  1  0  0  0  0
  2  8  1  0  0  0  0
  2  3  1  6  0  0  0
  4  5  1  0  0  0  0
  4 31  1  0  0  0  0
  4 32  1  0  0  0  0
  5  6  1  0  0  0  0
  5 16  1  0  0  0  0
  6  8  1  0  0  0  0
  6 11  1  0  0  0  0
  6  7  1  6  0  0  0
  8 10  1  0  0  0  0
  8  9  1  6  0  0  0
 10 33  1  0  0  0  0
 11 14  1  0  0  0  0
 11 12  1  1  0  0  0
 11 13  1  0  0  0  0
 13 34  1  0  0  0  0
 14 15  1  0  0  0  0
 14 35  1  0  0  0  0
 14 36  1  0  0  0  0
 15 16  1  0  0  0  0
 15 37  1  0  0  0  0
 15 38  1  0  0  0  0
 16 17  1  1  0  0  0
 16 18  1  0  0  0  0
 18 19  1  0  0  0  0
 18 39  1  0  0  0  0
 18 40  1  0  0  0  0
 19 20  1  0  0  0  0
 19 41  1  0  0  0  0
 19 42  1  0  0  0  0
 20 21  2  0  0  0  0
 20 25  1  0  0  0  0
 21 22  1  0  0  0  0
 21 43  1  0  0  0  0
 22 23  2  0  0  0  0
 22 44  1  0  0  0  0
 23 24  1  0  0  0  0
 23 26  1  0  0  0  0
 24 25  2  0  0  0  0
 24 45  1  0  0  0  0
 25 46  1  0  0  0  0
 26 27  1  0  0  0  0
 26 28  1  0  0  0  0
 26 29  1  0  0  0  0
 27 47  1  0  0  0  0
 27 48  1  0  0  0  0
 27 49  1  0  0  0  0
 28 50  1  0  0  0  0
 28 51  1  0  0  0  0
 28 52  1  0  0  0  0
 29 53  1  0  0  0  0
 29 54  1  0  0  0  0
 29 55  1  0  0  0  0
M  END
$$$$
