HN6
 OpenBabel04121316133D

 55 57  0  0  1  0  0  0  0  0999 V2000
    0.9286   -0.0693    0.2534 O   0  0  0  0  0  0  0  0  0  0  0  0
    2.3462   -0.0784    0.2070 C   0  0  2  0  0  0  0  0  0  0  0  0
    2.6472   -0.6948   -0.6508 H   0  0  0  0  0  0  0  0  0  0  0  0
    3.0179   -0.6377    1.4938 C   0  0  0  0  0  0  0  0  0  0  0  0
    4.0466    0.3513    1.9089 N   0  0  3  0  0  0  0  0  0  0  0  0
    4.3277    1.1000    0.6537 C   0  0  1  0  0  0  0  0  0  0  0  0
    4.9090    0.4758   -0.0436 H   0  0  0  0  0  0  0  0  0  0  0  0
    2.9508    1.3132    0.0190 C   0  0  2  0  0  0  0  0  0  0  0  0
    3.0033    1.5641   -1.0469 H   0  0  0  0  0  0  0  0  0  0  0  0
    2.1900    2.3342    0.6664 O   0  0  0  0  0  0  0  0  0  0  0  0
    5.1158    2.3728    0.9436 C   0  0  2  0  0  0  0  0  0  0  0  0
    4.6186    2.9695    1.7215 H   0  0  0  0  0  0  0  0  0  0  0  0
    5.2654    3.2001   -0.2029 O   0  0  0  0  0  0  0  0  0  0  0  0
    6.4949    1.9755    1.4326 C   0  0  0  0  0  0  0  0  0  0  0  0
    6.4060    0.9087    2.4928 C   0  0  0  0  0  0  0  0  0  0  0  0
    5.2998   -0.1807    2.4898 C   0  0  1  0  0  0  0  0  0  0  0  0
    5.6135   -1.0293    1.8667 H   0  0  0  0  0  0  0  0  0  0  0  0
    5.3158   -0.7125    3.9639 C   0  0  0  0  0  0  0  0  0  0  0  0
    5.3265    0.3616    5.0689 C   0  0  0  0  0  0  0  0  0  0  0  0
    5.6374   -0.2016    6.4083 C   0  0  0  0  0  0  0  0  0  0  0  0
    4.6397   -0.8565    7.1162 C   0  0  0  0  0  0  0  0  0  0  0  0
    4.8510   -1.1523    8.4398 C   0  0  0  0  0  0  0  0  0  0  0  0
    6.0899   -0.8887    9.0604 C   0  0  0  0  0  0  0  0  0  0  0  0
    7.1385   -0.3844    8.2753 C   0  0  0  0  0  0  0  0  0  0  0  0
    6.9040   -0.0017    6.9777 C   0  0  0  0  0  0  0  0  0  0  0  0
    6.2387   -1.0964   10.5599 C   0  0  0  0  0  0  0  0  0  0  0  0
    5.2479   -0.1632   11.2889 C   0  0  0  0  0  0  0  0  0  0  0  0
    5.9265   -2.5643   10.8901 C   0  0  0  0  0  0  0  0  0  0  0  0
    7.6599   -0.7633   11.0553 C   0  0  0  0  0  0  0  0  0  0  0  0
    0.6873    0.6411    0.8786 H   0  0  0  0  0  0  0  0  0  0  0  0
    3.4501   -1.6132    1.2377 H   0  0  0  0  0  0  0  0  0  0  0  0
    2.2773   -0.7863    2.2849 H   0  0  0  0  0  0  0  0  0  0  0  0
    2.7463    3.1353    0.7065 H   0  0  0  0  0  0  0  0  0  0  0  0
    4.6207    2.9394   -0.8793 H   0  0  0  0  0  0  0  0  0  0  0  0
    6.9614    2.8571    1.9000 H   0  0  0  0  0  0  0  0  0  0  0  0
    7.1688    1.6766    0.6285 H   0  0  0  0  0  0  0  0  0  0  0  0
    6.2132    1.5671    3.3277 H   0  0  0  0  0  0  0  0  0  0  0  0
    7.3768    0.4317    2.6652 H   0  0  0  0  0  0  0  0  0  0  0  0
    4.5327   -1.4552    4.1538 H   0  0  0  0  0  0  0  0  0  0  0  0
    6.2635   -1.2664    4.0714 H   0  0  0  0  0  0  0  0  0  0  0  0
    4.3966    0.9397    5.0886 H   0  0  0  0  0  0  0  0  0  0  0  0
    6.1253    1.0996    4.9687 H   0  0  0  0  0  0  0  0  0  0  0  0
    3.6844   -1.0667    6.6415 H   0  0  0  0  0  0  0  0  0  0  0  0
    4.0146   -1.5570    9.0073 H   0  0  0  0  0  0  0  0  0  0  0  0
    8.1396   -0.2267    8.6710 H   0  0  0  0  0  0  0  0  0  0  0  0
    7.7016    0.4995    6.4261 H   0  0  0  0  0  0  0  0  0  0  0  0
    4.2054   -0.3717   11.0208 H   0  0  0  0  0  0  0  0  0  0  0  0
    5.4372    0.8888   11.0389 H   0  0  0  0  0  0  0  0  0  0  0  0
    5.3308   -0.2724   12.3746 H   0  0  0  0  0  0  0  0  0  0  0  0
    4.9009   -2.8394   10.6179 H   0  0  0  0  0  0  0  0  0  0  0  0
    6.0394   -2.7596   11.9598 H   0  0  0  0  0  0  0  0  0  0  0  0
    6.5963   -3.2376   10.3418 H   0  0  0  0  0  0  0  0  0  0  0  0
    7.9185    0.2830   10.8430 H   0  0  0  0  0  0  0  0  0  0  0  0
    8.4078   -1.3993   10.5655 H   0  0  0  0  0  0  0  0  0  0  0  0
    7.7575   -0.9090   12.1336 H   0  0  0  0  0  0  0  0  0  0  0  0
  1  2  1  0  0  0  0
  1 30  1  0  0  0  0
  2  4  1  0  0  0  0
  2  8  1  0  0  0  0
  2  3  1  6  0  0  0
  4  5  1  0  0  0  0
  4 31  1  0  0  0  0
  4 32  1  0  0  0  0
  5  6  1  0  0  0  0
  5 16  1  0  0  0  0
  6  8  1  0  0  0  0
  6 11  1  0  0  0  0
  6  7  1  6  0  0  0
  8 10  1  0  0  0  0
  8  9  1  6  0  0  0
 10 33  1  0  0  0  0
 11 14  1  0  0  0  0
 11 12  1  1  0  0  0
 11 13  1  0  0  0  0
 13 34  1  0  0  0  0
 14 15  1  0  0  0  0
 14 35  1  0  0  0  0
 14 36  1  0  0  0  0
 15 16  1  0  0  0  0
 15 37  1  0  0  0  0
 15 38  1  0  0  0  0
 16 18  1  0  0  0  0
 16 17  1  6  0  0  0
 18 19  1  0  0  0  0
 18 39  1  0  0  0  0
 18 40  1  0  0  0  0
 19 20  1  0  0  0  0
 19 41  1  0  0  0  0
 19 42  1  0  0  0  0
 20 21  2  0  0  0  0
 20 25  1  0  0  0  0
 21 22  1  0  0  0  0
 21 43  1  0  0  0  0
 22 23  2  0  0  0  0
 22 44  1  0  0  0  0
 23 24  1  0  0  0  0
 23 26  1  0  0  0  0
 24 25  2  0  0  0  0
 24 45  1  0  0  0  0
 25 46  1  0  0  0  0
 26 27  1  0  0  0  0
 26 28  1  0  0  0  0
 26 29  1  0  0  0  0
 27 47  1  0  0  0  0
 27 48  1  0  0  0  0
 27 49  1  0  0  0  0
 28 50  1  0  0  0  0
 28 51  1  0  0  0  0
 28 52  1  0  0  0  0
 29 53  1  0  0  0  0
 29 54  1  0  0  0  0
 29 55  1  0  0  0  0
M  END
$$$$
