HN7
 OpenBabel04121316133D

 54 56  0  0  1  0  0  0  0  0999 V2000
    0.9441   -0.0219    0.2246 O   0  0  0  0  0  0  0  0  0  0  0  0
    2.3616   -0.0342    0.1912 C   0  0  2  0  0  0  0  0  0  0  0  0
    2.6652   -0.6719   -0.6505 H   0  0  0  0  0  0  0  0  0  0  0  0
    3.0169   -0.5667    1.4958 C   0  0  0  0  0  0  0  0  0  0  0  0
    4.0555    0.4138    1.8869 N   0  0  3  0  0  0  0  0  0  0  0  0
    4.3595    1.1331    0.6299 C   0  0  1  0  0  0  0  0  0  0  0  0
    4.9465    0.5051   -0.0595 H   0  0  0  0  0  0  0  0  0  0  0  0
    2.9862    1.3442   -0.0311 C   0  0  2  0  0  0  0  0  0  0  0  0
    3.0403    1.5499   -1.1074 H   0  0  0  0  0  0  0  0  0  0  0  0
    2.2385    2.4046    0.5640 O   0  0  0  0  0  0  0  0  0  0  0  0
    5.1481    2.4020    0.9189 C   0  0  2  0  0  0  0  0  0  0  0  0
    4.6427    3.0365    1.6592 H   0  0  0  0  0  0  0  0  0  0  0  0
    5.3131    3.1768   -0.2684 O   0  0  0  0  0  0  0  0  0  0  0  0
    6.5129    2.0186    1.4662 C   0  0  0  0  0  0  0  0  0  0  0  0
    6.4780    0.9026    2.4952 C   0  0  0  0  0  0  0  0  0  0  0  0
    5.2739   -0.0873    2.5585 C   0  0  1  0  0  0  0  0  0  0  0  0
    5.5512   -0.9995    2.0137 H   0  0  0  0  0  0  0  0  0  0  0  0
    5.2476   -0.5413    4.0488 C   0  0  0  0  0  0  0  0  0  0  0  0
    5.2451    0.5892    5.0675 C   0  0  0  0  0  0  0  0  0  0  0  0
    4.9022    1.7434    4.8762 O   0  0  0  0  0  0  0  0  0  0  0  0
    5.6660    0.2531    6.4256 C   0  0  0  0  0  0  0  0  0  0  0  0
    4.6220    0.0242    7.3065 C   0  0  0  0  0  0  0  0  0  0  0  0
    4.8715    0.1065    8.6607 C   0  0  0  0  0  0  0  0  0  0  0  0
    6.1793    0.2997    9.1415 C   0  0  0  0  0  0  0  0  0  0  0  0
    7.2418    0.3523    8.2173 C   0  0  0  0  0  0  0  0  0  0  0  0
    6.9844    0.4003    6.8518 C   0  0  0  0  0  0  0  0  0  0  0  0
    6.3873    0.5110   10.6415 C   0  0  0  0  0  0  0  0  0  0  0  0
    5.6335    1.7833   11.0920 C   0  0  0  0  0  0  0  0  0  0  0  0
    5.8367   -0.7092   11.3992 C   0  0  0  0  0  0  0  0  0  0  0  0
    7.8743    0.6890   10.9963 C   0  0  0  0  0  0  0  0  0  0  0  0
    0.6980    0.6806    0.8562 H   0  0  0  0  0  0  0  0  0  0  0  0
    3.4230   -1.5616    1.2714 H   0  0  0  0  0  0  0  0  0  0  0  0
    2.2733   -0.6674    2.2899 H   0  0  0  0  0  0  0  0  0  0  0  0
    2.8286    3.1803    0.6302 H   0  0  0  0  0  0  0  0  0  0  0  0
    4.6432    2.9105   -0.9204 H   0  0  0  0  0  0  0  0  0  0  0  0
    6.9446    2.9048    1.9547 H   0  0  0  0  0  0  0  0  0  0  0  0
    7.2170    1.7595    0.6708 H   0  0  0  0  0  0  0  0  0  0  0  0
    6.5859    1.4486    3.4318 H   0  0  0  0  0  0  0  0  0  0  0  0
    7.3951    0.3046    2.4516 H   0  0  0  0  0  0  0  0  0  0  0  0
    4.4578   -1.2563    4.2908 H   0  0  0  0  0  0  0  0  0  0  0  0
    6.2052   -1.0651    4.2077 H   0  0  0  0  0  0  0  0  0  0  0  0
    3.6106   -0.1064    6.9365 H   0  0  0  0  0  0  0  0  0  0  0  0
    4.0183    0.0797    9.3331 H   0  0  0  0  0  0  0  0  0  0  0  0
    8.2778    0.4301    8.5388 H   0  0  0  0  0  0  0  0  0  0  0  0
    7.7984    0.6157    6.1644 H   0  0  0  0  0  0  0  0  0  0  0  0
    4.5534    1.7131   10.9167 H   0  0  0  0  0  0  0  0  0  0  0  0
    5.9893    2.6697   10.5523 H   0  0  0  0  0  0  0  0  0  0  0  0
    5.7726    1.9636   12.1635 H   0  0  0  0  0  0  0  0  0  0  0  0
    4.7609   -0.8453   11.2366 H   0  0  0  0  0  0  0  0  0  0  0  0
    5.9863   -0.6041   12.4776 H   0  0  0  0  0  0  0  0  0  0  0  0
    6.3322   -1.6292   11.0683 H   0  0  0  0  0  0  0  0  0  0  0  0
    8.3000    1.5621   10.4844 H   0  0  0  0  0  0  0  0  0  0  0  0
    8.4559   -0.1925   10.7006 H   0  0  0  0  0  0  0  0  0  0  0  0
    8.0208    0.8374   12.0692 H   0  0  0  0  0  0  0  0  0  0  0  0
  1  2  1  0  0  0  0
  1 31  1  0  0  0  0
  2  4  1  0  0  0  0
  2  8  1  0  0  0  0
  2  3  1  6  0  0  0
  4  5  1  0  0  0  0
  4 32  1  0  0  0  0
  4 33  1  0  0  0  0
  5  6  1  0  0  0  0
  5 16  1  0  0  0  0
  6  8  1  0  0  0  0
  6 11  1  0  0  0  0
  6  7  1  6  0  0  0
  8 10  1  0  0  0  0
  8  9  1  6  0  0  0
 10 34  1  0  0  0  0
 11 14  1  0  0  0  0
 11 12  1  1  0  0  0
 11 13  1  0  0  0  0
 13 35  1  0  0  0  0
 14 15  1  0  0  0  0
 14 36  1  0  0  0  0
 14 37  1  0  0  0  0
 15 16  1  0  0  0  0
 15 38  1  0  0  0  0
 15 39  1  0  0  0  0
 16 18  1  0  0  0  0
 16 17  1  6  0  0  0
 18 19  1  0  0  0  0
 18 40  1  0  0  0  0
 18 41  1  0  0  0  0
 19 20  2  0  0  0  0
 19 21  1  0  0  0  0
 21 22  2  0  0  0  0
 21 26  1  0  0  0  0
 22 23  1  0  0  0  0
 22 42  1  0  0  0  0
 23 24  2  0  0  0  0
 23 43  1  0  0  0  0
 24 25  1  0  0  0  0
 24 27  1  0  0  0  0
 25 26  2  0  0  0  0
 25 44  1  0  0  0  0
 26 45  1  0  0  0  0
 27 28  1  0  0  0  0
 27 29  1  0  0  0  0
 27 30  1  0  0  0  0
 28 46  1  0  0  0  0
 28 47  1  0  0  0  0
 28 48  1  0  0  0  0
 29 49  1  0  0  0  0
 29 50  1  0  0  0  0
 29 51  1  0  0  0  0
 30 52  1  0  0  0  0
 30 53  1  0  0  0  0
 30 54  1  0  0  0  0
M  END
$$$$
