HNL
 OpenBabel04121316133D

 27 28  0  0  1  0  0  0  0  0999 V2000
    1.0468    0.2335   -0.1511 C   0  0  0  0  0  0  0  0  0  0  0  0
    2.4500   -0.0041    0.1288 N   0  0  0  0  0  0  0  0  0  0  0  0
    2.9773    1.0839    0.9452 C   0  0  0  0  0  0  0  0  0  0  0  0
    4.3650    0.6046    1.2725 C   0  0  0  0  0  0  0  0  0  0  0  0
    4.1844   -0.8923    1.4759 C   0  0  0  0  0  0  0  0  0  0  0  0
    2.8640   -1.3003    0.7522 C   0  0  1  0  0  0  0  0  0  0  0  0
    3.1226   -1.9960   -0.0580 H   0  0  0  0  0  0  0  0  0  0  0  0
    1.8645   -2.0274    1.6586 C   0  0  0  0  0  0  0  0  0  0  0  0
    0.5089   -2.1683    1.3455 C   0  0  0  0  0  0  0  0  0  0  0  0
   -0.4234   -2.5700    2.2889 C   0  0  0  0  0  0  0  0  0  0  0  0
    0.0568   -2.9728    3.5142 C   0  0  0  0  0  0  0  0  0  0  0  0
    1.3593   -3.0956    3.7910 N   0  0  0  0  0  0  0  0  0  0  0  0
    2.2311   -2.6542    2.8492 C   0  0  0  0  0  0  0  0  0  0  0  0
   -0.8053   -3.2806    4.5210 O   0  0  0  0  0  0  0  0  0  0  0  0
    0.8703    1.1987   -0.6342 H   0  0  0  0  0  0  0  0  0  0  0  0
    0.4535    0.2551    0.7714 H   0  0  0  0  0  0  0  0  0  0  0  0
    0.6655   -0.5111   -0.8550 H   0  0  0  0  0  0  0  0  0  0  0  0
    2.3866    1.2170    1.8594 H   0  0  0  0  0  0  0  0  0  0  0  0
    2.9999    2.0326    0.3981 H   0  0  0  0  0  0  0  0  0  0  0  0
    4.7566    1.0964    2.1692 H   0  0  0  0  0  0  0  0  0  0  0  0
    5.0582    0.8005    0.4466 H   0  0  0  0  0  0  0  0  0  0  0  0
    4.1592   -1.0550    2.5567 H   0  0  0  0  0  0  0  0  0  0  0  0
    5.0512   -1.4367    1.0847 H   0  0  0  0  0  0  0  0  0  0  0  0
    0.1104   -1.9168    0.3717 H   0  0  0  0  0  0  0  0  0  0  0  0
   -1.4767   -2.5360    2.0526 H   0  0  0  0  0  0  0  0  0  0  0  0
    3.2688   -2.8417    3.1073 H   0  0  0  0  0  0  0  0  0  0  0  0
   -1.6974   -3.0739    4.2058 H   0  0  0  0  0  0  0  0  0  0  0  0
  1  2  1  0  0  0  0
  1 15  1  0  0  0  0
  1 16  1  0  0  0  0
  1 17  1  0  0  0  0
  2  3  1  0  0  0  0
  2  6  1  0  0  0  0
  3  4  1  0  0  0  0
  3 18  1  0  0  0  0
  3 19  1  0  0  0  0
  4  5  1  0  0  0  0
  4 20  1  0  0  0  0
  4 21  1  0  0  0  0
  5  6  1  0  0  0  0
  5 22  1  0  0  0  0
  5 23  1  0  0  0  0
  6  8  1  0  0  0  0
  6  7  1  6  0  0  0
  8  9  2  0  0  0  0
  8 13  1  0  0  0  0
  9 10  1  0  0  0  0
  9 24  1  0  0  0  0
 10 11  2  0  0  0  0
 10 25  1  0  0  0  0
 11 12  1  0  0  0  0
 11 14  1  0  0  0  0
 12 13  2  0  0  0  0
 13 26  1  0  0  0  0
 14 27  1  0  0  0  0
M  END
$$$$
