HOA
 OpenBabel04121316133D

  5  4  0  0  0  0  0  0  0  0999 V2000
    0.9608   -0.0266    0.0101 N   0  0  0  0  0  0  0  0  0  0  0  0
    2.3914   -0.2835    0.0363 O   0  0  0  0  0  0  0  0  0  0  0  0
    0.5948   -0.8392    0.5115 H   0  0  0  0  0  0  0  0  0  0  0  0
    0.7353   -0.1897   -0.9757 H   0  0  0  0  0  0  0  0  0  0  0  0
    2.7203    0.4286    0.6231 H   0  0  0  0  0  0  0  0  0  0  0  0
  1  2  1  0  0  0  0
  1  3  1  0  0  0  0
  1  4  1  0  0  0  0
  2  5  1  0  0  0  0
M  END
$$$$
