HP8
 OpenBabel04121316133D

 51 54  0  0  1  0  0  0  0  0999 V2000
    2.9051    0.2654   -1.4131 O   0  0  0  0  0  0  0  0  0  0  0  0
    2.4502    0.0645   -0.0723 C   0  0  2  0  0  0  0  0  0  0  0  0
    1.3573    0.0495   -0.1069 H   0  0  0  0  0  0  0  0  0  0  0  0
    2.9861    1.1669    0.8289 C   0  0  1  0  0  0  0  0  0  0  0  0
    3.1201    2.1035    0.2767 H   0  0  0  0  0  0  0  0  0  0  0  0
    2.1439    1.4151    2.0833 C   0  0  0  0  0  0  0  0  0  0  0  0
    0.8180    1.8787    1.8213 O   0  0  0  0  0  0  0  0  0  0  0  0
   -0.0771    2.0609    3.1786 S   0  0  0  0  0  0  0  0  0  0  0  0
   -0.2213    0.7342    3.7315 O   0  0  0  0  0  0  0  0  0  0  0  0
    0.5367    3.1439    3.9179 O   0  0  0  0  0  0  0  0  0  0  0  0
   -1.5845    2.5573    2.6785 N   0  0  0  0  0  0  0  0  0  0  0  0
   -2.5555    2.8382    3.6508 C   0  0  0  0  0  0  0  0  0  0  0  0
   -2.4081    2.6419    4.8553 O   0  0  0  0  0  0  0  0  0  0  0  0
   -3.8494    3.3273    3.1681 C   0  0  0  0  0  0  0  0  0  0  0  0
   -4.8948    2.4146    2.9792 C   0  0  0  0  0  0  0  0  0  0  0  0
   -6.2097    2.8813    2.8833 C   0  0  0  0  0  0  0  0  0  0  0  0
   -6.4606    4.2496    2.7639 C   0  0  0  0  0  0  0  0  0  0  0  0
   -5.4014    5.1459    2.8720 C   0  0  0  0  0  0  0  0  0  0  0  0
   -4.1158    4.6928    3.1658 C   0  0  0  0  0  0  0  0  0  0  0  0
   -3.1321    5.5942    3.4600 O   0  0  0  0  0  0  0  0  0  0  0  0
   -5.5881    6.4908    2.7143 O   0  0  0  0  0  0  0  0  0  0  0  0
    4.2913    0.6906    1.2305 O   0  0  0  0  0  0  0  0  0  0  0  0
    4.2318   -0.7457    1.3912 C   0  0  2  0  0  0  0  0  0  0  0  0
    5.1699   -1.1809    1.0234 H   0  0  0  0  0  0  0  0  0  0  0  0
    3.0167   -1.2127    0.5569 C   0  0  2  0  0  0  0  0  0  0  0  0
    2.2222   -1.6440    1.1684 H   0  0  0  0  0  0  0  0  0  0  0  0
    3.3741   -2.1926   -0.4176 O   0  0  0  0  0  0  0  0  0  0  0  0
    4.1752   -1.0816    2.8141 N   0  0  0  0  0  0  0  0  0  0  0  0
    3.3866   -2.0458    3.3957 C   0  0  0  0  0  0  0  0  0  0  0  0
    3.5347   -2.1032    4.6980 N   0  0  0  0  0  0  0  0  0  0  0  0
    4.4906   -1.1575    4.9805 C   0  0  0  0  0  0  0  0  0  0  0  0
    4.9216   -0.5220    3.8255 C   0  0  0  0  0  0  0  0  0  0  0  0
    5.8634    0.4326    3.7465 N   0  0  0  0  0  0  0  0  0  0  0  0
    6.3529    0.7343    4.9692 C   0  0  0  0  0  0  0  0  0  0  0  0
    6.0249    0.1979    6.1664 N   0  0  0  0  0  0  0  0  0  0  0  0
    5.0834   -0.7695    6.1921 C   0  0  0  0  0  0  0  0  0  0  0  0
    4.7548   -1.3587    7.3929 N   0  0  0  0  0  0  0  0  0  0  0  0
    3.8658    0.1108   -1.4362 H   0  0  0  0  0  0  0  0  0  0  0  0
    2.6712    2.1387    2.7174 H   0  0  0  0  0  0  0  0  0  0  0  0
    2.0729    0.4912    2.6638 H   0  0  0  0  0  0  0  0  0  0  0  0
   -1.7107    2.7886    1.7014 H   0  0  0  0  0  0  0  0  0  0  0  0
   -4.6996    1.3452    2.9561 H   0  0  0  0  0  0  0  0  0  0  0  0
   -7.0395    2.1778    2.9243 H   0  0  0  0  0  0  0  0  0  0  0  0
   -7.4796    4.5908    2.6045 H   0  0  0  0  0  0  0  0  0  0  0  0
   -3.5745    6.4640    3.5243 H   0  0  0  0  0  0  0  0  0  0  0  0
   -6.4860    6.6357    2.3653 H   0  0  0  0  0  0  0  0  0  0  0  0
    3.6823   -2.9957    0.0394 H   0  0  0  0  0  0  0  0  0  0  0  0
    2.7033   -2.6833    2.8514 H   0  0  0  0  0  0  0  0  0  0  0  0
    7.1143    1.5092    4.9981 H   0  0  0  0  0  0  0  0  0  0  0  0
    5.1585   -0.9892    8.2375 H   0  0  0  0  0  0  0  0  0  0  0  0
    3.9924   -2.0226    7.4071 H   0  0  0  0  0  0  0  0  0  0  0  0
  1 38  1  0  0  0  0
  2  4  1  0  0  0  0
  2 25  1  0  0  0  0
  2  3  1  1  0  0  0
  2  1  1  0  0  0  0
  4  5  1  6  0  0  0
  4  6  1  0  0  0  0
  4 22  1  0  0  0  0
  6  7  1  0  0  0  0
  6 39  1  0  0  0  0
  6 40  1  0  0  0  0
  7  8  1  0  0  0  0
  8  9  2  0  0  0  0
  8 10  2  0  0  0  0
  8 11  1  0  0  0  0
 11 12  1  0  0  0  0
 11 41  1  0  0  0  0
 12 13  2  0  0  0  0
 12 14  1  0  0  0  0
 14 15  2  0  0  0  0
 14 19  1  0  0  0  0
 15 16  1  0  0  0  0
 15 42  1  0  0  0  0
 16 17  2  0  0  0  0
 16 43  1  0  0  0  0
 17 18  1  0  0  0  0
 17 44  1  0  0  0  0
 18 19  2  0  0  0  0
 18 21  1  0  0  0  0
 19 20  1  0  0  0  0
 20 45  1  0  0  0  0
 21 46  1  0  0  0  0
 22 23  1  0  0  0  0
 23 25  1  0  0  0  0
 23 28  1  0  0  0  0
 23 24  1  6  0  0  0
 25 26  1  1  0  0  0
 25 27  1  0  0  0  0
 27 47  1  0  0  0  0
 28 29  1  0  0  0  0
 28 32  1  0  0  0  0
 29 30  2  0  0  0  0
 29 48  1  0  0  0  0
 30 31  1  0  0  0  0
 31 32  2  0  0  0  0
 31 36  1  0  0  0  0
 32 33  1  0  0  0  0
 33 34  2  0  0  0  0
 34 35  1  0  0  0  0
 34 49  1  0  0  0  0
 35 36  2  0  0  0  0
 36 37  1  0  0  0  0
 37 50  1  0  0  0  0
 37 51  1  0  0  0  0
M  END
$$$$
