HPI
 OpenBabel04121316133D

 59 60  0  0  1  0  0  0  0  0999 V2000
    0.9362    5.2698   -3.5282 O   0  0  0  0  0  0  0  0  0  0  0  0
    0.6438    4.0379   -3.9709 C   0  0  0  0  0  0  0  0  0  0  0  0
   -0.5427    3.6845   -4.0709 O   0  0  0  0  0  0  0  0  0  0  0  0
    1.8299    3.2572   -4.4218 C   0  0  0  0  0  0  0  0  0  0  0  0
    1.4827    1.8594   -5.1047 C   0  0  1  0  0  0  0  0  0  0  0  0
    0.7037    1.3868   -4.5153 H   0  0  0  0  0  0  0  0  0  0  0  0
    0.9326    2.1720   -6.5431 C   0  0  0  0  0  0  0  0  0  0  0  0
    1.3391    1.7132   -7.6049 O   0  0  0  0  0  0  0  0  0  0  0  0
   -0.1184    3.0389   -6.6018 N   0  0  0  0  0  0  0  0  0  0  0  0
    2.6123    0.8495   -5.0998 N   0  0  0  0  0  0  0  0  0  0  0  0
    2.8504   -0.1807   -6.0108 C   0  0  0  0  0  0  0  0  0  0  0  0
    1.9366   -0.6807   -6.6581 O   0  0  0  0  0  0  0  0  0  0  0  0
    4.4030   -0.5465   -6.3560 C   0  0  1  0  0  0  0  0  0  0  0  0
    4.8634    0.1321   -7.0901 H   0  0  0  0  0  0  0  0  0  0  0  0
    5.3402   -0.5748   -5.1746 N   0  0  0  0  0  0  0  0  0  0  0  0
    5.8131    0.7404   -4.6384 C   0  0  2  0  0  0  0  0  0  0  0  0
    6.8724    0.6182   -4.3693 H   0  0  0  0  0  0  0  0  0  0  0  0
    5.1312    0.9383   -3.2516 C   0  0  0  0  0  0  0  0  0  0  0  0
    4.3996    1.8733   -2.9725 O   0  0  0  0  0  0  0  0  0  0  0  0
    5.2871   -0.0981   -2.3922 O   0  0  0  0  0  0  0  0  0  0  0  0
    5.8174    2.0051   -5.5637 C   0  0  0  0  0  0  0  0  0  0  0  0
    4.4612    2.3933   -6.0548 C   0  0  0  0  0  0  0  0  0  0  0  0
    4.1515    3.4429   -7.0229 C   0  0  0  0  0  0  0  0  0  0  0  0
    3.7428    3.1074   -8.3208 C   0  0  0  0  0  0  0  0  0  0  0  0
    3.4655    4.1283   -9.1917 C   0  0  0  0  0  0  0  0  0  0  0  0
    3.3924    5.4282   -8.6905 C   0  0  0  0  0  0  0  0  0  0  0  0
    3.5185    5.6984   -7.3279 C   0  0  0  0  0  0  0  0  0  0  0  0
    4.0138    4.7208   -6.5118 C   0  0  0  0  0  0  0  0  0  0  0  0
    4.3332   -1.8324   -7.2107 C   0  0  0  0  0  0  0  0  0  0  0  0
    5.6829   -2.3996   -7.5521 C   0  0  0  0  0  0  0  0  0  0  0  0
    6.2563   -3.3060   -6.6557 C   0  0  0  0  0  0  0  0  0  0  0  0
    7.5778   -3.6959   -6.8110 C   0  0  0  0  0  0  0  0  0  0  0  0
    8.2881   -3.2930   -7.9392 C   0  0  0  0  0  0  0  0  0  0  0  0
    7.6809   -2.4879   -8.9038 C   0  0  0  0  0  0  0  0  0  0  0  0
    6.4008   -1.9850   -8.6808 C   0  0  0  0  0  0  0  0  0  0  0  0
    0.0655    5.6815   -3.3403 H   0  0  0  0  0  0  0  0  0  0  0  0
    2.5176    3.1913   -3.5710 H   0  0  0  0  0  0  0  0  0  0  0  0
    2.2614    3.9434   -5.1468 H   0  0  0  0  0  0  0  0  0  0  0  0
   -0.6808    3.2216   -5.7757 H   0  0  0  0  0  0  0  0  0  0  0  0
   -0.5593    3.1378   -7.5049 H   0  0  0  0  0  0  0  0  0  0  0  0
    3.3115    0.9929   -4.3954 H   0  0  0  0  0  0  0  0  0  0  0  0
    6.1881   -1.0413   -5.5205 H   0  0  0  0  0  0  0  0  0  0  0  0
    5.7456   -0.8589   -2.7997 H   0  0  0  0  0  0  0  0  0  0  0  0
    6.4649    1.8572   -6.4302 H   0  0  0  0  0  0  0  0  0  0  0  0
    6.1826    2.8683   -4.9965 H   0  0  0  0  0  0  0  0  0  0  0  0
    3.9252    2.6552   -5.1615 H   0  0  0  0  0  0  0  0  0  0  0  0
    3.9997    1.5908   -6.5731 H   0  0  0  0  0  0  0  0  0  0  0  0
    3.5870    2.0693   -8.6349 H   0  0  0  0  0  0  0  0  0  0  0  0
    3.3035    3.8963  -10.2379 H   0  0  0  0  0  0  0  0  0  0  0  0
    3.2442    6.2508   -9.3724 H   0  0  0  0  0  0  0  0  0  0  0  0
    3.2746    6.6588   -6.8933 H   0  0  0  0  0  0  0  0  0  0  0  0
    4.1763    4.8905   -5.4484 H   0  0  0  0  0  0  0  0  0  0  0  0
    3.8106   -1.6043   -8.1526 H   0  0  0  0  0  0  0  0  0  0  0  0
    3.7291   -2.5781   -6.6885 H   0  0  0  0  0  0  0  0  0  0  0  0
    5.6749   -3.6645   -5.8088 H   0  0  0  0  0  0  0  0  0  0  0  0
    8.0453   -4.3179   -6.0544 H   0  0  0  0  0  0  0  0  0  0  0  0
    9.3160   -3.6171   -8.0705 H   0  0  0  0  0  0  0  0  0  0  0  0
    8.2105   -2.2444   -9.8215 H   0  0  0  0  0  0  0  0  0  0  0  0
    5.9742   -1.2746   -9.3875 H   0  0  0  0  0  0  0  0  0  0  0  0
  1  2  1  0  0  0  0
  1 36  1  0  0  0  0
  2  3  2  0  0  0  0
  2  4  1  0  0  0  0
  4  5  1  0  0  0  0
  4 37  1  0  0  0  0
  4 38  1  0  0  0  0
  5  6  1  1  0  0  0
  5  7  1  0  0  0  0
  5 10  1  0  0  0  0
  7  8  2  0  0  0  0
  7  9  1  0  0  0  0
  9 39  1  0  0  0  0
  9 40  1  0  0  0  0
 10 11  1  0  0  0  0
 10 41  1  0  0  0  0
 11 12  2  0  0  0  0
 11 13  1  0  0  0  0
 13 14  1  6  0  0  0
 13 15  1  0  0  0  0
 13 29  1  0  0  0  0
 15 42  1  0  0  0  0
 16 18  1  0  0  0  0
 16 21  1  0  0  0  0
 16 17  1  1  0  0  0
 16 15  1  0  0  0  0
 18 19  2  0  0  0  0
 18 20  1  0  0  0  0
 20 43  1  0  0  0  0
 21 22  1  0  0  0  0
 21 44  1  0  0  0  0
 21 45  1  0  0  0  0
 22 23  1  0  0  0  0
 22 46  1  0  0  0  0
 22 47  1  0  0  0  0
 23 24  2  0  0  0  0
 23 28  1  0  0  0  0
 24 25  1  0  0  0  0
 24 48  1  0  0  0  0
 25 26  2  0  0  0  0
 25 49  1  0  0  0  0
 26 27  1  0  0  0  0
 26 50  1  0  0  0  0
 27 28  2  0  0  0  0
 27 51  1  0  0  0  0
 28 52  1  0  0  0  0
 29 30  1  0  0  0  0
 29 53  1  0  0  0  0
 29 54  1  0  0  0  0
 30 31  2  0  0  0  0
 30 35  1  0  0  0  0
 31 32  1  0  0  0  0
 31 55  1  0  0  0  0
 32 33  2  0  0  0  0
 32 56  1  0  0  0  0
 33 34  1  0  0  0  0
 33 57  1  0  0  0  0
 34 35  2  0  0  0  0
 34 58  1  0  0  0  0
 35 59  1  0  0  0  0
M  END
$$$$
