HPM
 OpenBabel04121316133D

 70 74  0  0  1  0  0  0  0  0999 V2000
   -2.2550   -7.0363   -1.6687 C   0  0  0  0  0  0  0  0  0  0  0  0
   -3.0404   -6.4138   -2.6949 O   0  0  0  0  0  0  0  0  0  0  0  0
   -3.5086   -5.1896   -2.3011 C   0  0  0  0  0  0  0  0  0  0  0  0
   -4.8641   -5.0303   -2.2167 C   0  0  0  0  0  0  0  0  0  0  0  0
   -5.3672   -3.8689   -1.6002 C   0  0  0  0  0  0  0  0  0  0  0  0
   -6.6810   -3.7209   -1.2198 C   0  0  0  0  0  0  0  0  0  0  0  0
   -7.0724   -2.6305   -0.5339 N   0  0  0  0  0  0  0  0  0  0  0  0
   -6.2026   -1.6562   -0.2870 C   0  0  0  0  0  0  0  0  0  0  0  0
   -4.9314   -1.6767   -0.6483 N   0  0  0  0  0  0  0  0  0  0  0  0
   -4.5354   -2.7895   -1.2634 C   0  0  0  0  0  0  0  0  0  0  0  0
   -3.2115   -2.8900   -1.5634 C   0  0  0  0  0  0  0  0  0  0  0  0
   -2.6990   -4.0957   -2.0268 C   0  0  0  0  0  0  0  0  0  0  0  0
   -1.4023   -4.2751   -2.3101 O   0  0  0  0  0  0  0  0  0  0  0  0
   -0.4870   -3.3839   -1.7118 C   0  0  0  0  0  0  0  0  0  0  0  0
    0.8395   -4.0536   -1.9501 C   0  0  2  0  0  0  0  0  0  0  0  0
    1.5412   -3.8751   -1.1335 H   0  0  0  0  0  0  0  0  0  0  0  0
    1.3378   -3.4809   -3.2562 C   0  0  0  0  0  0  0  0  0  0  0  0
    2.0197   -2.1789   -3.0720 N   0  0  0  0  0  0  0  0  0  0  0  0
    3.4262   -2.4808   -3.3710 C   0  0  0  0  0  0  0  0  0  0  0  0
    3.5357   -2.9655   -4.8321 C   0  0  0  0  0  0  0  0  0  0  0  0
    3.1072   -1.8552   -5.7732 C   0  0  0  0  0  0  0  0  0  0  0  0
    1.6980   -1.3554   -5.4394 C   0  0  0  0  0  0  0  0  0  0  0  0
    1.5711   -1.0631   -3.9427 C   0  0  0  0  0  0  0  0  0  0  0  0
    0.7273   -5.4908   -2.0686 O   0  0  0  0  0  0  0  0  0  0  0  0
   -7.6219   -4.7283   -1.4965 N   0  0  0  0  0  0  0  0  0  0  0  0
   -8.9688   -4.7179   -1.1693 C   0  0  0  0  0  0  0  0  0  0  0  0
   -9.7617   -5.8502   -1.1796 C   0  0  0  0  0  0  0  0  0  0  0  0
  -11.0531   -5.8789   -0.7766 N   0  0  0  0  0  0  0  0  0  0  0  0
  -11.5412   -4.7097   -0.3354 C   0  0  0  0  0  0  0  0  0  0  0  0
  -10.8729   -3.5720   -0.3082 N   0  0  0  0  0  0  0  0  0  0  0  0
   -9.6213   -3.5925   -0.7301 C   0  0  0  0  0  0  0  0  0  0  0  0
  -12.8403   -4.6878    0.1190 N   0  0  0  0  0  0  0  0  0  0  0  0
  -13.4291   -3.5529    0.6231 C   0  0  0  0  0  0  0  0  0  0  0  0
  -12.9163   -2.4295    0.7184 O   0  0  0  0  0  0  0  0  0  0  0  0
  -14.8270   -3.6733    1.0839 C   0  0  0  0  0  0  0  0  0  0  0  0
  -15.4848   -4.9030    1.1654 C   0  0  0  0  0  0  0  0  0  0  0  0
  -16.8386   -4.9397    1.4814 C   0  0  0  0  0  0  0  0  0  0  0  0
  -17.5029   -3.7697    1.8436 C   0  0  0  0  0  0  0  0  0  0  0  0
  -16.8190   -2.5576    1.8867 C   0  0  0  0  0  0  0  0  0  0  0  0
  -15.5005   -2.4989    1.4515 C   0  0  0  0  0  0  0  0  0  0  0  0
   -1.9074   -8.0015   -2.0489 H   0  0  0  0  0  0  0  0  0  0  0  0
   -2.8534   -7.2167   -0.7685 H   0  0  0  0  0  0  0  0  0  0  0  0
   -1.3697   -6.4632   -1.3940 H   0  0  0  0  0  0  0  0  0  0  0  0
   -5.4872   -5.8417   -2.5674 H   0  0  0  0  0  0  0  0  0  0  0  0
   -6.5736   -0.7903    0.2484 H   0  0  0  0  0  0  0  0  0  0  0  0
   -2.5814   -2.0236   -1.3951 H   0  0  0  0  0  0  0  0  0  0  0  0
   -0.6456   -3.2171   -0.6418 H   0  0  0  0  0  0  0  0  0  0  0  0
   -0.5606   -2.4193   -2.2328 H   0  0  0  0  0  0  0  0  0  0  0  0
    0.5972   -3.4938   -4.0652 H   0  0  0  0  0  0  0  0  0  0  0  0
    2.0434   -4.2647   -3.5333 H   0  0  0  0  0  0  0  0  0  0  0  0
    3.7593   -3.2532   -2.6641 H   0  0  0  0  0  0  0  0  0  0  0  0
    4.0603   -1.6096   -3.1762 H   0  0  0  0  0  0  0  0  0  0  0  0
    2.8805   -3.8125   -5.0798 H   0  0  0  0  0  0  0  0  0  0  0  0
    4.5380   -3.3461   -5.0195 H   0  0  0  0  0  0  0  0  0  0  0  0
    3.1341   -2.2216   -6.8024 H   0  0  0  0  0  0  0  0  0  0  0  0
    3.8231   -1.0349   -5.6741 H   0  0  0  0  0  0  0  0  0  0  0  0
    0.9407   -2.0937   -5.7290 H   0  0  0  0  0  0  0  0  0  0  0  0
    1.4846   -0.4556   -6.0298 H   0  0  0  0  0  0  0  0  0  0  0  0
    0.5502   -0.7348   -3.7035 H   0  0  0  0  0  0  0  0  0  0  0  0
    2.1945   -0.1804   -3.7228 H   0  0  0  0  0  0  0  0  0  0  0  0
    1.5484   -5.8457   -2.4471 H   0  0  0  0  0  0  0  0  0  0  0  0
   -7.2829   -5.5716   -1.9285 H   0  0  0  0  0  0  0  0  0  0  0  0
   -9.3669   -6.8068   -1.5125 H   0  0  0  0  0  0  0  0  0  0  0  0
   -9.1783   -2.6093   -0.6913 H   0  0  0  0  0  0  0  0  0  0  0  0
  -13.3008   -5.5739    0.0237 H   0  0  0  0  0  0  0  0  0  0  0  0
  -14.9753   -5.8435    0.9964 H   0  0  0  0  0  0  0  0  0  0  0  0
  -17.3686   -5.8871    1.4581 H   0  0  0  0  0  0  0  0  0  0  0  0
  -18.5554   -3.8063    2.1065 H   0  0  0  0  0  0  0  0  0  0  0  0
  -17.3087   -1.6582    2.2483 H   0  0  0  0  0  0  0  0  0  0  0  0
  -14.9937   -1.5345    1.4049 H   0  0  0  0  0  0  0  0  0  0  0  0
  1  2  1  0  0  0  0
  1 41  1  0  0  0  0
  1 42  1  0  0  0  0
  1 43  1  0  0  0  0
  2  3  1  0  0  0  0
  3  4  2  0  0  0  0
  3 12  1  0  0  0  0
  4  5  1  0  0  0  0
  4 44  1  0  0  0  0
  5  6  2  0  0  0  0
  5 10  1  0  0  0  0
  6  7  1  0  0  0  0
  6 25  1  0  0  0  0
  7  8  2  0  0  0  0
  8  9  1  0  0  0  0
  8 45  1  0  0  0  0
  9 10  2  0  0  0  0
 10 11  1  0  0  0  0
 11 12  2  0  0  0  0
 11 46  1  0  0  0  0
 12 13  1  0  0  0  0
 13 14  1  0  0  0  0
 14 47  1  0  0  0  0
 14 48  1  0  0  0  0
 15 17  1  0  0  0  0
 15 24  1  0  0  0  0
 15 16  1  1  0  0  0
 15 14  1  0  0  0  0
 17 18  1  0  0  0  0
 17 49  1  0  0  0  0
 17 50  1  0  0  0  0
 18 19  1  0  0  0  0
 18 23  1  0  0  0  0
 19 20  1  0  0  0  0
 19 51  1  0  0  0  0
 19 52  1  0  0  0  0
 20 21  1  0  0  0  0
 20 53  1  0  0  0  0
 20 54  1  0  0  0  0
 21 22  1  0  0  0  0
 21 55  1  0  0  0  0
 21 56  1  0  0  0  0
 22 23  1  0  0  0  0
 22 57  1  0  0  0  0
 22 58  1  0  0  0  0
 23 59  1  0  0  0  0
 23 60  1  0  0  0  0
 24 61  1  0  0  0  0
 25 26  1  0  0  0  0
 25 62  1  0  0  0  0
 26 27  2  0  0  0  0
 26 31  1  0  0  0  0
 27 28  1  0  0  0  0
 27 63  1  0  0  0  0
 28 29  2  0  0  0  0
 29 30  1  0  0  0  0
 29 32  1  0  0  0  0
 30 31  2  0  0  0  0
 31 64  1  0  0  0  0
 32 33  1  0  0  0  0
 32 65  1  0  0  0  0
 33 34  2  0  0  0  0
 33 35  1  0  0  0  0
 35 36  2  0  0  0  0
 35 40  1  0  0  0  0
 36 37  1  0  0  0  0
 36 66  1  0  0  0  0
 37 38  2  0  0  0  0
 37 67  1  0  0  0  0
 38 39  1  0  0  0  0
 38 68  1  0  0  0  0
 39 40  2  0  0  0  0
 39 69  1  0  0  0  0
 40 70  1  0  0  0  0
M  END
$$$$
