HPO
 OpenBabel04121316133D

 27 26  0  0  0  0  0  0  0  0999 V2000
    0.9271    0.0494   -0.0473 C   0  0  0  0  0  0  0  0  0  0  0  0
    2.4414    0.0618   -0.0592 C   0  0  0  0  0  0  0  0  0  0  0  0
    2.9429    1.0252   -1.1264 C   0  0  0  0  0  0  0  0  0  0  0  0
    4.4537    1.0464   -1.1414 C   0  0  0  0  0  0  0  0  0  0  0  0
    4.9788    2.0076   -2.2041 C   0  0  0  0  0  0  0  0  0  0  0  0
    6.4713    1.9288   -2.2174 C   0  0  0  0  0  0  0  0  0  0  0  0
    7.0403    1.0173   -1.5864 O   0  0  0  0  0  0  0  0  0  0  0  0
    7.2346    2.8362   -3.1522 C   0  0  0  0  0  0  0  0  0  0  0  0
    9.0338    2.6128   -2.9034 P   0  0  0  0  0  0  0  0  0  0  0  0
    8.9131    2.8493   -1.4060 O   0  0  0  0  0  0  0  0  0  0  0  0
    8.9636    1.0819   -3.4582 O   0  0  0  0  0  0  0  0  0  0  0  0
   10.7346    2.4016   -2.6681 O   0  0  0  0  0  0  0  0  0  0  0  0
    0.5580   -0.6377    0.7178 H   0  0  0  0  0  0  0  0  0  0  0  0
    0.5384   -0.2703   -1.0193 H   0  0  0  0  0  0  0  0  0  0  0  0
    0.5375    1.0499    0.1660 H   0  0  0  0  0  0  0  0  0  0  0  0
    2.8190   -0.9493   -0.2549 H   0  0  0  0  0  0  0  0  0  0  0  0
    2.8180    0.3622    0.9260 H   0  0  0  0  0  0  0  0  0  0  0  0
    2.5669    2.0355   -0.9306 H   0  0  0  0  0  0  0  0  0  0  0  0
    2.5732    0.7186   -2.1121 H   0  0  0  0  0  0  0  0  0  0  0  0
    4.8271    0.0302   -1.3339 H   0  0  0  0  0  0  0  0  0  0  0  0
    4.8392    1.3360   -0.1543 H   0  0  0  0  0  0  0  0  0  0  0  0
    4.6617    3.0337   -1.9979 H   0  0  0  0  0  0  0  0  0  0  0  0
    4.6288    1.7056   -3.1970 H   0  0  0  0  0  0  0  0  0  0  0  0
    6.9680    3.8801   -2.9651 H   0  0  0  0  0  0  0  0  0  0  0  0
    6.9696    2.5738   -4.1811 H   0  0  0  0  0  0  0  0  0  0  0  0
    8.1847    0.5487   -3.2033 H   0  0  0  0  0  0  0  0  0  0  0  0
   11.0392    3.1058   -2.0663 H   0  0  0  0  0  0  0  0  0  0  0  0
  1  2  1  0  0  0  0
  1 13  1  0  0  0  0
  1 14  1  0  0  0  0
  1 15  1  0  0  0  0
  2  3  1  0  0  0  0
  2 16  1  0  0  0  0
  2 17  1  0  0  0  0
  3  4  1  0  0  0  0
  3 18  1  0  0  0  0
  3 19  1  0  0  0  0
  4  5  1  0  0  0  0
  4 20  1  0  0  0  0
  4 21  1  0  0  0  0
  5  6  1  0  0  0  0
  5 22  1  0  0  0  0
  5 23  1  0  0  0  0
  6  7  2  0  0  0  0
  6  8  1  0  0  0  0
  8  9  1  0  0  0  0
  8 24  1  0  0  0  0
  8 25  1  0  0  0  0
  9 10  2  0  0  0  0
  9 11  1  0  0  0  0
  9 12  1  0  0  0  0
 11 26  1  0  0  0  0
 12 27  1  0  0  0  0
M  END
$$$$
