HPT
 OpenBabel04121316133D

 25 25  0  0  0  0  0  0  0  0999 V2000
    1.0586    0.0355    0.0726 O   0  0  0  0  0  0  0  0  0  0  0  0
    2.4767    0.0591    0.1002 C   0  0  0  0  0  0  0  0  0  0  0  0
    2.9843   -0.3707   -1.2597 C   0  0  0  0  0  0  0  0  0  0  0  0
    4.5121   -0.4185   -1.2928 C   0  0  0  0  0  0  0  0  0  0  0  0
    4.9825   -0.9651   -2.6158 C   0  0  0  0  0  0  0  0  0  0  0  0
    5.4562   -0.0616   -3.5370 N   0  0  0  0  0  0  0  0  0  0  0  0
    5.5232    0.9254   -3.3136 H   0  0  0  0  0  0  0  0  0  0  0  0
    5.8482   -0.3965   -4.8015 C   0  0  0  0  0  0  0  0  0  0  0  0
    6.2555    0.4446   -5.6007 O   0  0  0  0  0  0  0  0  0  0  0  0
    5.7525   -1.7166   -5.1197 N   0  0  0  0  0  0  0  0  0  0  0  0
    6.0169   -1.9899   -6.0521 H   0  0  0  0  0  0  0  0  0  0  0  0
    5.3154   -2.7013   -4.2817 C   0  0  0  0  0  0  0  0  0  0  0  0
    5.2455   -3.8714   -4.6447 O   0  0  0  0  0  0  0  0  0  0  0  0
    4.9175   -2.2762   -2.9150 C   0  0  0  0  0  0  0  0  0  0  0  0
    4.4356   -3.3326   -1.9661 C   0  0  0  0  0  0  0  0  0  0  0  0
    0.7490    0.3187    0.9492 H   0  0  0  0  0  0  0  0  0  0  0  0
    2.8227   -0.6297    0.8781 H   0  0  0  0  0  0  0  0  0  0  0  0
    2.8139    1.0721    0.3331 H   0  0  0  0  0  0  0  0  0  0  0  0
    2.6021    0.2958   -2.0426 H   0  0  0  0  0  0  0  0  0  0  0  0
    2.5377   -1.3431   -1.4902 H   0  0  0  0  0  0  0  0  0  0  0  0
    4.8927   -1.0467   -0.4770 H   0  0  0  0  0  0  0  0  0  0  0  0
    4.9224    0.5823   -1.1096 H   0  0  0  0  0  0  0  0  0  0  0  0
    4.4474   -4.3335   -2.4006 H   0  0  0  0  0  0  0  0  0  0  0  0
    3.4035   -3.1531   -1.6575 H   0  0  0  0  0  0  0  0  0  0  0  0
    5.0643   -3.3505   -1.0699 H   0  0  0  0  0  0  0  0  0  0  0  0
  1  2  1  0  0  0  0
  1 16  1  0  0  0  0
  2  3  1  0  0  0  0
  2 17  1  0  0  0  0
  2 18  1  0  0  0  0
  3  4  1  0  0  0  0
  3 19  1  0  0  0  0
  3 20  1  0  0  0  0
  4  5  1  0  0  0  0
  4 21  1  0  0  0  0
  4 22  1  0  0  0  0
  5  6  1  0  0  0  0
  5 14  2  0  0  0  0
  6  7  1  0  0  0  0
  6  8  1  0  0  0  0
  8  9  2  0  0  0  0
  8 10  1  0  0  0  0
 10 11  1  0  0  0  0
 10 12  1  0  0  0  0
 12 13  2  0  0  0  0
 12 14  1  0  0  0  0
 14 15  1  0  0  0  0
 15 23  1  0  0  0  0
 15 24  1  0  0  0  0
 15 25  1  0  0  0  0
M  END
$$$$
