HPZ
 OpenBabel04121316133D

 26 26  0  0  0  0  0  0  0  0999 V2000
    0.7634   -0.0345   -0.0325 O   0  0  0  0  0  0  0  0  0  0  0  0
    1.9854    0.0446   -0.0548 C   0  0  0  0  0  0  0  0  0  0  0  0
    2.7778   -0.4113    1.1314 C   0  0  0  0  0  0  0  0  0  0  0  0
    3.5388    0.4803    1.9052 C   0  0  0  0  0  0  0  0  0  0  0  0
    4.3719   -0.0093    2.9203 C   0  0  0  0  0  0  0  0  0  0  0  0
    4.3565   -1.3662    3.2424 C   0  0  0  0  0  0  0  0  0  0  0  0
    3.5221   -2.2365    2.5413 C   0  0  0  0  0  0  0  0  0  0  0  0
    2.7816   -1.7735    1.4485 C   0  0  0  0  0  0  0  0  0  0  0  0
    2.6784    0.5373   -1.2954 C   0  0  0  0  0  0  0  0  0  0  0  0
    4.0096    0.5125   -1.3537 C   0  0  0  0  0  0  0  0  0  0  0  0
    4.9135    0.9258   -2.3839 C   0  0  0  0  0  0  0  0  0  0  0  0
    6.2647    0.9080   -2.3396 C   0  0  0  0  0  0  0  0  0  0  0  0
    7.2127    0.4711   -1.2351 C   0  0  0  0  0  0  0  0  0  0  0  0
    8.4304    0.5437   -1.4106 O   0  0  0  0  0  0  0  0  0  0  0  0
    6.7927    0.0101   -0.0494 O   0  0  0  0  0  0  0  0  0  0  0  0
    6.9508    1.3678   -3.4772 O   0  0  0  0  0  0  0  0  0  0  0  0
    3.4993    1.5515    1.7240 H   0  0  0  0  0  0  0  0  0  0  0  0
    5.0207    0.6638    3.4795 H   0  0  0  0  0  0  0  0  0  0  0  0
    4.9806   -1.7438    4.0516 H   0  0  0  0  0  0  0  0  0  0  0  0
    3.4462   -3.2772    2.8504 H   0  0  0  0  0  0  0  0  0  0  0  0
    2.2073   -2.4781    0.8521 H   0  0  0  0  0  0  0  0  0  0  0  0
    2.0525    0.8710   -2.1148 H   0  0  0  0  0  0  0  0  0  0  0  0
    4.4593    0.1033   -0.4912 H   0  0  0  0  0  0  0  0  0  0  0  0
    4.4251    1.2931   -3.2883 H   0  0  0  0  0  0  0  0  0  0  0  0
    5.8809   -0.1228    0.2245 H   0  0  0  0  0  0  0  0  0  0  0  0
    6.3366    1.6455   -4.1724 H   0  0  0  0  0  0  0  0  0  0  0  0
  1  2  2  0  0  0  0
  2  3  1  0  0  0  0
  2  9  1  0  0  0  0
  3  4  2  0  0  0  0
  3  8  1  0  0  0  0
  4  5  1  0  0  0  0
  4 17  1  0  0  0  0
  5  6  2  0  0  0  0
  5 18  1  0  0  0  0
  6  7  1  0  0  0  0
  6 19  1  0  0  0  0
  7  8  2  0  0  0  0
  7 20  1  0  0  0  0
  8 21  1  0  0  0  0
  9 10  2  0  0  0  0
  9 22  1  0  0  0  0
 10 11  1  0  0  0  0
 10 23  1  0  0  0  0
 11 12  2  0  0  0  0
 11 24  1  0  0  0  0
 12 13  1  0  0  0  0
 12 16  1  0  0  0  0
 13 14  2  0  0  0  0
 13 15  1  0  0  0  0
 15 25  1  0  0  0  0
 16 26  1  0  0  0  0
M  END
$$$$
