HS1
 OpenBabel04121316133D

 38 38  0  0  1  0  0  0  0  0999 V2000
    2.6926   -1.3446   -3.0292 O   0  0  0  0  0  0  0  0  0  0  0  0
    2.4863    0.0416   -2.8132 C   0  0  0  0  0  0  0  0  0  0  0  0
    3.1216    0.7414   -1.6149 C   0  0  2  0  0  0  0  0  0  0  0  0
    2.7505    0.2134   -0.8127 H   0  0  0  0  0  0  0  0  0  0  0  0
    2.5104    2.1031   -1.3574 C   0  0  0  0  0  0  0  0  0  0  0  0
    1.0226    1.9723   -1.1035 N   0  0  0  0  0  0  0  0  0  0  0  0
    0.4882    1.2417    0.4307 S   0  0  0  0  0  0  0  0  0  0  0  0
    1.1668    2.0094    1.4677 O   0  0  0  0  0  0  0  0  0  0  0  0
   -0.9458    1.1965    0.4006 O   0  0  0  0  0  0  0  0  0  0  0  0
    1.0342   -0.4752    0.5833 C   0  0  0  0  0  0  0  0  0  0  0  0
    2.3728   -0.8285    0.7929 C   0  0  0  0  0  0  0  0  0  0  0  0
    2.8113   -2.0601    0.3017 C   0  0  0  0  0  0  0  0  0  0  0  0
    1.9032   -3.0925    0.1944 C   0  0  0  0  0  0  0  0  0  0  0  0
    0.5591   -2.8252    0.4572 C   0  0  0  0  0  0  0  0  0  0  0  0
    0.1036   -1.5045    0.5120 C   0  0  0  0  0  0  0  0  0  0  0  0
    2.4427   -4.3038   -0.1254 O   0  0  0  0  0  0  0  0  0  0  0  0
    1.5425   -5.3914    0.0021 C   0  0  0  0  0  0  0  0  0  0  0  0
    0.4158    3.3491   -1.2993 C   0  0  0  0  0  0  0  0  0  0  0  0
   -1.0912    3.4282   -1.4368 C   0  0  0  0  0  0  0  0  0  0  0  0
   -1.8010    2.4813   -1.7546 O   0  0  0  0  0  0  0  0  0  0  0  0
   -1.6925    4.6990   -1.3112 N   0  0  0  0  0  0  0  0  0  0  0  0
   -2.9208    4.6970   -1.4550 O   0  0  0  0  0  0  0  0  0  0  0  0
    4.5253    0.6981   -1.4382 O   0  0  0  0  0  0  0  0  0  0  0  0
    2.1056   -1.5443   -3.7890 H   0  0  0  0  0  0  0  0  0  0  0  0
    1.4026    0.1120   -2.6806 H   0  0  0  0  0  0  0  0  0  0  0  0
    2.8397    0.5488   -3.6989 H   0  0  0  0  0  0  0  0  0  0  0  0
    2.7224    2.7186   -2.2421 H   0  0  0  0  0  0  0  0  0  0  0  0
    2.9699    2.6145   -0.5043 H   0  0  0  0  0  0  0  0  0  0  0  0
    3.1288   -0.0780    1.0148 H   0  0  0  0  0  0  0  0  0  0  0  0
    3.8425   -2.2011   -0.0292 H   0  0  0  0  0  0  0  0  0  0  0  0
   -0.1641   -3.6205    0.5841 H   0  0  0  0  0  0  0  0  0  0  0  0
   -0.9645   -1.3076    0.5241 H   0  0  0  0  0  0  0  0  0  0  0  0
    2.0773   -6.3121   -0.2369 H   0  0  0  0  0  0  0  0  0  0  0  0
    0.7094   -5.2856   -0.7006 H   0  0  0  0  0  0  0  0  0  0  0  0
    1.1860   -5.4621    1.0353 H   0  0  0  0  0  0  0  0  0  0  0  0
    0.8170    3.7839   -2.2305 H   0  0  0  0  0  0  0  0  0  0  0  0
    0.7651    3.9972   -0.4851 H   0  0  0  0  0  0  0  0  0  0  0  0
    4.7238    1.0342   -0.5404 H   0  0  0  0  0  0  0  0  0  0  0  0
  1  2  1  0  0  0  0
  1 24  1  0  0  0  0
  2 25  1  0  0  0  0
  2 26  1  0  0  0  0
  3  5  1  0  0  0  0
  3 23  1  0  0  0  0
  3  4  1  1  0  0  0
  3  2  1  0  0  0  0
  5  6  1  0  0  0  0
  5 27  1  0  0  0  0
  5 28  1  0  0  0  0
  6  7  1  0  0  0  0
  6 18  1  0  0  0  0
  7  8  2  0  0  0  0
  7  9  2  0  0  0  0
  7 10  1  0  0  0  0
 10 11  2  0  0  0  0
 10 15  1  0  0  0  0
 11 12  1  0  0  0  0
 11 29  1  0  0  0  0
 12 13  2  0  0  0  0
 12 30  1  0  0  0  0
 13 14  1  0  0  0  0
 13 16  1  0  0  0  0
 14 15  2  0  0  0  0
 14 31  1  0  0  0  0
 15 32  1  0  0  0  0
 16 17  1  0  0  0  0
 17 33  1  0  0  0  0
 17 34  1  0  0  0  0
 17 35  1  0  0  0  0
 18 19  1  0  0  0  0
 18 36  1  0  0  0  0
 18 37  1  0  0  0  0
 19 20  2  0  0  0  0
 19 21  1  0  0  0  0
 21 22  2  0  0  0  0
 23 38  1  0  0  0  0
M  END
$$$$
