HS5
 OpenBabel04121316133D

 30 30  0  0  0  0  0  0  0  0999 V2000
    0.7946   -0.1848    0.0716 O   0  0  0  0  0  0  0  0  0  0  0  0
    2.2054   -0.1143    0.0230 C   0  0  0  0  0  0  0  0  0  0  0  0
    2.8690    0.2600    1.3405 C   0  0  0  0  0  0  0  0  0  0  0  0
    4.3820    0.3351    1.2413 N   0  0  0  0  0  0  0  0  0  0  0  0
    4.9993    1.5633    0.1753 S   0  0  0  0  0  0  0  0  0  0  0  0
    4.2886    2.7649    0.5366 O   0  0  0  0  0  0  0  0  0  0  0  0
    6.4469    1.5540    0.1680 O   0  0  0  0  0  0  0  0  0  0  0  0
    4.5452    1.1011   -1.4750 C   0  0  0  0  0  0  0  0  0  0  0  0
    4.5284   -0.2406   -1.8868 C   0  0  0  0  0  0  0  0  0  0  0  0
    4.1929   -0.5440   -3.2064 C   0  0  0  0  0  0  0  0  0  0  0  0
    3.8515    0.4858   -4.0786 C   0  0  0  0  0  0  0  0  0  0  0  0
    3.7689    1.8051   -3.6427 C   0  0  0  0  0  0  0  0  0  0  0  0
    4.1469    2.1234   -2.3423 C   0  0  0  0  0  0  0  0  0  0  0  0
    3.6100    0.2046   -5.3647 F   0  0  0  0  0  0  0  0  0  0  0  0
    4.9445    0.5236    2.6404 C   0  0  0  0  0  0  0  0  0  0  0  0
    6.4572    0.4156    2.7718 C   0  0  0  0  0  0  0  0  0  0  0  0
    7.1736   -0.1532    1.9538 O   0  0  0  0  0  0  0  0  0  0  0  0
    7.0583    0.9010    3.9519 N   0  0  0  0  0  0  0  0  0  0  0  0
    8.2880    0.7680    3.9862 O   0  0  0  0  0  0  0  0  0  0  0  0
    0.5255   -0.2841   -0.8635 H   0  0  0  0  0  0  0  0  0  0  0  0
    2.3999    0.6620   -0.7059 H   0  0  0  0  0  0  0  0  0  0  0  0
    2.5766   -1.0842   -0.3200 H   0  0  0  0  0  0  0  0  0  0  0  0
    2.5961   -0.5034    2.0812 H   0  0  0  0  0  0  0  0  0  0  0  0
    2.4712    1.2074    1.7191 H   0  0  0  0  0  0  0  0  0  0  0  0
    4.7193   -1.0498   -1.1838 H   0  0  0  0  0  0  0  0  0  0  0  0
    4.1963   -1.5704   -3.5623 H   0  0  0  0  0  0  0  0  0  0  0  0
    3.4268    2.5795   -4.3212 H   0  0  0  0  0  0  0  0  0  0  0  0
    4.1382    3.1588   -2.0073 H   0  0  0  0  0  0  0  0  0  0  0  0
    4.5264   -0.2528    3.2970 H   0  0  0  0  0  0  0  0  0  0  0  0
    4.5976    1.4903    3.0323 H   0  0  0  0  0  0  0  0  0  0  0  0
  1  2  1  0  0  0  0
  1 20  1  0  0  0  0
  2  3  1  0  0  0  0
  2 21  1  0  0  0  0
  2 22  1  0  0  0  0
  3  4  1  0  0  0  0
  3 23  1  0  0  0  0
  3 24  1  0  0  0  0
  4  5  1  0  0  0  0
  4 15  1  0  0  0  0
  5  6  2  0  0  0  0
  5  7  2  0  0  0  0
  5  8  1  0  0  0  0
  8  9  2  0  0  0  0
  8 13  1  0  0  0  0
  9 10  1  0  0  0  0
  9 25  1  0  0  0  0
 10 11  2  0  0  0  0
 10 26  1  0  0  0  0
 11 12  1  0  0  0  0
 11 14  1  0  0  0  0
 12 13  2  0  0  0  0
 12 27  1  0  0  0  0
 13 28  1  0  0  0  0
 15 16  1  0  0  0  0
 15 29  1  0  0  0  0
 15 30  1  0  0  0  0
 16 17  2  0  0  0  0
 16 18  1  0  0  0  0
 18 19  2  0  0  0  0
M  END
$$$$
