HS6
 OpenBabel04121316133D

 23 23  0  0  0  0  0  0  0  0999 V2000
    0.9693   -0.0271   -0.0522 O   0  0  0  0  0  0  0  0  0  0  0  0
    2.2031   -0.0982   -0.0980 N   0  0  0  0  0  0  0  0  0  0  0  0
    2.8692    1.1063    0.2126 C   0  0  0  0  0  0  0  0  0  0  0  0
    2.2026    2.0972    0.5050 O   0  0  0  0  0  0  0  0  0  0  0  0
    4.3866    1.0999    0.2130 C   0  0  0  0  0  0  0  0  0  0  0  0
    4.9744    2.4227    0.5830 N   0  0  0  0  0  0  0  0  0  0  0  0
    6.6628    2.4094    0.5632 S   0  0  0  0  0  0  0  0  0  0  0  0
    7.0547    1.5707    1.6688 O   0  0  0  0  0  0  0  0  0  0  0  0
    7.0689    2.1286   -0.7978 O   0  0  0  0  0  0  0  0  0  0  0  0
    7.1429    4.0740    0.9371 C   0  0  0  0  0  0  0  0  0  0  0  0
    6.2475    5.1376    0.7874 C   0  0  0  0  0  0  0  0  0  0  0  0
    6.7175    6.4465    0.9130 C   0  0  0  0  0  0  0  0  0  0  0  0
    8.0360    6.6739    1.2953 C   0  0  0  0  0  0  0  0  0  0  0  0
    8.8936    5.6153    1.5741 C   0  0  0  0  0  0  0  0  0  0  0  0
    8.4631    4.3066    1.3481 C   0  0  0  0  0  0  0  0  0  0  0  0
    8.4882    7.9312    1.3851 F   0  0  0  0  0  0  0  0  0  0  0  0
    4.7240    0.8109   -0.7878 H   0  0  0  0  0  0  0  0  0  0  0  0
    4.7075    0.3541    0.9490 H   0  0  0  0  0  0  0  0  0  0  0  0
    4.6102    2.7558    1.4795 H   0  0  0  0  0  0  0  0  0  0  0  0
    5.2026    4.9733    0.5410 H   0  0  0  0  0  0  0  0  0  0  0  0
    6.0687    7.2917    0.7038 H   0  0  0  0  0  0  0  0  0  0  0  0
    9.8951    5.8195    1.9409 H   0  0  0  0  0  0  0  0  0  0  0  0
    9.1616    3.4810    1.4722 H   0  0  0  0  0  0  0  0  0  0  0  0
  1  2  2  0  0  0  0
  2  3  1  0  0  0  0
  3  4  2  0  0  0  0
  3  5  1  0  0  0  0
  5  6  1  0  0  0  0
  5 17  1  0  0  0  0
  5 18  1  0  0  0  0
  6  7  1  0  0  0  0
  6 19  1  0  0  0  0
  7  8  2  0  0  0  0
  7  9  2  0  0  0  0
  7 10  1  0  0  0  0
 10 11  2  0  0  0  0
 10 15  1  0  0  0  0
 11 12  1  0  0  0  0
 11 20  1  0  0  0  0
 12 13  2  0  0  0  0
 12 21  1  0  0  0  0
 13 14  1  0  0  0  0
 13 16  1  0  0  0  0
 14 15  2  0  0  0  0
 14 22  1  0  0  0  0
 15 23  1  0  0  0  0
M  END
$$$$
