HSE
 OpenBabel04121316133D

 17 16  0  0  1  0  0  0  0  0999 V2000
    0.9570    0.2052   -0.0149 O   0  0  0  0  0  0  0  0  0  0  0  0
    2.3655    0.0892    0.0323 C   0  0  0  0  0  0  0  0  0  0  0  0
    2.9629    0.0577   -1.3689 C   0  0  0  0  0  0  0  0  0  0  0  0
    4.4989    0.0438   -1.3580 C   0  0  1  0  0  0  0  0  0  0  0  0
    4.8940    0.9135   -0.8206 H   0  0  0  0  0  0  0  0  0  0  0  0
    5.0938   -1.2389   -0.7125 C   0  0  0  0  0  0  0  0  0  0  0  0
    5.7073   -2.1047   -1.3308 O   0  0  0  0  0  0  0  0  0  0  0  0
    4.9016   -1.3672    0.6204 O   0  0  0  0  0  0  0  0  0  0  0  0
    4.9897    0.1445   -2.7521 N   0  0  0  0  0  0  0  0  0  0  0  0
    0.6394    0.0891    0.8998 H   0  0  0  0  0  0  0  0  0  0  0  0
    2.5751   -0.8405    0.5618 H   0  0  0  0  0  0  0  0  0  0  0  0
    2.7646    0.9366    0.5995 H   0  0  0  0  0  0  0  0  0  0  0  0
    2.5974    0.9351   -1.9219 H   0  0  0  0  0  0  0  0  0  0  0  0
    2.5715   -0.8152   -1.9070 H   0  0  0  0  0  0  0  0  0  0  0  0
    4.4847   -0.6215    1.0843 H   0  0  0  0  0  0  0  0  0  0  0  0
    4.5577    0.9181   -3.2506 H   0  0  0  0  0  0  0  0  0  0  0  0
    4.7309   -0.7123   -3.2503 H   0  0  0  0  0  0  0  0  0  0  0  0
  1  2  1  0  0  0  0
  1 10  1  0  0  0  0
  2  3  1  0  0  0  0
  2 11  1  0  0  0  0
  2 12  1  0  0  0  0
  3  4  1  0  0  0  0
  3 13  1  0  0  0  0
  3 14  1  0  0  0  0
  4  5  1  1  0  0  0
  4  6  1  0  0  0  0
  4  9  1  0  0  0  0
  6  7  2  0  0  0  0
  6  8  1  0  0  0  0
  8 15  1  0  0  0  0
  9 16  1  0  0  0  0
  9 17  1  0  0  0  0
M  END
$$$$
