HSH
 OpenBabel04121316133D

 48 48  0  0  1  0  0  0  0  0999 V2000
   10.4822   -6.6807    6.9777 C   0  0  0  0  0  0  0  0  0  0  0  0
   10.0621   -7.0168    5.5592 C   0  0  0  0  0  0  0  0  0  0  0  0
   10.5995   -5.9795    4.5819 C   0  0  0  0  0  0  0  0  0  0  0  0
   10.1811   -6.3111    3.1572 C   0  0  0  0  0  0  0  0  0  0  0  0
   10.7244   -5.2663    2.1919 C   0  0  0  0  0  0  0  0  0  0  0  0
   10.3050   -5.5995    0.7715 C   0  0  0  0  0  0  0  0  0  0  0  0
   10.8408   -4.5686   -0.2099 C   0  0  0  0  0  0  0  0  0  0  0  0
   10.4069   -4.9460   -1.6120 C   0  0  0  0  0  0  0  0  0  0  0  0
   10.9393   -4.0082   -2.5352 O   0  0  0  0  0  0  0  0  0  0  0  0
   10.4908   -4.2919   -3.8608 C   0  0  2  0  0  0  0  0  0  0  0  0
    9.3917   -4.2816   -3.8432 H   0  0  0  0  0  0  0  0  0  0  0  0
   10.9375   -5.5928   -4.2581 O   0  0  0  0  0  0  0  0  0  0  0  0
   10.5153   -5.9509   -5.5728 C   0  0  2  0  0  0  0  0  0  0  0  0
    9.4171   -5.9378   -5.6002 H   0  0  0  0  0  0  0  0  0  0  0  0
   10.9713   -7.3814   -5.8749 C   0  0  0  0  0  0  0  0  0  0  0  0
   10.6082   -7.7532   -7.2010 O   0  0  0  0  0  0  0  0  0  0  0  0
   11.0567   -4.9497   -6.6088 C   0  0  1  0  0  0  0  0  0  0  0  0
   10.7275   -5.2091   -7.6202 H   0  0  0  0  0  0  0  0  0  0  0  0
   10.5420   -3.5484   -6.2449 C   0  0  1  0  0  0  0  0  0  0  0  0
    9.4458   -3.5422   -6.2948 H   0  0  0  0  0  0  0  0  0  0  0  0
   10.9775   -3.1764   -4.8167 C   0  0  1  0  0  0  0  0  0  0  0  0
   12.0663   -3.0720   -4.7594 H   0  0  0  0  0  0  0  0  0  0  0  0
   10.4277   -1.8976   -4.4392 O   0  0  0  0  0  0  0  0  0  0  0  0
   10.9701   -2.5644   -7.1894 O   0  0  0  0  0  0  0  0  0  0  0  0
   12.4876   -4.9321   -6.6260 O   0  0  0  0  0  0  0  0  0  0  0  0
   10.0942   -7.4277    7.6754 H   0  0  0  0  0  0  0  0  0  0  0  0
   10.0973   -5.6996    7.2740 H   0  0  0  0  0  0  0  0  0  0  0  0
   11.5732   -6.6615    7.0648 H   0  0  0  0  0  0  0  0  0  0  0  0
    8.9680   -7.0543    5.4998 H   0  0  0  0  0  0  0  0  0  0  0  0
   10.4370   -8.0116    5.2916 H   0  0  0  0  0  0  0  0  0  0  0  0
   11.6941   -5.9414    4.6439 H   0  0  0  0  0  0  0  0  0  0  0  0
   10.2256   -4.9843    4.8523 H   0  0  0  0  0  0  0  0  0  0  0  0
    9.0869   -6.3474    3.0879 H   0  0  0  0  0  0  0  0  0  0  0  0
   10.5558   -7.3041    2.8794 H   0  0  0  0  0  0  0  0  0  0  0  0
   11.8186   -5.2313    2.2569 H   0  0  0  0  0  0  0  0  0  0  0  0
   10.3491   -4.2730    2.4660 H   0  0  0  0  0  0  0  0  0  0  0  0
    9.2103   -5.6385    0.7069 H   0  0  0  0  0  0  0  0  0  0  0  0
   10.6776   -6.5957    0.5007 H   0  0  0  0  0  0  0  0  0  0  0  0
   11.9352   -4.5157   -0.1588 H   0  0  0  0  0  0  0  0  0  0  0  0
   10.4737   -3.5654    0.0396 H   0  0  0  0  0  0  0  0  0  0  0  0
    9.3120   -4.9494   -1.6735 H   0  0  0  0  0  0  0  0  0  0  0  0
   10.7790   -5.9491   -1.8483 H   0  0  0  0  0  0  0  0  0  0  0  0
   10.5292   -8.0948   -5.1711 H   0  0  0  0  0  0  0  0  0  0  0  0
   12.0566   -7.4836   -5.7711 H   0  0  0  0  0  0  0  0  0  0  0  0
    9.6374   -7.7496   -7.2596 H   0  0  0  0  0  0  0  0  0  0  0  0
    9.4684   -1.9272   -4.5409 H   0  0  0  0  0  0  0  0  0  0  0  0
   10.8769   -2.9384   -8.0826 H   0  0  0  0  0  0  0  0  0  0  0  0
   12.8079   -5.8216   -6.8574 H   0  0  0  0  0  0  0  0  0  0  0  0
  1  2  1  0  0  0  0
  1 26  1  0  0  0  0
  1 27  1  0  0  0  0
  1 28  1  0  0  0  0
  2  3  1  0  0  0  0
  2 29  1  0  0  0  0
  2 30  1  0  0  0  0
  3  4  1  0  0  0  0
  3 31  1  0  0  0  0
  3 32  1  0  0  0  0
  4  5  1  0  0  0  0
  4 33  1  0  0  0  0
  4 34  1  0  0  0  0
  5  6  1  0  0  0  0
  5 35  1  0  0  0  0
  5 36  1  0  0  0  0
  6  7  1  0  0  0  0
  6 37  1  0  0  0  0
  6 38  1  0  0  0  0
  7  8  1  0  0  0  0
  7 39  1  0  0  0  0
  7 40  1  0  0  0  0
  8  9  1  0  0  0  0
  8 41  1  0  0  0  0
  8 42  1  0  0  0  0
 10 12  1  0  0  0  0
 10 21  1  0  0  0  0
 10 11  1  1  0  0  0
 10  9  1  0  0  0  0
 12 13  1  0  0  0  0
 13 14  1  6  0  0  0
 13 15  1  0  0  0  0
 13 17  1  0  0  0  0
 15 16  1  0  0  0  0
 15 43  1  0  0  0  0
 15 44  1  0  0  0  0
 16 45  1  0  0  0  0
 17 18  1  6  0  0  0
 17 19  1  0  0  0  0
 17 25  1  0  0  0  0
 19 20  1  6  0  0  0
 19 21  1  0  0  0  0
 19 24  1  0  0  0  0
 21 23  1  0  0  0  0
 21 22  1  1  0  0  0
 23 46  1  0  0  0  0
 24 47  1  0  0  0  0
 25 48  1  0  0  0  0
M  END
$$$$
