HSW
 OpenBabel04121316133D

 10  9  0  0  0  0  0  0  0  0999 V2000
    0.9705    0.0385   -0.0324 O   0  0  0  0  0  0  0  0  0  0  0  0
    2.4243    0.0582    0.0125 N   0  0  0  0  0  0  0  0  0  0  0  0
    2.8731   -1.1069    1.1744 S   0  0  0  0  0  0  0  0  0  0  0  0
    2.5363   -0.5854    2.4727 O   0  0  0  0  0  0  0  0  0  0  0  0
    2.5126   -2.4214    0.7061 O   0  0  0  0  0  0  0  0  0  0  0  0
    4.5149   -0.9725    1.0187 N   0  0  0  0  0  0  0  0  0  0  0  0
    0.7103    0.6681   -0.7295 H   0  0  0  0  0  0  0  0  0  0  0  0
    2.7394    0.9730    0.3422 H   0  0  0  0  0  0  0  0  0  0  0  0
    4.9497   -0.1616    1.4431 H   0  0  0  0  0  0  0  0  0  0  0  0
    4.9112   -1.3955    0.1862 H   0  0  0  0  0  0  0  0  0  0  0  0
  1  2  1  0  0  0  0
  1  7  1  0  0  0  0
  2  3  1  0  0  0  0
  2  8  1  0  0  0  0
  3  4  2  0  0  0  0
  3  5  2  0  0  0  0
  3  6  1  0  0  0  0
  6  9  1  0  0  0  0
  6 10  1  0  0  0  0
M  END
$$$$
