HT1
 OpenBabel04121316133D

 62 67  0  0  0  0  0  0  0  0999 V2000
    0.9621    0.0738   -0.0427 C   0  0  0  0  0  0  0  0  0  0  0  0
    2.4786    0.0729   -0.0392 C   0  0  0  0  0  0  0  0  0  0  0  0
    2.9193    1.2713   -0.6731 O   0  0  0  0  0  0  0  0  0  0  0  0
    4.2703    1.3994   -0.8295 C   0  0  0  0  0  0  0  0  0  0  0  0
    4.7386    2.7103   -0.8863 C   0  0  0  0  0  0  0  0  0  0  0  0
    6.0718    2.9697   -1.2118 C   0  0  0  0  0  0  0  0  0  0  0  0
    6.9743    1.9178   -1.4203 C   0  0  0  0  0  0  0  0  0  0  0  0
    6.5162    0.6060   -1.2495 C   0  0  0  0  0  0  0  0  0  0  0  0
    5.1645    0.3461   -1.0050 C   0  0  0  0  0  0  0  0  0  0  0  0
    8.3535    2.1418   -1.8634 C   0  0  0  0  0  0  0  0  0  0  0  0
    9.2505    1.2154   -2.1512 N   0  0  0  0  0  0  0  0  0  0  0  0
   10.3782    1.8835   -2.5642 C   0  0  0  0  0  0  0  0  0  0  0  0
   10.1709    3.2504   -2.5304 C   0  0  0  0  0  0  0  0  0  0  0  0
    8.8825    3.3917   -2.0928 N   0  0  0  0  0  0  0  0  0  0  0  0
    8.4026    4.2645   -1.9683 H   0  0  0  0  0  0  0  0  0  0  0  0
   11.1362    4.1928   -2.8860 C   0  0  0  0  0  0  0  0  0  0  0  0
   12.3949    3.7136   -3.2955 C   0  0  0  0  0  0  0  0  0  0  0  0
   12.6210    2.3268   -3.3415 C   0  0  0  0  0  0  0  0  0  0  0  0
   11.6240    1.3995   -2.9833 C   0  0  0  0  0  0  0  0  0  0  0  0
   13.4691    4.6466   -3.6678 C   0  0  0  0  0  0  0  0  0  0  0  0
   14.6898    4.3395   -4.0756 N   0  0  0  0  0  0  0  0  0  0  0  0
   15.3339    5.5359   -4.3005 C   0  0  0  0  0  0  0  0  0  0  0  0
   14.4976    6.6003   -4.0142 C   0  0  0  0  0  0  0  0  0  0  0  0
   13.3255    6.0163   -3.6302 N   0  0  0  0  0  0  0  0  0  0  0  0
   12.4964    6.5171   -3.3610 H   0  0  0  0  0  0  0  0  0  0  0  0
   14.8734    7.9353   -4.1413 C   0  0  0  0  0  0  0  0  0  0  0  0
   16.1677    8.2094   -4.6079 C   0  0  0  0  0  0  0  0  0  0  0  0
   17.0294    7.1476   -4.9092 C   0  0  0  0  0  0  0  0  0  0  0  0
   16.6326    5.8060   -4.7532 C   0  0  0  0  0  0  0  0  0  0  0  0
   16.5026    9.5332   -4.8093 N   0  0  0  0  0  0  0  0  0  0  0  0
   17.0797    9.9410   -6.0918 C   0  0  0  0  0  0  0  0  0  0  0  0
   16.6937   11.4217   -6.3310 C   0  0  0  0  0  0  0  0  0  0  0  0
   17.1220   12.3417   -5.2430 N   0  0  0  0  0  0  0  0  0  0  0  0
   16.5700   11.8340   -3.9567 C   0  0  0  0  0  0  0  0  0  0  0  0
   16.9070   10.3487   -3.6539 C   0  0  0  0  0  0  0  0  0  0  0  0
   18.5845   12.4094   -5.1874 C   0  0  0  0  0  0  0  0  0  0  0  0
    0.5756   -0.8018    0.4856 H   0  0  0  0  0  0  0  0  0  0  0  0
    0.5843    0.0583   -1.0710 H   0  0  0  0  0  0  0  0  0  0  0  0
    0.5715    0.9807    0.4287 H   0  0  0  0  0  0  0  0  0  0  0  0
    2.8136   -0.8215   -0.5730 H   0  0  0  0  0  0  0  0  0  0  0  0
    2.8500    0.0560    0.9913 H   0  0  0  0  0  0  0  0  0  0  0  0
    4.0582    3.5366   -0.6963 H   0  0  0  0  0  0  0  0  0  0  0  0
    6.3679    4.0080   -1.3186 H   0  0  0  0  0  0  0  0  0  0  0  0
    7.2080   -0.2292   -1.3481 H   0  0  0  0  0  0  0  0  0  0  0  0
    4.8446   -0.6894   -1.0019 H   0  0  0  0  0  0  0  0  0  0  0  0
   10.8983    5.2465   -2.8328 H   0  0  0  0  0  0  0  0  0  0  0  0
   13.5931    1.9502   -3.6592 H   0  0  0  0  0  0  0  0  0  0  0  0
   11.8104    0.3321   -3.0227 H   0  0  0  0  0  0  0  0  0  0  0  0
   14.1775    8.7437   -3.9426 H   0  0  0  0  0  0  0  0  0  0  0  0
   18.0342    7.3529   -5.2687 H   0  0  0  0  0  0  0  0  0  0  0  0
   17.3094    4.9924   -4.9858 H   0  0  0  0  0  0  0  0  0  0  0  0
   16.6867    9.3361   -6.9168 H   0  0  0  0  0  0  0  0  0  0  0  0
   18.1691    9.8161   -6.0859 H   0  0  0  0  0  0  0  0  0  0  0  0
   15.5988   11.4853   -6.4166 H   0  0  0  0  0  0  0  0  0  0  0  0
   17.0885   11.7663   -7.2931 H   0  0  0  0  0  0  0  0  0  0  0  0
   15.4757   11.9354   -3.9964 H   0  0  0  0  0  0  0  0  0  0  0  0
   16.8956   12.4770   -3.1302 H   0  0  0  0  0  0  0  0  0  0  0  0
   16.3964   10.0426   -2.7334 H   0  0  0  0  0  0  0  0  0  0  0  0
   17.9835   10.2372   -3.4719 H   0  0  0  0  0  0  0  0  0  0  0  0
   18.9860   12.7486   -6.1478 H   0  0  0  0  0  0  0  0  0  0  0  0
   19.0597   11.4506   -4.9570 H   0  0  0  0  0  0  0  0  0  0  0  0
   18.9064   13.1250   -4.4254 H   0  0  0  0  0  0  0  0  0  0  0  0
  1  2  1  0  0  0  0
  1 37  1  0  0  0  0
  1 38  1  0  0  0  0
  1 39  1  0  0  0  0
  2  3  1  0  0  0  0
  2 40  1  0  0  0  0
  2 41  1  0  0  0  0
  3  4  1  0  0  0  0
  4  5  2  0  0  0  0
  4  9  1  0  0  0  0
  5  6  1  0  0  0  0
  5 42  1  0  0  0  0
  6  7  2  0  0  0  0
  6 43  1  0  0  0  0
  7  8  1  0  0  0  0
  7 10  1  0  0  0  0
  8  9  2  0  0  0  0
  8 44  1  0  0  0  0
  9 45  1  0  0  0  0
 10 11  2  0  0  0  0
 10 14  1  0  0  0  0
 11 12  1  0  0  0  0
 12 13  2  0  0  0  0
 12 19  1  0  0  0  0
 13 14  1  0  0  0  0
 13 16  1  0  0  0  0
 14 15  1  0  0  0  0
 16 17  2  0  0  0  0
 16 46  1  0  0  0  0
 17 18  1  0  0  0  0
 17 20  1  0  0  0  0
 18 19  2  0  0  0  0
 18 47  1  0  0  0  0
 19 48  1  0  0  0  0
 20 21  2  0  0  0  0
 20 24  1  0  0  0  0
 21 22  1  0  0  0  0
 22 23  2  0  0  0  0
 22 29  1  0  0  0  0
 23 24  1  0  0  0  0
 23 26  1  0  0  0  0
 24 25  1  0  0  0  0
 26 27  2  0  0  0  0
 26 49  1  0  0  0  0
 27 28  1  0  0  0  0
 27 30  1  0  0  0  0
 28 29  2  0  0  0  0
 28 50  1  0  0  0  0
 29 51  1  0  0  0  0
 30 31  1  0  0  0  0
 30 35  1  0  0  0  0
 31 32  1  0  0  0  0
 31 52  1  0  0  0  0
 31 53  1  0  0  0  0
 32 33  1  0  0  0  0
 32 54  1  0  0  0  0
 32 55  1  0  0  0  0
 33 34  1  0  0  0  0
 33 36  1  0  0  0  0
 34 35  1  0  0  0  0
 34 56  1  0  0  0  0
 34 57  1  0  0  0  0
 35 58  1  0  0  0  0
 35 59  1  0  0  0  0
 36 60  1  0  0  0  0
 36 61  1  0  0  0  0
 36 62  1  0  0  0  0
M  END
$$$$
