HTC
 OpenBabel04121316133D

 31 32  0  0  0  0  0  0  0  0999 V2000
    1.0050    0.1679    0.2338 O   0  0  0  0  0  0  0  0  0  0  0  0
    2.3651    0.0940    0.1472 C   0  0  0  0  0  0  0  0  0  0  0  0
    3.0619    1.2951    0.1410 C   0  0  0  0  0  0  0  0  0  0  0  0
    4.4338    1.2936   -0.1010 C   0  0  0  0  0  0  0  0  0  0  0  0
    5.1130    0.0655   -0.1683 C   0  0  0  0  0  0  0  0  0  0  0  0
    4.4225   -1.1441   -0.0262 C   0  0  0  0  0  0  0  0  0  0  0  0
    3.0274   -1.1447    0.0482 C   0  0  0  0  0  0  0  0  0  0  0  0
    2.3711   -2.4206    0.0824 N   0  0  0  0  0  0  0  0  0  0  0  0
    0.7089   -2.4957    0.0075 S   0  0  0  0  0  0  0  0  0  0  0  0
    0.1471   -2.1153    1.2835 O   0  0  0  0  0  0  0  0  0  0  0  0
    0.2287   -1.9168   -1.2328 O   0  0  0  0  0  0  0  0  0  0  0  0
    0.0972   -4.0866   -0.1472 C   0  0  0  0  0  0  0  0  0  0  0  0
    0.9148   -5.2470   -0.0180 C   0  0  0  0  0  0  0  0  0  0  0  0
    0.1756   -6.3960   -0.1443 C   0  0  0  0  0  0  0  0  0  0  0  0
   -1.4722   -6.0778   -0.4206 S   0  0  0  0  0  0  0  0  0  0  0  0
   -1.2465   -4.3605   -0.3780 C   0  0  0  0  0  0  0  0  0  0  0  0
   -2.4643   -3.5597   -0.5626 C   0  0  0  0  0  0  0  0  0  0  0  0
   -3.5770   -4.0281   -0.7464 O   0  0  0  0  0  0  0  0  0  0  0  0
   -2.3332   -2.2095   -0.5093 O   0  0  0  0  0  0  0  0  0  0  0  0
    5.2164    2.5387   -0.3304 C   0  0  0  0  0  0  0  0  0  0  0  0
    6.4090    2.5080   -0.5898 O   0  0  0  0  0  0  0  0  0  0  0  0
    4.5309    3.6972   -0.2740 O   0  0  0  0  0  0  0  0  0  0  0  0
    0.6590    1.0695    0.1563 H   0  0  0  0  0  0  0  0  0  0  0  0
    2.4959    2.1981    0.3182 H   0  0  0  0  0  0  0  0  0  0  0  0
    6.1904    0.0470   -0.3367 H   0  0  0  0  0  0  0  0  0  0  0  0
    4.9916   -2.0707    0.0013 H   0  0  0  0  0  0  0  0  0  0  0  0
    2.9082   -3.2440   -0.1674 H   0  0  0  0  0  0  0  0  0  0  0  0
    1.9802   -5.2554    0.1734 H   0  0  0  0  0  0  0  0  0  0  0  0
    0.5165   -7.4192   -0.0824 H   0  0  0  0  0  0  0  0  0  0  0  0
   -1.4474   -1.8093   -0.5447 H   0  0  0  0  0  0  0  0  0  0  0  0
    3.5777    3.6697   -0.0989 H   0  0  0  0  0  0  0  0  0  0  0  0
  1  2  1  0  0  0  0
  1 23  1  0  0  0  0
  2  3  2  0  0  0  0
  2  7  1  0  0  0  0
  3  4  1  0  0  0  0
  3 24  1  0  0  0  0
  4  5  2  0  0  0  0
  4 20  1  0  0  0  0
  5  6  1  0  0  0  0
  5 25  1  0  0  0  0
  6  7  2  0  0  0  0
  6 26  1  0  0  0  0
  7  8  1  0  0  0  0
  8  9  1  0  0  0  0
  8 27  1  0  0  0  0
  9 10  2  0  0  0  0
  9 11  2  0  0  0  0
  9 12  1  0  0  0  0
 12 13  1  0  0  0  0
 12 16  2  0  0  0  0
 13 14  2  0  0  0  0
 13 28  1  0  0  0  0
 14 15  1  0  0  0  0
 14 29  1  0  0  0  0
 15 16  1  0  0  0  0
 16 17  1  0  0  0  0
 17 18  2  0  0  0  0
 17 19  1  0  0  0  0
 19 30  1  0  0  0  0
 20 21  2  0  0  0  0
 20 22  1  0  0  0  0
 22 31  1  0  0  0  0
M  END
$$$$
