HU1
 OpenBabel04121316133D

 85 88  0  0  1  0  0  0  0  0999 V2000
    4.9770    7.8479    0.8242 O   0  0  0  0  0  0  0  0  0  0  0  0
    4.5983    7.5224    1.9365 C   0  0  0  0  0  0  0  0  0  0  0  0
    4.7997    8.4401    2.8898 O   0  0  0  0  0  0  0  0  0  0  0  0
    4.4971    8.3208    4.2705 C   0  0  0  0  0  0  0  0  0  0  0  0
    2.9810    8.3147    4.4543 C   0  0  0  0  0  0  0  0  0  0  0  0
    5.2566    7.1342    4.8628 C   0  0  0  0  0  0  0  0  0  0  0  0
    5.0649    9.6179    4.8464 C   0  0  0  0  0  0  0  0  0  0  0  0
    3.9802    6.3266    2.2942 N   0  0  0  0  0  0  0  0  0  0  0  0
    3.3749    5.4125    1.3284 C   0  0  2  0  0  0  0  0  0  0  0  0
    3.5306    4.4052    1.7278 H   0  0  0  0  0  0  0  0  0  0  0  0
    4.1599    5.6107    0.0193 C   0  0  0  0  0  0  0  0  0  0  0  0
    3.6399    6.0791   -0.9802 O   0  0  0  0  0  0  0  0  0  0  0  0
    5.4881    5.4138   -0.1747 N   0  0  0  0  0  0  0  0  0  0  0  0
    5.9034    6.1111   -1.4278 C   0  0  0  0  0  0  0  0  0  0  0  0
    7.1557    5.4527   -1.8418 C   0  0  1  0  0  0  0  0  0  0  0  0
    7.9697    6.1574   -1.8473 H   0  0  0  0  0  0  0  0  0  0  0  0
    7.1604    4.1812   -1.0596 C   0  0  1  0  0  0  0  0  0  0  0  0
    8.0307    4.1364   -0.4114 H   0  0  0  0  0  0  0  0  0  0  0  0
    5.8757    4.0529   -0.2940 C   0  0  1  0  0  0  0  0  0  0  0  0
    5.0896    3.5690   -0.8887 H   0  0  0  0  0  0  0  0  0  0  0  0
    6.0489    3.2522    0.9783 C   0  0  0  0  0  0  0  0  0  0  0  0
    7.0431    3.3661    1.7002 O   0  0  0  0  0  0  0  0  0  0  0  0
    5.0497    2.3390    1.1924 N   0  0  0  0  0  0  0  0  0  0  0  0
    5.1263    1.2134    2.1223 C   0  0  2  0  0  0  0  0  0  0  0  0
    5.3270    1.5993    3.1275 H   0  0  0  0  0  0  0  0  0  0  0  0
    6.2344    0.1946    1.7527 C   0  0  0  0  0  0  0  0  0  0  0  0
    6.0346   -0.9895    1.4751 O   0  0  0  0  0  0  0  0  0  0  0  0
    7.7002    0.6207    1.8047 C   0  0  0  0  0  0  0  0  0  0  0  0
    8.1471    1.3633    2.6600 O   0  0  0  0  0  0  0  0  0  0  0  0
    8.5175   -0.0406    0.9249 N   0  0  0  0  0  0  0  0  0  0  0  0
    3.7461    0.4761    2.1154 C   0  0  0  0  0  0  0  0  0  0  0  0
    3.3708    0.0262    0.6889 C   0  0  0  0  0  0  0  0  0  0  0  0
    2.1604   -0.9031    0.3870 C   0  0  0  0  0  0  0  0  0  0  0  0
    1.9072   -0.0312   -0.8692 C   0  0  0  0  0  0  0  0  0  0  0  0
    2.6096    1.1039   -0.1250 C   0  0  0  0  0  0  0  0  0  0  0  0
    7.2300    4.0960   -2.5686 C   0  0  0  0  0  0  0  0  0  0  0  0
    8.4607    3.3863   -3.0512 C   0  0  0  0  0  0  0  0  0  0  0  0
    6.1088    3.7293   -3.5095 C   0  0  0  0  0  0  0  0  0  0  0  0
    1.7935    5.6082    1.2538 C   0  0  0  0  0  0  0  0  0  0  0  0
    1.3959    7.0906    1.1379 C   0  0  0  0  0  0  0  0  0  0  0  0
    1.8908    7.6760   -0.1627 C   0  0  0  0  0  0  0  0  0  0  0  0
    1.4431    6.8172   -1.3850 C   0  0  0  0  0  0  0  0  0  0  0  0
    1.4565    5.2401   -1.2597 C   0  0  0  0  0  0  0  0  0  0  0  0
    1.0615    4.8109    0.1388 C   0  0  0  0  0  0  0  0  0  0  0  0
    2.4879    7.4515    4.0070 H   0  0  0  0  0  0  0  0  0  0  0  0
    2.5323    9.1839    3.9533 H   0  0  0  0  0  0  0  0  0  0  0  0
    2.7129    8.3186    5.5093 H   0  0  0  0  0  0  0  0  0  0  0  0
    4.9870    6.1620    4.4477 H   0  0  0  0  0  0  0  0  0  0  0  0
    5.0949    7.0692    5.9366 H   0  0  0  0  0  0  0  0  0  0  0  0
    6.3272    7.2263    4.6404 H   0  0  0  0  0  0  0  0  0  0  0  0
    4.6076   10.4935    4.3670 H   0  0  0  0  0  0  0  0  0  0  0  0
    6.1401    9.6954    4.6395 H   0  0  0  0  0  0  0  0  0  0  0  0
    4.8994    9.6687    5.9227 H   0  0  0  0  0  0  0  0  0  0  0  0
    3.6343    6.2002    3.2258 H   0  0  0  0  0  0  0  0  0  0  0  0
    5.8831    7.2022   -1.3179 H   0  0  0  0  0  0  0  0  0  0  0  0
    5.1903    5.8915   -2.2350 H   0  0  0  0  0  0  0  0  0  0  0  0
    4.1301    2.6132    0.8714 H   0  0  0  0  0  0  0  0  0  0  0  0
    8.2584   -1.0060    0.7408 H   0  0  0  0  0  0  0  0  0  0  0  0
    9.5009    0.1497    1.0655 H   0  0  0  0  0  0  0  0  0  0  0  0
    2.9638    1.1388    2.5138 H   0  0  0  0  0  0  0  0  0  0  0  0
    3.7904   -0.3885    2.7880 H   0  0  0  0  0  0  0  0  0  0  0  0
    4.2380   -0.3688    0.1459 H   0  0  0  0  0  0  0  0  0  0  0  0
    1.3514   -0.8688    1.1222 H   0  0  0  0  0  0  0  0  0  0  0  0
    2.4119   -1.9469    0.1735 H   0  0  0  0  0  0  0  0  0  0  0  0
    0.8646    0.1694   -1.1217 H   0  0  0  0  0  0  0  0  0  0  0  0
    2.4457   -0.3414   -1.7731 H   0  0  0  0  0  0  0  0  0  0  0  0
    1.9307    1.7020    0.4903 H   0  0  0  0  0  0  0  0  0  0  0  0
    3.2173    1.7667   -0.7448 H   0  0  0  0  0  0  0  0  0  0  0  0
    9.3546    3.4758   -2.4344 H   0  0  0  0  0  0  0  0  0  0  0  0
    8.6761    3.7047   -4.0737 H   0  0  0  0  0  0  0  0  0  0  0  0
    8.2049    2.3172   -3.0947 H   0  0  0  0  0  0  0  0  0  0  0  0
    5.1287    4.1728   -3.3431 H   0  0  0  0  0  0  0  0  0  0  0  0
    5.9952    2.6403   -3.5197 H   0  0  0  0  0  0  0  0  0  0  0  0
    6.4341    4.0300   -4.5143 H   0  0  0  0  0  0  0  0  0  0  0  0
    1.3652    5.2458    2.2043 H   0  0  0  0  0  0  0  0  0  0  0  0
    1.8005    7.6580    1.9781 H   0  0  0  0  0  0  0  0  0  0  0  0
    0.3105    7.2185    1.1882 H   0  0  0  0  0  0  0  0  0  0  0  0
    2.9687    7.7793   -0.0897 H   0  0  0  0  0  0  0  0  0  0  0  0
    1.6284    8.7302   -0.2738 H   0  0  0  0  0  0  0  0  0  0  0  0
    2.0418    7.1264   -2.2542 H   0  0  0  0  0  0  0  0  0  0  0  0
    0.4128    7.1026   -1.5814 H   0  0  0  0  0  0  0  0  0  0  0  0
    2.3929    4.6946   -1.4658 H   0  0  0  0  0  0  0  0  0  0  0  0
    0.8588    4.8083   -2.0650 H   0  0  0  0  0  0  0  0  0  0  0  0
    1.2327    3.7389    0.2692 H   0  0  0  0  0  0  0  0  0  0  0  0
   -0.0216    4.9640    0.2087 H   0  0  0  0  0  0  0  0  0  0  0  0
  1  2  2  0  0  0  0
  2  3  1  0  0  0  0
  2  8  1  0  0  0  0
  3  4  1  0  0  0  0
  4  5  1  0  0  0  0
  4  6  1  0  0  0  0
  4  7  1  0  0  0  0
  5 45  1  0  0  0  0
  5 46  1  0  0  0  0
  5 47  1  0  0  0  0
  6 48  1  0  0  0  0
  6 49  1  0  0  0  0
  6 50  1  0  0  0  0
  7 51  1  0  0  0  0
  7 52  1  0  0  0  0
  7 53  1  0  0  0  0
  8 54  1  0  0  0  0
  9 11  1  0  0  0  0
  9 39  1  0  0  0  0
  9 10  1  1  0  0  0
  9  8  1  0  0  0  0
 11 12  2  0  0  0  0
 11 13  1  0  0  0  0
 13 14  1  0  0  0  0
 13 19  1  0  0  0  0
 14 15  1  0  0  0  0
 14 55  1  0  0  0  0
 14 56  1  0  0  0  0
 15 17  1  0  0  0  0
 15 36  1  0  0  0  0
 15 16  1  1  0  0  0
 17 19  1  0  0  0  0
 17 36  1  0  0  0  0
 17 18  1  1  0  0  0
 19 21  1  0  0  0  0
 19 20  1  6  0  0  0
 21 22  2  0  0  0  0
 21 23  1  0  0  0  0
 23 57  1  0  0  0  0
 24 26  1  0  0  0  0
 24 31  1  0  0  0  0
 24 25  1  1  0  0  0
 24 23  1  0  0  0  0
 26 27  2  0  0  0  0
 26 28  1  0  0  0  0
 28 29  2  0  0  0  0
 28 30  1  0  0  0  0
 30 58  1  0  0  0  0
 30 59  1  0  0  0  0
 31 32  1  0  0  0  0
 31 60  1  0  0  0  0
 31 61  1  0  0  0  0
 32 33  1  0  0  0  0
 32 35  1  0  0  0  0
 32 62  1  0  0  0  0
 33 34  1  0  0  0  0
 33 63  1  0  0  0  0
 33 64  1  0  0  0  0
 34 35  1  0  0  0  0
 34 65  1  0  0  0  0
 34 66  1  0  0  0  0
 35 67  1  0  0  0  0
 35 68  1  0  0  0  0
 36 37  1  0  0  0  0
 36 38  1  0  0  0  0
 37 69  1  0  0  0  0
 37 70  1  0  0  0  0
 37 71  1  0  0  0  0
 38 72  1  0  0  0  0
 38 73  1  0  0  0  0
 38 74  1  0  0  0  0
 39 40  1  0  0  0  0
 39 44  1  0  0  0  0
 39 75  1  0  0  0  0
 40 41  1  0  0  0  0
 40 76  1  0  0  0  0
 40 77  1  0  0  0  0
 41 42  1  0  0  0  0
 41 78  1  0  0  0  0
 41 79  1  0  0  0  0
 42 43  1  0  0  0  0
 42 80  1  0  0  0  0
 42 81  1  0  0  0  0
 43 44  1  0  0  0  0
 43 82  1  0  0  0  0
 43 83  1  0  0  0  0
 44 84  1  0  0  0  0
 44 85  1  0  0  0  0
M  END
$$$$
