HUD
 OpenBabel04121316133D

 80 82  0  0  1  0  0  0  0  0999 V2000
    4.6945   -1.9127    3.6589 O   0  0  0  0  0  0  0  0  0  0  0  0
    5.5415   -2.4146    2.9101 C   0  0  0  0  0  0  0  0  0  0  0  0
    5.6867   -3.8344    2.9076 O   0  0  0  0  0  0  0  0  0  0  0  0
    6.4192   -4.5578    1.8780 C   0  0  0  0  0  0  0  0  0  0  0  0
    5.8965   -3.9556    0.7476 C   0  0  0  0  0  0  0  0  0  0  0  0
    7.8148   -4.0447    1.6215 C   0  0  0  0  0  0  0  0  0  0  0  0
    6.0668   -5.9845    1.4715 C   0  0  0  0  0  0  0  0  0  0  0  0
    6.2165   -1.5202    1.9069 N   0  0  0  0  0  0  0  0  0  0  0  0
    6.4478   -1.7320    0.0911 C   0  0  1  0  0  0  0  0  0  0  0  0
    7.3483   -2.3661   -0.0097 H   0  0  0  0  0  0  0  0  0  0  0  0
    5.0403   -2.7130   -0.9724 C   0  0  0  0  0  0  0  0  0  0  0  0
    3.9991   -1.8293   -1.8698 C   0  0  0  0  0  0  0  0  0  0  0  0
    5.9267   -3.1252   -2.1854 C   0  0  0  0  0  0  0  0  0  0  0  0
    4.0897   -4.3323   -0.2345 C   0  0  0  0  0  0  0  0  0  0  0  0
    7.2891   -0.4409   -0.2631 C   0  0  0  0  0  0  0  0  0  0  0  0
    7.3032    0.5944    0.4161 O   0  0  0  0  0  0  0  0  0  0  0  0
    7.6598   -0.4057   -1.5607 N   0  0  0  0  0  0  0  0  0  0  0  0
    8.9910    0.0430   -1.6652 C   0  0  0  0  0  0  0  0  0  0  0  0
    9.1045    0.4272   -3.0893 C   0  0  1  0  0  0  0  0  0  0  0  0
    9.8269   -0.2155   -3.5652 H   0  0  0  0  0  0  0  0  0  0  0  0
    7.7023    0.5276   -3.6399 C   0  0  1  0  0  0  0  0  0  0  0  0
    7.3987    0.0117   -4.5423 H   0  0  0  0  0  0  0  0  0  0  0  0
    6.8297    0.3557   -2.4341 C   0  0  1  0  0  0  0  0  0  0  0  0
    6.5168    1.3940   -2.5425 H   0  0  0  0  0  0  0  0  0  0  0  0
    5.4334    0.1657   -2.0551 C   0  0  0  0  0  0  0  0  0  0  0  0
    4.6724    0.1996   -3.0381 O   0  0  0  0  0  0  0  0  0  0  0  0
    5.0793   -0.0887   -0.4869 N   0  0  0  0  0  0  0  0  0  0  0  0
    3.8555   -0.9633    0.4715 C   0  0  2  0  0  0  0  0  0  0  0  0
    4.2854   -1.5400    1.2750 H   0  0  0  0  0  0  0  0  0  0  0  0
    2.5725   -2.2980   -0.0900 C   0  0  2  0  0  0  0  0  0  0  0  0
    1.8222   -1.6849   -0.5896 H   0  0  0  0  0  0  0  0  0  0  0  0
    1.8429   -2.6964    1.0881 C   0  0  0  0  0  0  0  0  0  0  0  0
    1.5574   -3.8799    1.4406 O   0  0  0  0  0  0  0  0  0  0  0  0
    1.3664   -1.5516    1.6052 N   0  0  0  0  0  0  0  0  0  0  0  0
    2.4392   -3.3297   -1.2970 O   0  0  0  0  0  0  0  0  0  0  0  0
    3.5622    0.3001    1.2803 C   0  0  0  0  0  0  0  0  0  0  0  0
    3.2033    1.3501    0.2627 C   0  0  0  0  0  0  0  0  0  0  0  0
    2.7885    1.1234   -1.2485 C   0  0  0  0  0  0  0  0  0  0  0  0
    1.8072    1.4687   -0.2178 C   0  0  0  0  0  0  0  0  0  0  0  0
    8.6050    1.7980   -3.6138 C   0  0  0  0  0  0  0  0  0  0  0  0
    9.2316    2.4943   -4.7909 C   0  0  0  0  0  0  0  0  0  0  0  0
    8.2667    2.9972   -2.7044 C   0  0  0  0  0  0  0  0  0  0  0  0
    5.9857   -3.0248    1.0534 H   0  0  0  0  0  0  0  0  0  0  0  0
    5.0073   -3.3447    0.8709 H   0  0  0  0  0  0  0  0  0  0  0  0
    6.2450   -4.2534   -0.2491 H   0  0  0  0  0  0  0  0  0  0  0  0
    7.8914   -2.9671    1.8100 H   0  0  0  0  0  0  0  0  0  0  0  0
    8.1229   -4.1734    0.5599 H   0  0  0  0  0  0  0  0  0  0  0  0
    8.4486   -4.5085    2.3266 H   0  0  0  0  0  0  0  0  0  0  0  0
    4.9921   -6.2432    1.4510 H   0  0  0  0  0  0  0  0  0  0  0  0
    6.5580   -6.6149    2.1775 H   0  0  0  0  0  0  0  0  0  0  0  0
    6.4308   -6.2199    0.4412 H   0  0  0  0  0  0  0  0  0  0  0  0
    5.9699   -0.5742    2.1780 H   0  0  0  0  0  0  0  0  0  0  0  0
    4.0193   -0.8232   -1.7724 H   0  0  0  0  0  0  0  0  0  0  0  0
    3.2459   -1.3094   -1.3390 H   0  0  0  0  0  0  0  0  0  0  0  0
    3.3123   -2.0866   -2.6628 H   0  0  0  0  0  0  0  0  0  0  0  0
    6.2361   -2.2321   -2.7367 H   0  0  0  0  0  0  0  0  0  0  0  0
    5.3510   -3.7529   -2.8602 H   0  0  0  0  0  0  0  0  0  0  0  0
    6.8686   -3.5999   -1.9104 H   0  0  0  0  0  0  0  0  0  0  0  0
    3.7666   -4.2271    0.8838 H   0  0  0  0  0  0  0  0  0  0  0  0
    4.7066   -5.2227   -0.3143 H   0  0  0  0  0  0  0  0  0  0  0  0
    3.1934   -4.9215   -0.4960 H   0  0  0  0  0  0  0  0  0  0  0  0
    9.5708   -0.7994   -1.2728 H   0  0  0  0  0  0  0  0  0  0  0  0
    9.0967    0.9135   -1.0183 H   0  0  0  0  0  0  0  0  0  0  0  0
    5.6679    0.3780    0.2339 H   0  0  0  0  0  0  0  0  0  0  0  0
    1.6014   -0.6906    1.1230 H   0  0  0  0  0  0  0  0  0  0  0  0
    0.5351   -1.5603    2.1462 H   0  0  0  0  0  0  0  0  0  0  0  0
    3.2340   -3.7705   -1.7274 H   0  0  0  0  0  0  0  0  0  0  0  0
    4.4979    0.6927    1.7630 H   0  0  0  0  0  0  0  0  0  0  0  0
    2.9904    0.1303    2.1935 H   0  0  0  0  0  0  0  0  0  0  0  0
    3.9791    2.1204    0.2817 H   0  0  0  0  0  0  0  0  0  0  0  0
    2.4163    0.2709   -1.8159 H   0  0  0  0  0  0  0  0  0  0  0  0
    3.2567    1.7709   -1.9864 H   0  0  0  0  0  0  0  0  0  0  0  0
    1.1173    0.6489   -0.0706 H   0  0  0  0  0  0  0  0  0  0  0  0
    1.3668    2.4353   -0.2844 H   0  0  0  0  0  0  0  0  0  0  0  0
    9.6087    1.9711   -5.6600 H   0  0  0  0  0  0  0  0  0  0  0  0
   10.0701    3.0743   -4.3731 H   0  0  0  0  0  0  0  0  0  0  0  0
    8.5039    3.2417   -5.1427 H   0  0  0  0  0  0  0  0  0  0  0  0
    7.7674    2.8951   -1.7414 H   0  0  0  0  0  0  0  0  0  0  0  0
    7.6398    3.6797   -3.3007 H   0  0  0  0  0  0  0  0  0  0  0  0
    9.2100    3.5218   -2.5173 H   0  0  0  0  0  0  0  0  0  0  0  0
  1  2  2  0  0  0  0
  2  3  1  0  0  0  0
  2  8  1  0  0  0  0
  3  4  1  0  0  0  0
  4  5  1  0  0  0  0
  4  6  1  0  0  0  0
  4  7  1  0  0  0  0
  5 43  1  0  0  0  0
  5 44  1  0  0  0  0
  5 45  1  0  0  0  0
  6 46  1  0  0  0  0
  6 47  1  0  0  0  0
  6 48  1  0  0  0  0
  7 49  1  0  0  0  0
  7 50  1  0  0  0  0
  7 51  1  0  0  0  0
  8  9  1  0  0  0  0
  8 52  1  0  0  0  0
  9 10  1  6  0  0  0
  9 11  1  0  0  0  0
  9 15  1  0  0  0  0
 11 12  1  0  0  0  0
 11 13  1  0  0  0  0
 11 14  1  0  0  0  0
 12 53  1  0  0  0  0
 12 54  1  0  0  0  0
 12 55  1  0  0  0  0
 13 56  1  0  0  0  0
 13 57  1  0  0  0  0
 13 58  1  0  0  0  0
 14 59  1  0  0  0  0
 14 60  1  0  0  0  0
 14 61  1  0  0  0  0
 15 16  2  0  0  0  0
 15 17  1  0  0  0  0
 17 18  1  0  0  0  0
 17 23  1  0  0  0  0
 18 19  1  0  0  0  0
 18 62  1  0  0  0  0
 18 63  1  0  0  0  0
 19 21  1  0  0  0  0
 19 40  1  0  0  0  0
 19 20  1  6  0  0  0
 21 23  1  0  0  0  0
 21 40  1  0  0  0  0
 21 22  1  6  0  0  0
 23 24  1  1  0  0  0
 23 25  1  0  0  0  0
 25 26  2  0  0  0  0
 25 27  1  0  0  0  0
 27 64  1  0  0  0  0
 28 36  1  0  0  0  0
 28 29  1  1  0  0  0
 28 27  1  0  0  0  0
 30 32  1  0  0  0  0
 30 35  1  0  0  0  0
 30 31  1  6  0  0  0
 30 28  1  0  0  0  0
 32 33  2  0  0  0  0
 32 34  1  0  0  0  0
 34 65  1  0  0  0  0
 34 66  1  0  0  0  0
 35 67  1  0  0  0  0
 36 37  1  0  0  0  0
 36 68  1  0  0  0  0
 36 69  1  0  0  0  0
 37 38  1  0  0  0  0
 37 39  1  0  0  0  0
 37 70  1  0  0  0  0
 38 39  1  0  0  0  0
 38 71  1  0  0  0  0
 38 72  1  0  0  0  0
 39 73  1  0  0  0  0
 39 74  1  0  0  0  0
 40 41  1  0  0  0  0
 40 42  1  0  0  0  0
 41 75  1  0  0  0  0
 41 76  1  0  0  0  0
 41 77  1  0  0  0  0
 42 78  1  0  0  0  0
 42 79  1  0  0  0  0
 42 80  1  0  0  0  0
M  END
$$$$
