HXB
 OpenBabel04121316133D

 49 50  0  0  1  0  0  0  0  0999 V2000
   -1.3748   -1.9429   -0.0207 O   0  0  0  0  0  0  0  0  0  0  0  0
   -1.7569   -0.5839    0.2141 C   0  0  1  0  0  0  0  0  0  0  0  0
   -2.0723   -0.1697   -0.7543 H   0  0  0  0  0  0  0  0  0  0  0  0
   -2.9300   -0.3748    1.1045 C   0  0  0  0  0  0  0  0  0  0  0  0
   -2.7392    1.1211    1.3762 C   0  0  1  0  0  0  0  0  0  0  0  0
   -3.2694    1.4163    2.2851 H   0  0  0  0  0  0  0  0  0  0  0  0
   -1.3097    1.2721    1.5900 O   0  0  0  0  0  0  0  0  0  0  0  0
   -0.6005    0.2611    0.8351 C   0  0  1  0  0  0  0  0  0  0  0  0
    0.2919   -0.5881    1.7564 C   0  0  0  0  0  0  0  0  0  0  0  0
    0.4103    0.8850   -0.2001 C   0  0  0  0  0  0  0  0  0  0  0  0
    1.0344   -0.1926   -1.0416 O   0  0  0  0  0  0  0  0  0  0  0  0
    2.0527    0.5059   -2.2532 P   0  0  1  0  0  0  0  0  0  0  0  0
    3.2946    0.0399   -1.5005 O   0  0  0  0  0  0  0  0  0  0  0  0
    1.4409   -0.6810   -3.3201 O   0  0  0  0  0  0  0  0  0  0  0  0
    0.6082   -1.9062   -2.5291 P   0  0  2  0  0  0  0  0  0  0  0  0
    1.3057   -3.0951   -3.2253 O   0  0  0  0  0  0  0  0  0  0  0  0
   -0.8859   -2.3396   -3.2860 O   0  0  0  0  0  0  0  0  0  0  0  0
   -0.6471   -3.7397   -4.2737 P   0  0  0  0  0  0  0  0  0  0  0  0
   -1.5667   -4.5412   -3.3484 O   0  0  0  0  0  0  0  0  0  0  0  0
   -1.5835   -3.0745   -5.4324 O   0  0  0  0  0  0  0  0  0  0  0  0
   -0.4083   -5.1398   -5.2614 O   0  0  0  0  0  0  0  0  0  0  0  0
   -0.1733   -0.5744   -1.7491 O   0  0  0  0  0  0  0  0  0  0  0  0
    3.0711    1.2044   -3.4648 O   0  0  0  0  0  0  0  0  0  0  0  0
   -3.2437    1.9879    0.2610 N   0  0  0  0  0  0  0  0  0  0  0  0
   -4.5775    1.8522   -0.1212 C   0  0  0  0  0  0  0  0  0  0  0  0
   -5.0661    2.3849   -1.2520 C   0  0  0  0  0  0  0  0  0  0  0  0
   -6.4282    2.1355   -1.8093 C   0  0  0  0  0  0  0  0  0  0  0  0
   -4.1800    3.2552   -2.0461 C   0  0  0  0  0  0  0  0  0  0  0  0
   -4.5098    3.7086   -3.1445 O   0  0  0  0  0  0  0  0  0  0  0  0
   -2.9826    3.5369   -1.4794 N   0  0  0  0  0  0  0  0  0  0  0  0
   -2.3684    4.1551   -1.9860 H   0  0  0  0  0  0  0  0  0  0  0  0
   -2.4279    2.9054   -0.3990 C   0  0  0  0  0  0  0  0  0  0  0  0
   -1.2647    3.1853   -0.1338 O   0  0  0  0  0  0  0  0  0  0  0  0
   -2.1628   -2.4758   -0.2525 H   0  0  0  0  0  0  0  0  0  0  0  0
   -2.8408   -0.9952    2.0004 H   0  0  0  0  0  0  0  0  0  0  0  0
   -3.8572   -0.6544    0.5922 H   0  0  0  0  0  0  0  0  0  0  0  0
   -0.2781   -1.0624    2.5560 H   0  0  0  0  0  0  0  0  0  0  0  0
    1.0643    0.0347    2.2224 H   0  0  0  0  0  0  0  0  0  0  0  0
    0.8151   -1.3744    1.1938 H   0  0  0  0  0  0  0  0  0  0  0  0
    1.1949    1.4896    0.2625 H   0  0  0  0  0  0  0  0  0  0  0  0
   -0.1099    1.5208   -0.9211 H   0  0  0  0  0  0  0  0  0  0  0  0
   -1.7678   -2.1427   -5.2279 H   0  0  0  0  0  0  0  0  0  0  0  0
    0.0897   -5.7843   -4.7291 H   0  0  0  0  0  0  0  0  0  0  0  0
   -0.4578   -1.1928   -1.0440 H   0  0  0  0  0  0  0  0  0  0  0  0
    3.4608    2.0231   -3.1108 H   0  0  0  0  0  0  0  0  0  0  0  0
   -5.2144    1.2444    0.5168 H   0  0  0  0  0  0  0  0  0  0  0  0
   -7.0198    1.4822   -1.1619 H   0  0  0  0  0  0  0  0  0  0  0  0
   -6.3440    1.6431   -2.7857 H   0  0  0  0  0  0  0  0  0  0  0  0
   -6.9738    3.0744   -1.9445 H   0  0  0  0  0  0  0  0  0  0  0  0
  1  2  1  0  0  0  0
  1 34  1  0  0  0  0
  2  3  1  6  0  0  0
  2  4  1  0  0  0  0
  2  8  1  0  0  0  0
  4  5  1  0  0  0  0
  4 35  1  0  0  0  0
  4 36  1  0  0  0  0
  5  6  1  1  0  0  0
  5  7  1  0  0  0  0
  5 24  1  0  0  0  0
  7  8  1  0  0  0  0
  8  9  1  1  0  0  0
  8 10  1  0  0  0  0
  9 37  1  0  0  0  0
  9 38  1  0  0  0  0
  9 39  1  0  0  0  0
 10 11  1  0  0  0  0
 10 40  1  0  0  0  0
 10 41  1  0  0  0  0
 12 11  1  1  0  0  0
 12 13  2  0  0  0  0
 12 14  1  0  0  0  0
 12 23  1  0  0  0  0
 15 17  1  6  0  0  0
 15 22  1  0  0  0  0
 15 16  2  0  0  0  0
 15 14  1  0  0  0  0
 17 18  1  0  0  0  0
 18 19  2  0  0  0  0
 18 20  1  0  0  0  0
 18 21  1  0  0  0  0
 20 42  1  0  0  0  0
 21 43  1  0  0  0  0
 22 44  1  0  0  0  0
 23 45  1  0  0  0  0
 24 25  1  0  0  0  0
 24 32  1  0  0  0  0
 25 26  2  0  0  0  0
 25 46  1  0  0  0  0
 26 27  1  0  0  0  0
 26 28  1  0  0  0  0
 27 47  1  0  0  0  0
 27 48  1  0  0  0  0
 27 49  1  0  0  0  0
 28 29  2  0  0  0  0
 28 30  1  0  0  0  0
 30 31  1  0  0  0  0
 30 32  1  0  0  0  0
 32 33  2  0  0  0  0
M  END
$$$$
