HYI
 OpenBabel04121316133D

 33 32  0  0  1  0  0  0  0  0999 V2000
    5.7516    5.4358    0.4652 O   0  0  0  0  0  0  0  0  0  0  0  0
    5.6484    4.4088   -0.5116 N   0  0  0  0  0  0  0  0  0  0  0  0
    4.4889    3.6494   -0.4252 C   0  0  0  0  0  0  0  0  0  0  0  0
    3.5119    3.9849    0.2455 O   0  0  0  0  0  0  0  0  0  0  0  0
    4.4431    2.3887   -1.3459 C   0  0  1  0  0  0  0  0  0  0  0  0
    4.8406    2.6456   -2.3342 H   0  0  0  0  0  0  0  0  0  0  0  0
    5.1239    1.1105   -0.7880 C   0  0  2  0  0  0  0  0  0  0  0  0
    4.6911    0.8791    0.1936 H   0  0  0  0  0  0  0  0  0  0  0  0
    6.6540    1.1161   -0.7062 C   0  0  0  0  0  0  0  0  0  0  0  0
    7.2021    2.2005    0.6419 S   0  0  0  0  0  0  0  0  0  0  0  0
    8.9434    2.3987    0.2583 C   0  0  0  0  0  0  0  0  0  0  0  0
    9.5056    3.5913    1.0366 C   0  0  0  0  0  0  0  0  0  0  0  0
   11.0405    3.6181    1.0215 C   0  0  1  0  0  0  0  0  0  0  0  0
   11.4456    2.6770    1.4084 H   0  0  0  0  0  0  0  0  0  0  0  0
   11.6182    3.8616   -0.3969 C   0  0  0  0  0  0  0  0  0  0  0  0
   12.2161    4.8824   -0.7342 O   0  0  0  0  0  0  0  0  0  0  0  0
   11.4030    2.8749   -1.2950 O   0  0  0  0  0  0  0  0  0  0  0  0
   11.5064    4.6936    1.9223 N   0  0  0  0  0  0  0  0  0  0  0  0
    4.8046   -0.0020   -1.6575 O   0  0  0  0  0  0  0  0  0  0  0  0
    3.0601    2.0222   -1.5485 O   0  0  0  0  0  0  0  0  0  0  0  0
    6.7097    5.5400    0.6091 H   0  0  0  0  0  0  0  0  0  0  0  0
    6.5194    3.9404   -0.7403 H   0  0  0  0  0  0  0  0  0  0  0  0
    7.0802    1.3531   -1.6916 H   0  0  0  0  0  0  0  0  0  0  0  0
    7.0032    0.1048   -0.4619 H   0  0  0  0  0  0  0  0  0  0  0  0
    9.0471    2.5657   -0.8166 H   0  0  0  0  0  0  0  0  0  0  0  0
    9.4487    1.4747    0.5492 H   0  0  0  0  0  0  0  0  0  0  0  0
    9.1641    3.5383    2.0811 H   0  0  0  0  0  0  0  0  0  0  0  0
    9.1080    4.5295    0.6235 H   0  0  0  0  0  0  0  0  0  0  0  0
   11.0265    2.0409   -0.9654 H   0  0  0  0  0  0  0  0  0  0  0  0
   11.0855    4.6356    2.8463 H   0  0  0  0  0  0  0  0  0  0  0  0
   11.2500    5.6023    1.5270 H   0  0  0  0  0  0  0  0  0  0  0  0
    4.8616   -0.8164   -1.1281 H   0  0  0  0  0  0  0  0  0  0  0  0
    2.5618    2.8352   -1.7364 H   0  0  0  0  0  0  0  0  0  0  0  0
  1  2  1  0  0  0  0
  1 21  1  0  0  0  0
  2  3  1  0  0  0  0
  2 22  1  0  0  0  0
  3  4  2  0  0  0  0
  3  5  1  0  0  0  0
  5  6  1  6  0  0  0
  5 20  1  0  0  0  0
  7  9  1  0  0  0  0
  7 19  1  0  0  0  0
  7  8  1  1  0  0  0
  7  5  1  0  0  0  0
  9 10  1  0  0  0  0
  9 23  1  0  0  0  0
  9 24  1  0  0  0  0
 10 11  1  0  0  0  0
 11 12  1  0  0  0  0
 11 25  1  0  0  0  0
 11 26  1  0  0  0  0
 12 13  1  0  0  0  0
 12 27  1  0  0  0  0
 12 28  1  0  0  0  0
 13 14  1  1  0  0  0
 13 15  1  0  0  0  0
 13 18  1  0  0  0  0
 15 16  2  0  0  0  0
 15 17  1  0  0  0  0
 17 29  1  0  0  0  0
 18 30  1  0  0  0  0
 18 31  1  0  0  0  0
 19 32  1  0  0  0  0
 20 33  1  0  0  0  0
M  END
$$$$
