HYP
 OpenBabel04121316133D

 18 18  0  0  1  0  0  0  0  0999 V2000
    0.9884   -0.1019    0.0720 O   0  0  0  0  0  0  0  0  0  0  0  0
    2.4066   -0.0840    0.0753 C   0  0  1  0  0  0  0  0  0  0  0  0
    2.7681    0.0071   -0.9562 H   0  0  0  0  0  0  0  0  0  0  0  0
    2.9693    1.0187    0.9599 C   0  0  0  0  0  0  0  0  0  0  0  0
    4.2971    0.5311    1.2922 N   0  0  0  0  0  0  0  0  0  0  0  0
    4.2007   -0.9330    1.4738 C   0  0  1  0  0  0  0  0  0  0  0  0
    4.1002   -1.1590    2.5428 H   0  0  0  0  0  0  0  0  0  0  0  0
    2.9469   -1.3585    0.7110 C   0  0  0  0  0  0  0  0  0  0  0  0
    5.4690   -1.6351    0.9522 C   0  0  0  0  0  0  0  0  0  0  0  0
    6.4471   -1.0722    0.4771 O   0  0  0  0  0  0  0  0  0  0  0  0
    5.4496   -2.9843    1.1011 O   0  0  0  0  0  0  0  0  0  0  0  0
    0.6914    0.7153   -0.3662 H   0  0  0  0  0  0  0  0  0  0  0  0
    2.3570    1.1647    1.8572 H   0  0  0  0  0  0  0  0  0  0  0  0
    3.0117    1.9746    0.4278 H   0  0  0  0  0  0  0  0  0  0  0  0
    4.6992    0.9902    2.1067 H   0  0  0  0  0  0  0  0  0  0  0  0
    2.2094   -1.7854    1.4022 H   0  0  0  0  0  0  0  0  0  0  0  0
    3.1431   -2.1120   -0.0591 H   0  0  0  0  0  0  0  0  0  0  0  0
    4.6438   -3.3557    1.5047 H   0  0  0  0  0  0  0  0  0  0  0  0
  1  2  1  0  0  0  0
  1 12  1  0  0  0  0
  2  3  1  6  0  0  0
  2  4  1  0  0  0  0
  2  8  1  0  0  0  0
  4  5  1  0  0  0  0
  4 13  1  0  0  0  0
  4 14  1  0  0  0  0
  5  6  1  0  0  0  0
  5 15  1  0  0  0  0
  6  7  1  1  0  0  0
  6  8  1  0  0  0  0
  6  9  1  0  0  0  0
  8 16  1  0  0  0  0
  8 17  1  0  0  0  0
  9 10  2  0  0  0  0
  9 11  1  0  0  0  0
 11 18  1  0  0  0  0
M  END
$$$$
