HZH
 OpenBabel04121316133D

 27 27  0  0  0  0  0  0  0  0999 V2000
    1.0437    0.0173    0.0622 O   0  0  0  0  0  0  0  0  0  0  0  0
    2.2738    0.0144   -0.0465 C   0  0  0  0  0  0  0  0  0  0  0  0
    2.9728   -0.0180   -1.4051 C   0  0  0  0  0  0  0  0  0  0  0  0
    3.7603    1.0748   -1.6165 F   0  0  0  0  0  0  0  0  0  0  0  0
    3.7602   -1.1196   -1.5643 F   0  0  0  0  0  0  0  0  0  0  0  0
    2.1007   -0.0428   -2.4516 F   0  0  0  0  0  0  0  0  0  0  0  0
    3.1257    0.0446    1.2195 C   0  0  0  0  0  0  0  0  0  0  0  0
    4.8993    0.0336    0.8507 S   0  0  0  0  0  0  0  0  0  0  0  0
    5.6662    0.0791    2.4828 C   0  0  0  0  0  0  0  0  0  0  0  0
    7.1705    0.0827    2.2111 C   0  0  0  0  0  0  0  0  0  0  0  0
    7.9630    0.1321    3.4839 C   0  0  0  0  0  0  0  0  0  0  0  0
    8.2804    1.3638    4.0665 C   0  0  0  0  0  0  0  0  0  0  0  0
    9.1346    1.4124    5.1639 C   0  0  0  0  0  0  0  0  0  0  0  0
    9.5831    0.2291    5.7483 C   0  0  0  0  0  0  0  0  0  0  0  0
    9.1680   -1.0024    5.2445 C   0  0  0  0  0  0  0  0  0  0  0  0
    8.3959   -1.0529    4.0879 C   0  0  0  0  0  0  0  0  0  0  0  0
    2.8655   -0.8353    1.8175 H   0  0  0  0  0  0  0  0  0  0  0  0
    2.8666    0.9528    1.7741 H   0  0  0  0  0  0  0  0  0  0  0  0
    5.3786   -0.8014    3.0658 H   0  0  0  0  0  0  0  0  0  0  0  0
    5.3648    0.9825    3.0221 H   0  0  0  0  0  0  0  0  0  0  0  0
    7.4604    0.9405    1.5860 H   0  0  0  0  0  0  0  0  0  0  0  0
    7.4706   -0.8090    1.6409 H   0  0  0  0  0  0  0  0  0  0  0  0
    7.8850    2.2886    3.6519 H   0  0  0  0  0  0  0  0  0  0  0  0
    9.4531    2.3725    5.5596 H   0  0  0  0  0  0  0  0  0  0  0  0
   10.2555    0.2669    6.6002 H   0  0  0  0  0  0  0  0  0  0  0  0
    9.4603   -1.9232    5.7408 H   0  0  0  0  0  0  0  0  0  0  0  0
    8.1434   -2.0174    3.6526 H   0  0  0  0  0  0  0  0  0  0  0  0
  1  2  2  0  0  0  0
  2  3  1  0  0  0  0
  2  7  1  0  0  0  0
  3  4  1  0  0  0  0
  3  5  1  0  0  0  0
  3  6  1  0  0  0  0
  7  8  1  0  0  0  0
  7 17  1  0  0  0  0
  7 18  1  0  0  0  0
  8  9  1  0  0  0  0
  9 10  1  0  0  0  0
  9 19  1  0  0  0  0
  9 20  1  0  0  0  0
 10 11  1  0  0  0  0
 10 21  1  0  0  0  0
 10 22  1  0  0  0  0
 11 12  2  0  0  0  0
 11 16  1  0  0  0  0
 12 13  1  0  0  0  0
 12 23  1  0  0  0  0
 13 14  2  0  0  0  0
 13 24  1  0  0  0  0
 14 15  1  0  0  0  0
 14 25  1  0  0  0  0
 15 16  2  0  0  0  0
 15 26  1  0  0  0  0
 16 27  1  0  0  0  0
M  END
$$$$
