I06
 OpenBabel04121316133D

 34 36  0  0  0  0  0  0  0  0999 V2000
    0.9165   -0.0458   -0.0398 O   0  0  0  0  0  0  0  0  0  0  0  0
    2.1488   -0.0377   -0.0209 C   0  0  0  0  0  0  0  0  0  0  0  0
    2.8574   -1.1872   -0.1221 N   0  0  0  0  0  0  0  0  0  0  0  0
    2.3046   -2.0324   -0.1943 H   0  0  0  0  0  0  0  0  0  0  0  0
    4.2436   -1.2270   -0.0675 N   0  0  0  0  0  0  0  0  0  0  0  0
    4.8779   -2.4985   -0.2002 C   0  0  0  0  0  0  0  0  0  0  0  0
    3.9461   -3.6877   -0.2693 C   0  0  0  0  0  0  0  0  0  0  0  0
    4.6861   -4.9787   -0.3640 C   0  0  0  0  0  0  0  0  0  0  0  0
    6.0297   -5.0313   -0.7594 C   0  0  0  0  0  0  0  0  0  0  0  0
    6.6252   -6.2438   -1.0429 C   0  0  0  0  0  0  0  0  0  0  0  0
    5.9239   -7.4164   -0.7983 C   0  0  0  0  0  0  0  0  0  0  0  0
    4.6326   -7.3749   -0.2700 C   0  0  0  0  0  0  0  0  0  0  0  0
    3.9867   -6.1580   -0.1137 C   0  0  0  0  0  0  0  0  0  0  0  0
    5.0379   -0.1055   -0.0148 C   0  0  0  0  0  0  0  0  0  0  0  0
    6.2682   -0.1357   -0.0378 O   0  0  0  0  0  0  0  0  0  0  0  0
    4.3238    1.1663    0.0384 C   0  0  0  0  0  0  0  0  0  0  0  0
    2.9299    1.1967    0.0606 C   0  0  0  0  0  0  0  0  0  0  0  0
    2.2611    2.4118    0.0856 C   0  0  0  0  0  0  0  0  0  0  0  0
    2.9895    3.5796   -0.1058 C   0  0  0  0  0  0  0  0  0  0  0  0
    4.3797    3.5356   -0.2333 C   0  0  0  0  0  0  0  0  0  0  0  0
    5.0587    2.3447   -0.0263 C   0  0  0  0  0  0  0  0  0  0  0  0
    5.5609   -2.6008    0.6540 H   0  0  0  0  0  0  0  0  0  0  0  0
    5.4960   -2.4328   -1.1062 H   0  0  0  0  0  0  0  0  0  0  0  0
    3.3017   -3.6002   -1.1559 H   0  0  0  0  0  0  0  0  0  0  0  0
    3.3019   -3.6989    0.6196 H   0  0  0  0  0  0  0  0  0  0  0  0
    6.6390   -4.1388   -0.8752 H   0  0  0  0  0  0  0  0  0  0  0  0
    7.6320   -6.2562   -1.4474 H   0  0  0  0  0  0  0  0  0  0  0  0
    6.3936   -8.3682   -1.0143 H   0  0  0  0  0  0  0  0  0  0  0  0
    4.1221   -8.2916    0.0034 H   0  0  0  0  0  0  0  0  0  0  0  0
    2.9451   -6.1259    0.2014 H   0  0  0  0  0  0  0  0  0  0  0  0
    1.1797    2.4352    0.1936 H   0  0  0  0  0  0  0  0  0  0  0  0
    2.4673    4.5279   -0.1686 H   0  0  0  0  0  0  0  0  0  0  0  0
    4.9372    4.4257   -0.5059 H   0  0  0  0  0  0  0  0  0  0  0  0
    6.1453    2.3226    0.0306 H   0  0  0  0  0  0  0  0  0  0  0  0
  1  2  2  0  0  0  0
  2  3  1  0  0  0  0
  2 17  1  0  0  0  0
  3  4  1  0  0  0  0
  3  5  1  0  0  0  0
  5  6  1  0  0  0  0
  5 14  1  0  0  0  0
  6  7  1  0  0  0  0
  6 22  1  0  0  0  0
  6 23  1  0  0  0  0
  7  8  1  0  0  0  0
  7 24  1  0  0  0  0
  7 25  1  0  0  0  0
  8  9  2  0  0  0  0
  8 13  1  0  0  0  0
  9 10  1  0  0  0  0
  9 26  1  0  0  0  0
 10 11  2  0  0  0  0
 10 27  1  0  0  0  0
 11 12  1  0  0  0  0
 11 28  1  0  0  0  0
 12 13  2  0  0  0  0
 12 29  1  0  0  0  0
 13 30  1  0  0  0  0
 14 15  2  0  0  0  0
 14 16  1  0  0  0  0
 16 17  2  0  0  0  0
 16 21  1  0  0  0  0
 17 18  1  0  0  0  0
 18 19  2  0  0  0  0
 18 31  1  0  0  0  0
 19 20  1  0  0  0  0
 19 32  1  0  0  0  0
 20 21  2  0  0  0  0
 20 33  1  0  0  0  0
 21 34  1  0  0  0  0
M  END
$$$$
