I12
 OpenBabel04121316133D

 90 91  0  0  1  0  0  0  0  0999 V2000
   18.6366   -3.8544   -8.6437 C   0  0  0  0  0  0  0  0  0  0  0  0
   17.9950   -5.1079   -8.0899 C   0  0  0  0  0  0  0  0  0  0  0  0
   16.5967   -4.9058   -7.9555 O   0  0  0  0  0  0  0  0  0  0  0  0
   15.9756   -6.0133   -7.4558 C   0  0  0  0  0  0  0  0  0  0  0  0
   16.4720   -7.0709   -7.1573 O   0  0  0  0  0  0  0  0  0  0  0  0
   14.5586   -5.6803   -7.3617 C   0  0  0  0  0  0  0  0  0  0  0  0
   13.6074   -6.5562   -7.0174 C   0  0  0  0  0  0  0  0  0  0  0  0
   12.1363   -6.2574   -7.0068 C   0  0  2  0  0  0  0  0  0  0  0  0
   11.7633   -6.6067   -6.0365 H   0  0  0  0  0  0  0  0  0  0  0  0
   11.3755   -6.9173   -8.1562 C   0  0  0  0  0  0  0  0  0  0  0  0
    9.8899   -6.5314   -8.0902 C   0  0  2  0  0  0  0  0  0  0  0  0
    9.7225   -5.4497   -8.1458 H   0  0  0  0  0  0  0  0  0  0  0  0
    9.1976   -7.1179   -6.8548 C   0  0  0  0  0  0  0  0  0  0  0  0
    8.8774   -8.5271   -7.3041 C   0  0  0  0  0  0  0  0  0  0  0  0
    8.5753   -8.3511   -8.6928 N   0  0  0  0  0  0  0  0  0  0  0  0
    9.1266   -7.1940   -9.2069 C   0  0  0  0  0  0  0  0  0  0  0  0
    9.0246   -6.8050  -10.3557 O   0  0  0  0  0  0  0  0  0  0  0  0
   11.8804   -4.8421   -7.0464 N   0  0  0  0  0  0  0  0  0  0  0  0
   12.1676   -4.0575   -8.1419 C   0  0  0  0  0  0  0  0  0  0  0  0
   12.5762   -4.5066   -9.2121 O   0  0  0  0  0  0  0  0  0  0  0  0
   11.9722   -2.5644   -7.9353 C   0  0  1  0  0  0  0  0  0  0  0  0
   10.9076   -2.3335   -7.8853 H   0  0  0  0  0  0  0  0  0  0  0  0
   12.6182   -2.2047   -6.6899 N   0  0  0  0  0  0  0  0  0  0  0  0
   12.2676   -2.4559   -5.4055 C   0  0  0  0  0  0  0  0  0  0  0  0
   11.2240   -3.0455   -5.1229 O   0  0  0  0  0  0  0  0  0  0  0  0
   13.2973   -1.9342   -4.3505 C   0  0  2  0  0  0  0  0  0  0  0  0
   12.8987   -0.9564   -4.0414 H   0  0  0  0  0  0  0  0  0  0  0  0
   14.8122   -1.7694   -4.7032 C   0  0  0  0  0  0  0  0  0  0  0  0
   15.4832   -3.0803   -5.0872 C   0  0  0  0  0  0  0  0  0  0  0  0
   15.1460   -0.7843   -5.8087 C   0  0  0  0  0  0  0  0  0  0  0  0
   13.1944   -2.8118   -3.1961 N   0  0  0  0  0  0  0  0  0  0  0  0
   13.3455   -4.1798   -3.3149 C   0  0  0  0  0  0  0  0  0  0  0  0
   13.4598   -4.7424   -4.4018 O   0  0  0  0  0  0  0  0  0  0  0  0
   13.3088   -4.9894   -2.0216 C   0  0  1  0  0  0  0  0  0  0  0  0
   13.9113   -4.4976   -1.2490 H   0  0  0  0  0  0  0  0  0  0  0  0
   11.9250   -5.0517   -1.5932 N   0  0  0  0  0  0  0  0  0  0  0  0
   11.2754   -3.9107   -1.1885 C   0  0  0  0  0  0  0  0  0  0  0  0
   11.8440   -2.8242   -1.0722 O   0  0  0  0  0  0  0  0  0  0  0  0
    9.8563   -4.0194   -0.9455 C   0  0  0  0  0  0  0  0  0  0  0  0
    9.1843   -5.1743   -0.8159 N   0  0  0  0  0  0  0  0  0  0  0  0
    7.8837   -4.7962   -0.4787 O   0  0  0  0  0  0  0  0  0  0  0  0
    7.8067   -3.4381   -0.4516 C   0  0  0  0  0  0  0  0  0  0  0  0
    9.0180   -2.9030   -0.7702 C   0  0  0  0  0  0  0  0  0  0  0  0
    6.5364   -2.7982   -0.0964 C   0  0  0  0  0  0  0  0  0  0  0  0
   13.8615   -6.3771   -2.3436 C   0  0  0  0  0  0  0  0  0  0  0  0
   12.6854   -1.8542   -9.1137 C   0  0  0  0  0  0  0  0  0  0  0  0
   12.5190   -0.3258   -9.1472 C   0  0  0  0  0  0  0  0  0  0  0  0
   13.1676    0.4186   -7.9901 C   0  0  0  0  0  0  0  0  0  0  0  0
   13.1514    0.2290  -10.4197 C   0  0  0  0  0  0  0  0  0  0  0  0
   19.7164   -3.9999   -8.7330 H   0  0  0  0  0  0  0  0  0  0  0  0
   18.4459   -2.9959   -7.9916 H   0  0  0  0  0  0  0  0  0  0  0  0
   18.2290   -3.6072   -9.6293 H   0  0  0  0  0  0  0  0  0  0  0  0
   18.4113   -5.3265   -7.1021 H   0  0  0  0  0  0  0  0  0  0  0  0
   18.1733   -5.9456   -8.7713 H   0  0  0  0  0  0  0  0  0  0  0  0
   14.3466   -4.6594   -7.6316 H   0  0  0  0  0  0  0  0  0  0  0  0
   13.8971   -7.5593   -6.7157 H   0  0  0  0  0  0  0  0  0  0  0  0
   11.5331   -8.0000   -8.1556 H   0  0  0  0  0  0  0  0  0  0  0  0
   11.7719   -6.5910   -9.1245 H   0  0  0  0  0  0  0  0  0  0  0  0
    8.2742   -6.5585   -6.6616 H   0  0  0  0  0  0  0  0  0  0  0  0
    9.7823   -7.0951   -5.9334 H   0  0  0  0  0  0  0  0  0  0  0  0
    8.0305   -8.9571   -6.7705 H   0  0  0  0  0  0  0  0  0  0  0  0
    9.7471   -9.1883   -7.2199 H   0  0  0  0  0  0  0  0  0  0  0  0
    8.0398   -8.9764   -9.2795 H   0  0  0  0  0  0  0  0  0  0  0  0
   11.5134   -4.4090   -6.1992 H   0  0  0  0  0  0  0  0  0  0  0  0
   13.3161   -1.5175   -6.8028 H   0  0  0  0  0  0  0  0  0  0  0  0
   15.3063   -1.3896   -3.7992 H   0  0  0  0  0  0  0  0  0  0  0  0
   14.8868   -3.5625   -5.8594 H   0  0  0  0  0  0  0  0  0  0  0  0
   15.5878   -3.7390   -4.2247 H   0  0  0  0  0  0  0  0  0  0  0  0
   16.4868   -2.9460   -5.4902 H   0  0  0  0  0  0  0  0  0  0  0  0
   14.9852   -1.2487   -6.7838 H   0  0  0  0  0  0  0  0  0  0  0  0
   16.2110   -0.5518   -5.8504 H   0  0  0  0  0  0  0  0  0  0  0  0
   14.5828    0.1443   -5.6940 H   0  0  0  0  0  0  0  0  0  0  0  0
   12.7885   -2.4384   -2.3377 H   0  0  0  0  0  0  0  0  0  0  0  0
   11.3831   -5.8984   -1.7274 H   0  0  0  0  0  0  0  0  0  0  0  0
    9.2877   -1.8592   -0.8319 H   0  0  0  0  0  0  0  0  0  0  0  0
    5.7522   -3.5238    0.1221 H   0  0  0  0  0  0  0  0  0  0  0  0
    6.2127   -2.1571   -0.9223 H   0  0  0  0  0  0  0  0  0  0  0  0
    6.6854   -2.1611    0.7823 H   0  0  0  0  0  0  0  0  0  0  0  0
   14.9114   -6.3095   -2.6564 H   0  0  0  0  0  0  0  0  0  0  0  0
   13.3126   -6.8370   -3.1769 H   0  0  0  0  0  0  0  0  0  0  0  0
   13.7868   -7.0530   -1.4909 H   0  0  0  0  0  0  0  0  0  0  0  0
   12.2873   -2.2596  -10.0551 H   0  0  0  0  0  0  0  0  0  0  0  0
   13.7588   -2.1154   -9.1201 H   0  0  0  0  0  0  0  0  0  0  0  0
   11.4474   -0.1083   -9.1413 H   0  0  0  0  0  0  0  0  0  0  0  0
   14.2335    0.1784   -7.9708 H   0  0  0  0  0  0  0  0  0  0  0  0
   12.6854    0.1953   -7.0370 H   0  0  0  0  0  0  0  0  0  0  0  0
   13.0983    1.5021   -8.0849 H   0  0  0  0  0  0  0  0  0  0  0  0
   14.2253    0.0059  -10.4565 H   0  0  0  0  0  0  0  0  0  0  0  0
   13.0358    1.3169  -10.4440 H   0  0  0  0  0  0  0  0  0  0  0  0
   12.6805   -0.1910  -11.3106 H   0  0  0  0  0  0  0  0  0  0  0  0
  1  2  1  0  0  0  0
  1 50  1  0  0  0  0
  1 51  1  0  0  0  0
  1 52  1  0  0  0  0
  2  3  1  0  0  0  0
  2 53  1  0  0  0  0
  2 54  1  0  0  0  0
  3  4  1  0  0  0  0
  4  5  2  0  0  0  0
  4  6  1  0  0  0  0
  6  7  2  0  0  0  0
  6 55  1  0  0  0  0
  7 56  1  0  0  0  0
  8 10  1  0  0  0  0
  8 18  1  0  0  0  0
  8  9  1  1  0  0  0
  8  7  1  0  0  0  0
 10 57  1  0  0  0  0
 10 58  1  0  0  0  0
 11 13  1  0  0  0  0
 11 16  1  0  0  0  0
 11 12  1  6  0  0  0
 11 10  1  0  0  0  0
 13 14  1  0  0  0  0
 13 59  1  0  0  0  0
 13 60  1  0  0  0  0
 14 15  1  0  0  0  0
 14 61  1  0  0  0  0
 14 62  1  0  0  0  0
 15 16  1  0  0  0  0
 15 63  1  0  0  0  0
 16 17  2  0  0  0  0
 18 19  1  0  0  0  0
 18 64  1  0  0  0  0
 19 20  2  0  0  0  0
 19 21  1  0  0  0  0
 21 22  1  1  0  0  0
 21 23  1  0  0  0  0
 21 46  1  0  0  0  0
 23 24  1  0  0  0  0
 23 65  1  0  0  0  0
 24 25  2  0  0  0  0
 26 28  1  0  0  0  0
 26 31  1  0  0  0  0
 26 27  1  1  0  0  0
 26 24  1  0  0  0  0
 28 29  1  0  0  0  0
 28 30  1  0  0  0  0
 28 66  1  0  0  0  0
 29 67  1  0  0  0  0
 29 68  1  0  0  0  0
 29 69  1  0  0  0  0
 30 70  1  0  0  0  0
 30 71  1  0  0  0  0
 30 72  1  0  0  0  0
 31 32  1  0  0  0  0
 31 73  1  0  0  0  0
 32 33  2  0  0  0  0
 32 34  1  0  0  0  0
 34 35  1  1  0  0  0
 34 36  1  0  0  0  0
 34 45  1  0  0  0  0
 36 37  1  0  0  0  0
 36 74  1  0  0  0  0
 37 38  2  0  0  0  0
 37 39  1  0  0  0  0
 39 40  2  0  0  0  0
 39 43  1  0  0  0  0
 40 41  1  0  0  0  0
 41 42  1  0  0  0  0
 42 43  2  0  0  0  0
 42 44  1  0  0  0  0
 43 75  1  0  0  0  0
 44 76  1  0  0  0  0
 44 77  1  0  0  0  0
 44 78  1  0  0  0  0
 45 79  1  0  0  0  0
 45 80  1  0  0  0  0
 45 81  1  0  0  0  0
 46 47  1  0  0  0  0
 46 82  1  0  0  0  0
 46 83  1  0  0  0  0
 47 48  1  0  0  0  0
 47 49  1  0  0  0  0
 47 84  1  0  0  0  0
 48 85  1  0  0  0  0
 48 86  1  0  0  0  0
 48 87  1  0  0  0  0
 49 88  1  0  0  0  0
 49 89  1  0  0  0  0
 49 90  1  0  0  0  0
M  END
$$$$
