I1H
 OpenBabel04121316133D

 64 67  0  0  0  0  0  0  0  0999 V2000
    1.0042    0.3652   -0.0728 C   0  0  0  0  0  0  0  0  0  0  0  0
    2.4172    0.1984    0.1373 O   0  0  0  0  0  0  0  0  0  0  0  0
    3.0850    0.4179   -1.0339 C   0  0  0  0  0  0  0  0  0  0  0  0
    3.2275    1.7636   -1.3702 C   0  0  0  0  0  0  0  0  0  0  0  0
    3.6664    2.1171   -2.6307 C   0  0  0  0  0  0  0  0  0  0  0  0
    4.1044    1.1357   -3.5135 C   0  0  0  0  0  0  0  0  0  0  0  0
    4.1658   -0.2073   -3.0778 C   0  0  0  0  0  0  0  0  0  0  0  0
    3.6051   -0.5945   -1.8562 C   0  0  0  0  0  0  0  0  0  0  0  0
    3.6192   -1.9634   -1.6509 O   0  0  0  0  0  0  0  0  0  0  0  0
    2.9107   -2.3805   -0.4904 C   0  0  0  0  0  0  0  0  0  0  0  0
    2.8104   -3.8844   -0.2746 C   0  0  0  0  0  0  0  0  0  0  0  0
    2.1221   -4.3124    1.0289 C   0  0  0  0  0  0  0  0  0  0  0  0
    2.1862   -5.6724    1.3723 C   0  0  0  0  0  0  0  0  0  0  0  0
    1.4479   -6.1860    2.4560 C   0  0  0  0  0  0  0  0  0  0  0  0
    0.7151   -5.3442    3.2805 C   0  0  0  0  0  0  0  0  0  0  0  0
    0.7452   -3.9979    3.0525 C   0  0  0  0  0  0  0  0  0  0  0  0
    1.3894   -3.5051    1.9229 C   0  0  0  0  0  0  0  0  0  0  0  0
    1.1139   -1.8426    1.8469 Cl  0  0  0  0  0  0  0  0  0  0  0  0
   -0.2571   -5.9235    4.5665 Cl  0  0  0  0  0  0  0  0  0  0  0  0
    4.4340    1.6268   -4.8951 C   0  0  0  0  0  0  0  0  0  0  0  0
    4.4384    2.8076   -5.1778 O   0  0  0  0  0  0  0  0  0  0  0  0
    4.6941    0.6460   -5.8052 N   0  0  0  0  0  0  0  0  0  0  0  0
    5.1961    0.8611   -7.1396 C   0  0  0  0  0  0  0  0  0  0  0  0
    5.8472   -0.3913   -7.7677 C   0  0  0  0  0  0  0  0  0  0  0  0
    7.1204   -0.7445   -6.9917 C   0  0  0  0  0  0  0  0  0  0  0  0
    6.8252   -1.2964   -5.6048 C   0  0  0  0  0  0  0  0  0  0  0  0
    5.8234   -2.3851   -5.6555 N   0  0  0  0  0  0  0  0  0  0  0  0
    4.6207   -2.2519   -6.5175 C   0  0  0  0  0  0  0  0  0  0  0  0
    4.9722   -1.6497   -7.8695 C   0  0  0  0  0  0  0  0  0  0  0  0
    6.1609   -3.6099   -5.0770 C   0  0  0  0  0  0  0  0  0  0  0  0
    7.1891   -3.7434   -4.1311 C   0  0  0  0  0  0  0  0  0  0  0  0
    7.5563   -4.9990   -3.6663 C   0  0  0  0  0  0  0  0  0  0  0  0
    6.8903   -6.1276   -3.9599 N   0  0  0  0  0  0  0  0  0  0  0  0
    5.8449   -5.9857   -4.7897 C   0  0  0  0  0  0  0  0  0  0  0  0
    5.4939   -4.7925   -5.3986 C   0  0  0  0  0  0  0  0  0  0  0  0
    0.5067    0.3065    0.8968 H   0  0  0  0  0  0  0  0  0  0  0  0
    0.6096   -0.4320   -0.7158 H   0  0  0  0  0  0  0  0  0  0  0  0
    0.7338    1.3439   -0.4623 H   0  0  0  0  0  0  0  0  0  0  0  0
    2.9337    2.5311   -0.6613 H   0  0  0  0  0  0  0  0  0  0  0  0
    3.6403    3.1596   -2.9325 H   0  0  0  0  0  0  0  0  0  0  0  0
    4.6174   -1.0006   -3.6637 H   0  0  0  0  0  0  0  0  0  0  0  0
    1.8812   -2.0568   -0.6283 H   0  0  0  0  0  0  0  0  0  0  0  0
    3.4119   -1.9538    0.3828 H   0  0  0  0  0  0  0  0  0  0  0  0
    3.8193   -4.3117   -0.3269 H   0  0  0  0  0  0  0  0  0  0  0  0
    2.2584   -4.3124   -1.1256 H   0  0  0  0  0  0  0  0  0  0  0  0
    2.8061   -6.3541    0.7917 H   0  0  0  0  0  0  0  0  0  0  0  0
    1.4443   -7.2514    2.6539 H   0  0  0  0  0  0  0  0  0  0  0  0
    0.2411   -3.3053    3.7257 H   0  0  0  0  0  0  0  0  0  0  0  0
    4.6915   -0.2818   -5.4414 H   0  0  0  0  0  0  0  0  0  0  0  0
    5.9523    1.6534   -7.0791 H   0  0  0  0  0  0  0  0  0  0  0  0
    4.3693    1.2378   -7.7456 H   0  0  0  0  0  0  0  0  0  0  0  0
    6.1314   -0.1193   -8.7928 H   0  0  0  0  0  0  0  0  0  0  0  0
    7.7554    0.1436   -6.8937 H   0  0  0  0  0  0  0  0  0  0  0  0
    7.7017   -1.4892   -7.5488 H   0  0  0  0  0  0  0  0  0  0  0  0
    6.5059   -0.5136   -4.9128 H   0  0  0  0  0  0  0  0  0  0  0  0
    7.7892   -1.5849   -5.1819 H   0  0  0  0  0  0  0  0  0  0  0  0
    3.8373   -1.6681   -6.0246 H   0  0  0  0  0  0  0  0  0  0  0  0
    4.0759   -3.1785   -6.6990 H   0  0  0  0  0  0  0  0  0  0  0  0
    4.0591   -1.4487   -8.4418 H   0  0  0  0  0  0  0  0  0  0  0  0
    5.5229   -2.4155   -8.4366 H   0  0  0  0  0  0  0  0  0  0  0  0
    7.7256   -2.8965   -3.7199 H   0  0  0  0  0  0  0  0  0  0  0  0
    8.4191   -5.1207   -3.0185 H   0  0  0  0  0  0  0  0  0  0  0  0
    5.2550   -6.8778   -4.9695 H   0  0  0  0  0  0  0  0  0  0  0  0
    4.6969   -4.8433   -6.1242 H   0  0  0  0  0  0  0  0  0  0  0  0
  1  2  1  0  0  0  0
  1 36  1  0  0  0  0
  1 37  1  0  0  0  0
  1 38  1  0  0  0  0
  2  3  1  0  0  0  0
  3  4  2  0  0  0  0
  3  8  1  0  0  0  0
  4  5  1  0  0  0  0
  4 39  1  0  0  0  0
  5  6  2  0  0  0  0
  5 40  1  0  0  0  0
  6  7  1  0  0  0  0
  6 20  1  0  0  0  0
  7  8  2  0  0  0  0
  7 41  1  0  0  0  0
  8  9  1  0  0  0  0
  9 10  1  0  0  0  0
 10 11  1  0  0  0  0
 10 42  1  0  0  0  0
 10 43  1  0  0  0  0
 11 12  1  0  0  0  0
 11 44  1  0  0  0  0
 11 45  1  0  0  0  0
 12 13  2  0  0  0  0
 12 17  1  0  0  0  0
 13 14  1  0  0  0  0
 13 46  1  0  0  0  0
 14 15  2  0  0  0  0
 14 47  1  0  0  0  0
 15 16  1  0  0  0  0
 15 19  1  0  0  0  0
 16 17  2  0  0  0  0
 16 48  1  0  0  0  0
 17 18  1  0  0  0  0
 20 21  2  0  0  0  0
 20 22  1  0  0  0  0
 22 23  1  0  0  0  0
 22 49  1  0  0  0  0
 23 24  1  0  0  0  0
 23 50  1  0  0  0  0
 23 51  1  0  0  0  0
 24 25  1  0  0  0  0
 24 29  1  0  0  0  0
 24 52  1  0  0  0  0
 25 26  1  0  0  0  0
 25 53  1  0  0  0  0
 25 54  1  0  0  0  0
 26 27  1  0  0  0  0
 26 55  1  0  0  0  0
 26 56  1  0  0  0  0
 27 28  1  0  0  0  0
 27 30  1  0  0  0  0
 28 29  1  0  0  0  0
 28 57  1  0  0  0  0
 28 58  1  0  0  0  0
 29 59  1  0  0  0  0
 29 60  1  0  0  0  0
 30 31  2  0  0  0  0
 30 35  1  0  0  0  0
 31 32  1  0  0  0  0
 31 61  1  0  0  0  0
 32 33  2  0  0  0  0
 32 62  1  0  0  0  0
 33 34  1  0  0  0  0
 34 35  2  0  0  0  0
 34 63  1  0  0  0  0
 35 64  1  0  0  0  0
M  END
$$$$
