I1P
 OpenBabel04121316133D

 56 59  0  0  0  0  0  0  0  0999 V2000
    1.0176   -0.0164   -0.1404 C   0  0  0  0  0  0  0  0  0  0  0  0
    2.4813   -0.0363   -0.0913 N   0  0  0  0  0  0  0  0  0  0  0  0
    2.9745   -0.9269    0.9725 C   0  0  0  0  0  0  0  0  0  0  0  0
    2.5150   -0.4885    2.3735 C   0  0  0  0  0  0  0  0  0  0  0  0
    3.0424   -1.4536    3.4214 C   0  0  0  0  0  0  0  0  0  0  0  0
    2.5506   -1.0968    4.7814 N   0  0  0  0  0  0  0  0  0  0  0  0
    3.1522   -2.2006    5.9448 S   0  0  0  0  0  0  0  0  0  0  0  0
    2.5166   -3.4598    5.6518 O   0  0  0  0  0  0  0  0  0  0  0  0
    4.5949   -2.0498    5.9783 O   0  0  0  0  0  0  0  0  0  0  0  0
    2.5222   -1.6248    7.4829 C   0  0  0  0  0  0  0  0  0  0  0  0
    1.9260   -2.5033    8.3984 C   0  0  0  0  0  0  0  0  0  0  0  0
    1.3809   -2.0145    9.5988 C   0  0  0  0  0  0  0  0  0  0  0  0
    1.5287   -0.6690    9.9420 C   0  0  0  0  0  0  0  0  0  0  0  0
    2.2726    0.1295    9.0506 C   0  0  0  0  0  0  0  0  0  0  0  0
    2.6905   -0.2970    7.8023 C   0  0  0  0  0  0  0  0  0  0  0  0
    1.0258   -0.1703   11.1603 N   0  0  0  0  0  0  0  0  0  0  0  0
    1.0181    1.1626   11.5896 C   0  0  0  0  0  0  0  0  0  0  0  0
    1.7969    2.0380   10.9406 N   0  0  0  0  0  0  0  0  0  0  0  0
    1.6358    3.3390   11.1161 C   0  0  0  0  0  0  0  0  0  0  0  0
    0.7014    3.8131   11.9671 C   0  0  0  0  0  0  0  0  0  0  0  0
    0.1204    2.8668   12.7938 C   0  0  0  0  0  0  0  0  0  0  0  0
    0.2291    1.5364   12.5962 N   0  0  0  0  0  0  0  0  0  0  0  0
   -0.5070    3.3340   14.0212 C   0  0  0  0  0  0  0  0  0  0  0  0
   -0.5143    4.6321   14.5153 C   0  0  0  0  0  0  0  0  0  0  0  0
   -1.1225    4.7303   15.7248 N   0  0  0  0  0  0  0  0  0  0  0  0
   -1.4782    3.5001   16.0087 C   0  0  0  0  0  0  0  0  0  0  0  0
   -1.1214    2.5934   15.0138 N   0  0  0  0  0  0  0  0  0  0  0  0
   -1.3551    1.2406   15.0396 N   0  0  0  0  0  0  0  0  0  0  0  0
   -1.9696    0.8467   16.1093 C   0  0  0  0  0  0  0  0  0  0  0  0
   -2.4169    1.7012   17.2336 C   0  0  0  0  0  0  0  0  0  0  0  0
   -2.1493    3.0066   17.1446 C   0  0  0  0  0  0  0  0  0  0  0  0
    2.9995   -0.4762   -1.3918 C   0  0  0  0  0  0  0  0  0  0  0  0
    0.5895    0.3841    0.7828 H   0  0  0  0  0  0  0  0  0  0  0  0
    0.6058   -1.0179   -0.3082 H   0  0  0  0  0  0  0  0  0  0  0  0
    0.6656    0.6497   -0.9339 H   0  0  0  0  0  0  0  0  0  0  0  0
    4.0736   -0.9299    0.9568 H   0  0  0  0  0  0  0  0  0  0  0  0
    2.6540   -1.9604    0.7825 H   0  0  0  0  0  0  0  0  0  0  0  0
    1.4228   -0.4876    2.4423 H   0  0  0  0  0  0  0  0  0  0  0  0
    2.8546    0.5342    2.5770 H   0  0  0  0  0  0  0  0  0  0  0  0
    4.1364   -1.4445    3.4092 H   0  0  0  0  0  0  0  0  0  0  0  0
    2.6844   -2.4601    3.1775 H   0  0  0  0  0  0  0  0  0  0  0  0
    1.5297   -1.0591    4.8259 H   0  0  0  0  0  0  0  0  0  0  0  0
    1.9018   -3.5710    8.1952 H   0  0  0  0  0  0  0  0  0  0  0  0
    0.8617   -2.7010   10.2637 H   0  0  0  0  0  0  0  0  0  0  0  0
    2.5841    1.1354    9.2876 H   0  0  0  0  0  0  0  0  0  0  0  0
    3.1803    0.4096    7.1380 H   0  0  0  0  0  0  0  0  0  0  0  0
    0.3383   -0.7153   11.6614 H   0  0  0  0  0  0  0  0  0  0  0  0
    2.3089    3.9773   10.5570 H   0  0  0  0  0  0  0  0  0  0  0  0
    0.5294    4.8747   12.0377 H   0  0  0  0  0  0  0  0  0  0  0  0
   -0.0849    5.5100   14.0491 H   0  0  0  0  0  0  0  0  0  0  0  0
   -2.2026   -0.2253   16.2255 H   0  0  0  0  0  0  0  0  0  0  0  0
   -2.9346    1.2573   18.0711 H   0  0  0  0  0  0  0  0  0  0  0  0
   -2.4349    3.7101   17.9170 H   0  0  0  0  0  0  0  0  0  0  0  0
    2.6660    0.2012   -2.1861 H   0  0  0  0  0  0  0  0  0  0  0  0
    2.6645   -1.4897   -1.6427 H   0  0  0  0  0  0  0  0  0  0  0  0
    4.0949   -0.4621   -1.4044 H   0  0  0  0  0  0  0  0  0  0  0  0
  1  2  1  0  0  0  0
  1 33  1  0  0  0  0
  1 34  1  0  0  0  0
  1 35  1  0  0  0  0
  2  3  1  0  0  0  0
  2 32  1  0  0  0  0
  3  4  1  0  0  0  0
  3 36  1  0  0  0  0
  3 37  1  0  0  0  0
  4  5  1  0  0  0  0
  4 38  1  0  0  0  0
  4 39  1  0  0  0  0
  5  6  1  0  0  0  0
  5 40  1  0  0  0  0
  5 41  1  0  0  0  0
  6  7  1  0  0  0  0
  6 42  1  0  0  0  0
  7  8  2  0  0  0  0
  7  9  2  0  0  0  0
  7 10  1  0  0  0  0
 10 11  2  0  0  0  0
 10 15  1  0  0  0  0
 11 12  1  0  0  0  0
 11 43  1  0  0  0  0
 12 13  2  0  0  0  0
 12 44  1  0  0  0  0
 13 14  1  0  0  0  0
 13 16  1  0  0  0  0
 14 15  2  0  0  0  0
 14 45  1  0  0  0  0
 15 46  1  0  0  0  0
 16 17  1  0  0  0  0
 16 47  1  0  0  0  0
 17 18  2  0  0  0  0
 17 22  1  0  0  0  0
 18 19  1  0  0  0  0
 19 20  2  0  0  0  0
 19 48  1  0  0  0  0
 20 21  1  0  0  0  0
 20 49  1  0  0  0  0
 21 22  2  0  0  0  0
 21 23  1  0  0  0  0
 23 24  2  0  0  0  0
 23 27  1  0  0  0  0
 24 25  1  0  0  0  0
 24 50  1  0  0  0  0
 25 26  2  0  0  0  0
 26 27  1  0  0  0  0
 26 31  1  0  0  0  0
 27 28  1  0  0  0  0
 28 29  2  0  0  0  0
 29 30  1  0  0  0  0
 29 51  1  0  0  0  0
 30 31  2  0  0  0  0
 30 52  1  0  0  0  0
 31 53  1  0  0  0  0
 32 54  1  0  0  0  0
 32 55  1  0  0  0  0
 32 56  1  0  0  0  0
M  END
$$$$
