I24
 OpenBabel04121316133D

 60 63  0  0  0  0  0  0  0  0999 V2000
    1.0216   -0.0957    0.0271 C   0  0  0  0  0  0  0  0  0  0  0  0
    2.5440   -0.0992    0.0187 C   0  0  0  0  0  0  0  0  0  0  0  0
    3.1012   -0.8468   -1.1944 C   0  0  0  0  0  0  0  0  0  0  0  0
    4.6387   -0.8404   -1.2253 C   0  0  0  0  0  0  0  0  0  0  0  0
    5.0713   -1.5211   -2.4062 O   0  0  0  0  0  0  0  0  0  0  0  0
    6.4515   -1.6315   -2.4731 C   0  0  0  0  0  0  0  0  0  0  0  0
    6.9012   -2.9163   -2.5062 N   0  0  0  0  0  0  0  0  0  0  0  0
    8.2238   -3.1289   -2.7608 C   0  0  0  0  0  0  0  0  0  0  0  0
    8.9171   -4.3417   -2.6955 N   0  0  0  0  0  0  0  0  0  0  0  0
    8.2911   -5.4149   -2.0261 C   0  0  0  0  0  0  0  0  0  0  0  0
    8.6686   -6.8853   -2.6032 C   0  0  0  0  0  0  0  0  0  0  0  0
    7.4723   -7.8200   -2.7780 N   0  0  0  0  0  0  0  0  0  0  0  0
    6.3103   -6.9095   -2.8001 C   0  0  0  0  0  0  0  0  0  0  0  0
    6.4874   -5.9798   -4.0983 C   0  0  0  0  0  0  0  0  0  0  0  0
    6.3050   -6.7196   -5.3019 O   0  0  0  0  0  0  0  0  0  0  0  0
    7.3230   -7.7370   -5.3557 C   0  0  0  0  0  0  0  0  0  0  0  0
    7.2745   -8.5754   -4.0641 C   0  0  0  0  0  0  0  0  0  0  0  0
    9.0105   -2.0565   -2.9818 C   0  0  0  0  0  0  0  0  0  0  0  0
    8.4719   -0.7840   -2.8566 C   0  0  0  0  0  0  0  0  0  0  0  0
    7.1742   -0.4881   -2.6316 N   0  0  0  0  0  0  0  0  0  0  0  0
    9.6000   -0.0083   -2.9208 N   0  0  0  0  0  0  0  0  0  0  0  0
   10.6557   -0.8773   -2.7686 C   0  0  0  0  0  0  0  0  0  0  0  0
   10.3605   -2.0816   -3.0983 N   0  0  0  0  0  0  0  0  0  0  0  0
    9.6371    1.4424   -3.0339 C   0  0  0  0  0  0  0  0  0  0  0  0
   11.0015    2.0307   -3.2981 C   0  0  0  0  0  0  0  0  0  0  0  0
   11.2130    3.3900   -3.1990 C   0  0  0  0  0  0  0  0  0  0  0  0
   10.1675    4.2243   -3.1404 F   0  0  0  0  0  0  0  0  0  0  0  0
   12.5083    3.9062   -3.2081 C   0  0  0  0  0  0  0  0  0  0  0  0
   13.5966    3.0477   -3.0572 C   0  0  0  0  0  0  0  0  0  0  0  0
   13.4062    1.7094   -3.3108 C   0  0  0  0  0  0  0  0  0  0  0  0
   12.1340    1.3093   -3.6639 C   0  0  0  0  0  0  0  0  0  0  0  0
   12.0355    0.2084   -4.4198 F   0  0  0  0  0  0  0  0  0  0  0  0
    0.6456    0.4482    0.9000 H   0  0  0  0  0  0  0  0  0  0  0  0
    0.6265   -1.1158    0.0680 H   0  0  0  0  0  0  0  0  0  0  0  0
    0.6255    0.3904   -0.8703 H   0  0  0  0  0  0  0  0  0  0  0  0
    2.9054   -0.5642    0.9432 H   0  0  0  0  0  0  0  0  0  0  0  0
    2.9022    0.9367    0.0136 H   0  0  0  0  0  0  0  0  0  0  0  0
    2.7150   -0.3969   -2.1180 H   0  0  0  0  0  0  0  0  0  0  0  0
    2.7346   -1.8819   -1.1935 H   0  0  0  0  0  0  0  0  0  0  0  0
    5.0160   -1.3503   -0.3298 H   0  0  0  0  0  0  0  0  0  0  0  0
    4.9923    0.1966   -1.2324 H   0  0  0  0  0  0  0  0  0  0  0  0
    9.8981   -4.3192   -2.9616 H   0  0  0  0  0  0  0  0  0  0  0  0
    7.2937   -5.1404   -2.3155 H   0  0  0  0  0  0  0  0  0  0  0  0
    8.1310   -5.3272   -0.9446 H   0  0  0  0  0  0  0  0  0  0  0  0
    9.3811   -7.3177   -1.8875 H   0  0  0  0  0  0  0  0  0  0  0  0
    9.2322   -6.7998   -3.5431 H   0  0  0  0  0  0  0  0  0  0  0  0
    6.3227   -6.4825   -1.7835 H   0  0  0  0  0  0  0  0  0  0  0  0
    5.3368   -7.3970   -2.7764 H   0  0  0  0  0  0  0  0  0  0  0  0
    7.5028   -5.5789   -4.2500 H   0  0  0  0  0  0  0  0  0  0  0  0
    5.8554   -5.0942   -4.0461 H   0  0  0  0  0  0  0  0  0  0  0  0
    8.3230   -7.3078   -5.5017 H   0  0  0  0  0  0  0  0  0  0  0  0
    7.0958   -8.3336   -6.2427 H   0  0  0  0  0  0  0  0  0  0  0  0
    7.8841   -9.4776   -4.1453 H   0  0  0  0  0  0  0  0  0  0  0  0
    6.2349   -8.9541   -4.0197 H   0  0  0  0  0  0  0  0  0  0  0  0
   11.6715   -0.6196   -2.4966 H   0  0  0  0  0  0  0  0  0  0  0  0
    9.2467    1.8024   -2.0697 H   0  0  0  0  0  0  0  0  0  0  0  0
    8.9398    1.7303   -3.8256 H   0  0  0  0  0  0  0  0  0  0  0  0
   12.6634    4.9700   -3.3340 H   0  0  0  0  0  0  0  0  0  0  0  0
   14.5946    3.4208   -2.8601 H   0  0  0  0  0  0  0  0  0  0  0  0
   14.2228    0.9947   -3.3466 H   0  0  0  0  0  0  0  0  0  0  0  0
  1  2  1  0  0  0  0
  1 33  1  0  0  0  0
  1 34  1  0  0  0  0
  1 35  1  0  0  0  0
  2  3  1  0  0  0  0
  2 36  1  0  0  0  0
  2 37  1  0  0  0  0
  3  4  1  0  0  0  0
  3 38  1  0  0  0  0
  3 39  1  0  0  0  0
  4  5  1  0  0  0  0
  4 40  1  0  0  0  0
  4 41  1  0  0  0  0
  5  6  1  0  0  0  0
  6  7  2  0  0  0  0
  6 20  1  0  0  0  0
  7  8  1  0  0  0  0
  8  9  1  0  0  0  0
  8 18  2  0  0  0  0
  9 10  1  0  0  0  0
  9 42  1  0  0  0  0
 10 11  1  0  0  0  0
 10 43  1  0  0  0  0
 10 44  1  0  0  0  0
 11 12  1  0  0  0  0
 11 45  1  0  0  0  0
 11 46  1  0  0  0  0
 12 13  1  0  0  0  0
 12 17  1  0  0  0  0
 13 14  1  0  0  0  0
 13 47  1  0  0  0  0
 13 48  1  0  0  0  0
 14 15  1  0  0  0  0
 14 49  1  0  0  0  0
 14 50  1  0  0  0  0
 15 16  1  0  0  0  0
 16 17  1  0  0  0  0
 16 51  1  0  0  0  0
 16 52  1  0  0  0  0
 17 53  1  0  0  0  0
 17 54  1  0  0  0  0
 18 19  1  0  0  0  0
 18 23  1  0  0  0  0
 19 20  2  0  0  0  0
 19 21  1  0  0  0  0
 21 22  1  0  0  0  0
 21 24  1  0  0  0  0
 22 23  2  0  0  0  0
 22 55  1  0  0  0  0
 24 25  1  0  0  0  0
 24 56  1  0  0  0  0
 24 57  1  0  0  0  0
 25 26  2  0  0  0  0
 25 31  1  0  0  0  0
 26 27  1  0  0  0  0
 26 28  1  0  0  0  0
 28 29  2  0  0  0  0
 28 58  1  0  0  0  0
 29 30  1  0  0  0  0
 29 59  1  0  0  0  0
 30 31  2  0  0  0  0
 30 60  1  0  0  0  0
 31 32  1  0  0  0  0
M  END
$$$$
