I39
 OpenBabel04121316133D

 39 41  0  0  0  0  0  0  0  0999 V2000
    0.9348   -0.1516    0.0952 F   0  0  0  0  0  0  0  0  0  0  0  0
    2.2691   -0.1602    0.0466 C   0  0  0  0  0  0  0  0  0  0  0  0
    2.9426    1.0449    0.0366 C   0  0  0  0  0  0  0  0  0  0  0  0
    4.3230    1.0238    0.0334 C   0  0  0  0  0  0  0  0  0  0  0  0
    5.0150   -0.1564   -0.2657 C   0  0  0  0  0  0  0  0  0  0  0  0
    4.3247   -1.3632   -0.1963 C   0  0  0  0  0  0  0  0  0  0  0  0
    2.9569   -1.3672    0.0339 C   0  0  0  0  0  0  0  0  0  0  0  0
    4.9434   -2.5428   -0.3487 F   0  0  0  0  0  0  0  0  0  0  0  0
    6.4221   -0.1287   -0.7060 C   0  0  0  0  0  0  0  0  0  0  0  0
    7.0320   -1.1880   -0.9283 O   0  0  0  0  0  0  0  0  0  0  0  0
    7.1778    1.1448   -0.8416 C   0  0  0  0  0  0  0  0  0  0  0  0
    6.6025    2.3513   -1.1905 C   0  0  0  0  0  0  0  0  0  0  0  0
    7.2585    3.4954   -0.7921 C   0  0  0  0  0  0  0  0  0  0  0  0
    8.6282    3.5021   -0.5905 N   0  3  0  0  0  0  0  0  0  0  0  0
    9.3103    2.2752   -0.4868 C   0  0  0  0  0  0  0  0  0  0  0  0
    8.4857    1.1438   -0.3555 C   0  0  0  0  0  0  0  0  0  0  0  0
    8.8188    0.1220    0.5646 N   0  0  0  0  0  0  0  0  0  0  0  0
   10.8156    2.1535   -0.5480 C   0  0  0  0  0  0  0  0  0  0  0  0
   11.5932    3.3350   -0.5444 C   0  0  0  0  0  0  0  0  0  0  0  0
   12.9556    3.3543   -0.8238 C   0  0  0  0  0  0  0  0  0  0  0  0
   13.6449    2.1672   -0.9275 C   0  0  0  0  0  0  0  0  0  0  0  0
   12.9659    0.9706   -0.7823 C   0  0  0  0  0  0  0  0  0  0  0  0
   11.5601    0.9259   -0.7194 C   0  0  0  0  0  0  0  0  0  0  0  0
   11.0409   -0.4948   -0.9041 C   0  0  0  0  0  0  0  0  0  0  0  0
    9.1439    4.6617   -0.5190 O   0  5  0  0  0  0  0  0  0  0  0  0
    2.4140    1.9923    0.0487 H   0  0  0  0  0  0  0  0  0  0  0  0
    4.8177    1.9632    0.2383 H   0  0  0  0  0  0  0  0  0  0  0  0
    2.4323   -2.3043    0.1603 H   0  0  0  0  0  0  0  0  0  0  0  0
    5.5973    2.4414   -1.5813 H   0  0  0  0  0  0  0  0  0  0  0  0
    6.8014    4.4662   -0.6605 H   0  0  0  0  0  0  0  0  0  0  0  0
    9.7602    0.2073    0.9251 H   0  0  0  0  0  0  0  0  0  0  0  0
    8.6010   -0.7959    0.1432 H   0  0  0  0  0  0  0  0  0  0  0  0
   11.1669    4.3152   -0.3575 H   0  0  0  0  0  0  0  0  0  0  0  0
   13.4612    4.3080   -0.9421 H   0  0  0  0  0  0  0  0  0  0  0  0
   14.7094    2.1661   -1.1247 H   0  0  0  0  0  0  0  0  0  0  0  0
   13.5365    0.0444   -0.7776 H   0  0  0  0  0  0  0  0  0  0  0  0
   11.8113   -1.1768   -1.2830 H   0  0  0  0  0  0  0  0  0  0  0  0
   10.2276   -0.5325   -1.6338 H   0  0  0  0  0  0  0  0  0  0  0  0
   10.7810   -0.9796    0.0402 H   0  0  0  0  0  0  0  0  0  0  0  0
  1  2  1  0  0  0  0
  2  3  2  0  0  0  0
  2  7  1  0  0  0  0
  3  4  1  0  0  0  0
  3 26  1  0  0  0  0
  4  5  2  0  0  0  0
  4 27  1  0  0  0  0
  5  6  1  0  0  0  0
  5  9  1  0  0  0  0
  6  7  2  0  0  0  0
  6  8  1  0  0  0  0
  7 28  1  0  0  0  0
  9 10  2  0  0  0  0
  9 11  1  0  0  0  0
 11 12  2  0  0  0  0
 11 16  1  0  0  0  0
 12 13  1  0  0  0  0
 12 29  1  0  0  0  0
 13 14  2  0  0  0  0
 13 30  1  0  0  0  0
 14 15  1  0  0  0  0
 14 25  1  0  0  0  0
 15 16  2  0  0  0  0
 15 18  1  0  0  0  0
 16 17  1  0  0  0  0
 17 31  1  0  0  0  0
 17 32  1  0  0  0  0
 18 19  2  0  0  0  0
 18 23  1  0  0  0  0
 19 20  1  0  0  0  0
 19 33  1  0  0  0  0
 20 21  2  0  0  0  0
 20 34  1  0  0  0  0
 21 22  1  0  0  0  0
 21 35  1  0  0  0  0
 22 23  2  0  0  0  0
 22 36  1  0  0  0  0
 23 24  1  0  0  0  0
 24 37  1  0  0  0  0
 24 38  1  0  0  0  0
 24 39  1  0  0  0  0
M  CHG  2  14   1  25  -1
M  END
$$$$
