I3P
 OpenBabel04121316133D

 39 39  0  0  1  0  0  0  0  0999 V2000
    3.2483    0.4467    1.2360 O   0  0  0  0  0  0  0  0  0  0  0  0
    2.6024    0.0389    0.0133 C   0  0  2  0  0  0  0  0  0  0  0  0
    1.5134    0.0801    0.1548 H   0  0  0  0  0  0  0  0  0  0  0  0
    2.9999   -1.4000   -0.4401 C   0  0  1  0  0  0  0  0  0  0  0  0
    4.0925   -1.5153   -0.4320 H   0  0  0  0  0  0  0  0  0  0  0  0
    2.5092   -2.3885    0.5044 O   0  0  0  0  0  0  0  0  0  0  0  0
    3.0301   -2.0347    2.1157 P   0  0  0  0  0  0  0  0  0  0  0  0
    1.7913   -1.1654    2.3641 O   0  0  0  0  0  0  0  0  0  0  0  0
    2.4143   -3.4849    2.5284 O   0  0  0  0  0  0  0  0  0  0  0  0
    3.5510   -1.6810    3.7271 O   0  0  0  0  0  0  0  0  0  0  0  0
    2.4211   -1.6647   -1.8770 C   0  0  2  0  0  0  0  0  0  0  0  0
    1.3281   -1.6537   -1.8025 H   0  0  0  0  0  0  0  0  0  0  0  0
    2.7570   -2.9811   -2.3180 O   0  0  0  0  0  0  0  0  0  0  0  0
    3.0117   -3.4420   -3.8232 P   0  0  0  0  0  0  0  0  0  0  0  0
    3.8717   -2.5732   -4.6957 O   0  0  0  0  0  0  0  0  0  0  0  0
    3.6863   -4.8625   -3.6106 O   0  0  0  0  0  0  0  0  0  0  0  0
    1.5802   -3.7643   -4.4464 O   0  0  0  0  0  0  0  0  0  0  0  0
    2.8699   -0.5382   -2.8470 C   0  0  2  0  0  0  0  0  0  0  0  0
    3.9631   -0.5773   -2.9792 H   0  0  0  0  0  0  0  0  0  0  0  0
    2.4059    0.8322   -2.3305 C   0  0  1  0  0  0  0  0  0  0  0  0
    1.3130    0.7999   -2.2536 H   0  0  0  0  0  0  0  0  0  0  0  0
    3.0231    1.0912   -0.9787 C   0  0  2  0  0  0  0  0  0  0  0  0
    2.7172    2.0625   -0.5814 H   0  0  0  0  0  0  0  0  0  0  0  0
    4.4592    1.0483   -1.0485 O   0  0  0  0  0  0  0  0  0  0  0  0
    2.7283    1.8264   -3.2922 O   0  0  0  0  0  0  0  0  0  0  0  0
    2.9942    3.3591   -2.9340 P   0  0  0  0  0  0  0  0  0  0  0  0
    3.9420    3.5971   -1.8170 O   0  0  0  0  0  0  0  0  0  0  0  0
    3.4853    3.8912   -4.3492 O   0  0  0  0  0  0  0  0  0  0  0  0
    1.5343    3.9697   -2.7456 O   0  0  0  0  0  0  0  0  0  0  0  0
    2.2728   -0.6644   -4.1422 O   0  0  0  0  0  0  0  0  0  0  0  0
    4.2041    0.5008    1.0695 H   0  0  0  0  0  0  0  0  0  0  0  0
    1.4500   -3.3612    2.3740 H   0  0  0  0  0  0  0  0  0  0  0  0
    4.0078   -0.8223    3.7337 H   0  0  0  0  0  0  0  0  0  0  0  0
    4.5061   -4.7287   -3.0980 H   0  0  0  0  0  0  0  0  0  0  0  0
    1.4983   -3.4273   -5.3614 H   0  0  0  0  0  0  0  0  0  0  0  0
    4.7394    1.9077   -1.4348 H   0  0  0  0  0  0  0  0  0  0  0  0
    3.8174    3.1296   -4.8621 H   0  0  0  0  0  0  0  0  0  0  0  0
    1.5102    4.6211   -2.0185 H   0  0  0  0  0  0  0  0  0  0  0  0
    1.4851   -1.2231   -4.0852 H   0  0  0  0  0  0  0  0  0  0  0  0
  1 31  1  0  0  0  0
  2  4  1  0  0  0  0
  2 22  1  0  0  0  0
  2  3  1  1  0  0  0
  2  1  1  0  0  0  0
  4  5  1  6  0  0  0
  4  6  1  0  0  0  0
  4 11  1  0  0  0  0
  6  7  1  0  0  0  0
  7  8  2  0  0  0  0
  7  9  1  0  0  0  0
  7 10  1  0  0  0  0
  9 32  1  0  0  0  0
 10 33  1  0  0  0  0
 11 12  1  1  0  0  0
 11 13  1  0  0  0  0
 11 18  1  0  0  0  0
 13 14  1  0  0  0  0
 14 15  2  0  0  0  0
 14 16  1  0  0  0  0
 14 17  1  0  0  0  0
 16 34  1  0  0  0  0
 17 35  1  0  0  0  0
 18 20  1  0  0  0  0
 18 30  1  0  0  0  0
 18 19  1  6  0  0  0
 20 21  1  1  0  0  0
 20 22  1  0  0  0  0
 20 25  1  0  0  0  0
 22 23  1  1  0  0  0
 22 24  1  0  0  0  0
 24 36  1  0  0  0  0
 25 26  1  0  0  0  0
 26 27  2  0  0  0  0
 26 28  1  0  0  0  0
 26 29  1  0  0  0  0
 28 37  1  0  0  0  0
 29 38  1  0  0  0  0
 30 39  1  0  0  0  0
M  END
$$$$
