I45
 OpenBabel04121316133D

 49 51  0  0  0  0  0  0  0  0999 V2000
    0.9173   -0.0293   -0.0562 C   0  0  0  0  0  0  0  0  0  0  0  0
    2.3517   -0.0256   -0.0935 N   0  0  0  0  0  0  0  0  0  0  0  0
    3.0120   -0.9070   -0.9170 C   0  0  0  0  0  0  0  0  0  0  0  0
    2.4594   -1.7140   -1.6481 O   0  0  0  0  0  0  0  0  0  0  0  0
    4.4859   -0.8132   -0.8769 C   0  0  0  0  0  0  0  0  0  0  0  0
    5.1140    0.4092   -0.9259 C   0  0  0  0  0  0  0  0  0  0  0  0
    6.4886    0.4332   -0.9439 C   0  0  0  0  0  0  0  0  0  0  0  0
    7.2610   -0.7450   -1.0437 C   0  0  0  0  0  0  0  0  0  0  0  0
    6.6402   -2.0400   -1.0499 C   0  0  0  0  0  0  0  0  0  0  0  0
    5.2323   -1.9933   -0.8730 C   0  0  0  0  0  0  0  0  0  0  0  0
    7.2939   -3.3820   -1.2685 N   0  0  0  0  0  0  0  0  0  0  0  0
    8.6005   -3.6039   -1.7757 C   0  0  0  0  0  0  0  0  0  0  0  0
    9.4366   -2.5788   -2.4025 C   0  0  0  0  0  0  0  0  0  0  0  0
    9.1249   -4.7920   -1.9565 C   0  0  0  0  0  0  0  0  0  0  0  0
    8.3800   -5.9674   -1.7236 C   0  0  0  0  0  0  0  0  0  0  0  0
    7.1026   -5.9078   -1.3048 C   0  0  0  0  0  0  0  0  0  0  0  0
    6.5123   -4.5602   -1.0363 C   0  0  0  0  0  0  0  0  0  0  0  0
    5.3499   -4.6035   -0.5997 O   0  0  0  0  0  0  0  0  0  0  0  0
    5.8906   -7.3327   -0.9550 Br  0  0  0  0  0  0  0  0  0  0  0  0
    9.1860   -7.0006   -2.0371 O   0  0  0  0  0  0  0  0  0  0  0  0
    8.6109   -8.2506   -1.8396 C   0  0  0  0  0  0  0  0  0  0  0  0
    9.5841   -9.2938   -2.1927 C   0  0  0  0  0  0  0  0  0  0  0  0
   10.8125   -9.0139   -2.7931 C   0  0  0  0  0  0  0  0  0  0  0  0
   11.5465  -10.0665   -3.2983 C   0  0  0  0  0  0  0  0  0  0  0  0
   11.1057  -11.3697   -3.0740 C   0  0  0  0  0  0  0  0  0  0  0  0
    9.9520  -11.6490   -2.3514 C   0  0  0  0  0  0  0  0  0  0  0  0
    9.1631  -10.5972   -1.9660 C   0  0  0  0  0  0  0  0  0  0  0  0
    7.9668  -10.8167   -1.3992 F   0  0  0  0  0  0  0  0  0  0  0  0
   11.8086  -12.3841   -3.5851 F   0  0  0  0  0  0  0  0  0  0  0  0
    8.7038   -0.3620   -1.2067 C   0  0  0  0  0  0  0  0  0  0  0  0
    0.5825    0.7092    0.6734 H   0  0  0  0  0  0  0  0  0  0  0  0
    0.5645   -1.0265    0.2208 H   0  0  0  0  0  0  0  0  0  0  0  0
    0.5427    0.2233   -1.0518 H   0  0  0  0  0  0  0  0  0  0  0  0
    2.8728    0.5447    0.5586 H   0  0  0  0  0  0  0  0  0  0  0  0
    4.5592    1.3354   -0.9822 H   0  0  0  0  0  0  0  0  0  0  0  0
    6.9931    1.3968   -0.9321 H   0  0  0  0  0  0  0  0  0  0  0  0
    4.5901   -2.8556   -0.7566 H   0  0  0  0  0  0  0  0  0  0  0  0
    8.6760   -1.9465   -2.8227 H   0  0  0  0  0  0  0  0  0  0  0  0
    9.9933   -2.8080   -3.3119 H   0  0  0  0  0  0  0  0  0  0  0  0
   10.1816   -2.2297   -1.6776 H   0  0  0  0  0  0  0  0  0  0  0  0
   10.1254   -4.8987   -2.3936 H   0  0  0  0  0  0  0  0  0  0  0  0
    7.7705   -8.3563   -2.5342 H   0  0  0  0  0  0  0  0  0  0  0  0
    8.3664   -8.3596   -0.7800 H   0  0  0  0  0  0  0  0  0  0  0  0
   11.1672   -7.9904   -2.9042 H   0  0  0  0  0  0  0  0  0  0  0  0
   12.4460   -9.8731   -3.8704 H   0  0  0  0  0  0  0  0  0  0  0  0
    9.6501  -12.6590   -2.1197 H   0  0  0  0  0  0  0  0  0  0  0  0
    8.9813    0.6676   -0.9765 H   0  0  0  0  0  0  0  0  0  0  0  0
    8.9464   -0.3467   -2.2737 H   0  0  0  0  0  0  0  0  0  0  0  0
    9.3075   -0.9791   -0.5451 H   0  0  0  0  0  0  0  0  0  0  0  0
  1  2  1  0  0  0  0
  1 31  1  0  0  0  0
  1 32  1  0  0  0  0
  1 33  1  0  0  0  0
  2  3  1  0  0  0  0
  2 34  1  0  0  0  0
  3  4  2  0  0  0  0
  3  5  1  0  0  0  0
  5  6  2  0  0  0  0
  5 10  1  0  0  0  0
  6  7  1  0  0  0  0
  6 35  1  0  0  0  0
  7  8  2  0  0  0  0
  7 36  1  0  0  0  0
  8  9  1  0  0  0  0
  8 30  1  0  0  0  0
  9 10  2  0  0  0  0
  9 11  1  0  0  0  0
 10 37  1  0  0  0  0
 11 12  1  0  0  0  0
 11 17  1  0  0  0  0
 12 13  1  0  0  0  0
 12 14  2  0  0  0  0
 13 38  1  0  0  0  0
 13 39  1  0  0  0  0
 13 40  1  0  0  0  0
 14 15  1  0  0  0  0
 14 41  1  0  0  0  0
 15 16  2  0  0  0  0
 15 20  1  0  0  0  0
 16 17  1  0  0  0  0
 16 19  1  0  0  0  0
 17 18  2  0  0  0  0
 20 21  1  0  0  0  0
 21 22  1  0  0  0  0
 21 42  1  0  0  0  0
 21 43  1  0  0  0  0
 22 23  2  0  0  0  0
 22 27  1  0  0  0  0
 23 24  1  0  0  0  0
 23 44  1  0  0  0  0
 24 25  2  0  0  0  0
 24 45  1  0  0  0  0
 25 26  1  0  0  0  0
 25 29  1  0  0  0  0
 26 27  2  0  0  0  0
 26 46  1  0  0  0  0
 27 28  1  0  0  0  0
 30 47  1  0  0  0  0
 30 48  1  0  0  0  0
 30 49  1  0  0  0  0
M  END
$$$$
