I46
 OpenBabel04121316133D

 28 30  0  0  0  0  0  0  0  0999 V2000
    0.8231    0.1154    0.1148 F   0  0  0  0  0  0  0  0  0  0  0  0
    2.1595    0.1651    0.1693 C   0  0  0  0  0  0  0  0  0  0  0  0
    2.8158    1.3863    0.0914 C   0  0  0  0  0  0  0  0  0  0  0  0
    4.2070    1.4119   -0.0619 C   0  0  0  0  0  0  0  0  0  0  0  0
    4.9460    0.2319    0.0468 C   0  0  0  0  0  0  0  0  0  0  0  0
    4.2587   -0.9102    0.4746 C   0  0  0  0  0  0  0  0  0  0  0  0
    2.8762   -0.9985    0.3392 C   0  0  0  0  0  0  0  0  0  0  0  0
    6.3502    0.1364   -0.3717 C   0  0  0  0  0  0  0  0  0  0  0  0
    7.1624    1.2246   -0.6254 C   0  0  0  0  0  0  0  0  0  0  0  0
    8.3846    0.7275   -0.9639 N   0  0  0  0  0  0  0  0  0  0  0  0
    9.2325    1.2450   -1.1702 H   0  0  0  0  0  0  0  0  0  0  0  0
    8.4182   -0.6095   -1.0462 N   0  0  0  0  0  0  0  0  0  0  0  0
    7.1616   -0.9980   -0.7771 C   0  0  0  0  0  0  0  0  0  0  0  0
    6.7815   -2.4168   -0.8893 C   0  0  0  0  0  0  0  0  0  0  0  0
    7.6689   -3.4271   -0.5113 C   0  0  0  0  0  0  0  0  0  0  0  0
    7.1768   -4.7210   -0.4097 C   0  0  0  0  0  0  0  0  0  0  0  0
    5.8932   -5.0679   -0.6211 N   0  0  0  0  0  0  0  0  0  0  0  0
    5.0807   -4.0886   -1.0668 C   0  0  0  0  0  0  0  0  0  0  0  0
    5.5051   -2.7961   -1.2918 C   0  0  0  0  0  0  0  0  0  0  0  0
    3.7802   -4.3671   -1.2095 F   0  0  0  0  0  0  0  0  0  0  0  0
    2.2417    2.3042    0.1039 H   0  0  0  0  0  0  0  0  0  0  0  0
    4.6877    2.3602   -0.2811 H   0  0  0  0  0  0  0  0  0  0  0  0
    4.7930   -1.7924    0.8103 H   0  0  0  0  0  0  0  0  0  0  0  0
    2.3773   -1.9634    0.3654 H   0  0  0  0  0  0  0  0  0  0  0  0
    6.9973    2.2921   -0.5898 H   0  0  0  0  0  0  0  0  0  0  0  0
    8.7041   -3.2092   -0.2822 H   0  0  0  0  0  0  0  0  0  0  0  0
    7.8292   -5.5420   -0.1200 H   0  0  0  0  0  0  0  0  0  0  0  0
    4.7779   -2.0782   -1.6614 H   0  0  0  0  0  0  0  0  0  0  0  0
  1  2  1  0  0  0  0
  2  3  2  0  0  0  0
  2  7  1  0  0  0  0
  3  4  1  0  0  0  0
  3 21  1  0  0  0  0
  4  5  2  0  0  0  0
  4 22  1  0  0  0  0
  5  6  1  0  0  0  0
  5  8  1  0  0  0  0
  6  7  2  0  0  0  0
  6 23  1  0  0  0  0
  7 24  1  0  0  0  0
  8  9  2  0  0  0  0
  8 13  1  0  0  0  0
  9 10  1  0  0  0  0
  9 25  1  0  0  0  0
 10 11  1  0  0  0  0
 10 12  1  0  0  0  0
 12 13  2  0  0  0  0
 13 14  1  0  0  0  0
 14 15  2  0  0  0  0
 14 19  1  0  0  0  0
 15 16  1  0  0  0  0
 15 26  1  0  0  0  0
 16 17  2  0  0  0  0
 16 27  1  0  0  0  0
 17 18  1  0  0  0  0
 18 19  2  0  0  0  0
 18 20  1  0  0  0  0
 19 28  1  0  0  0  0
M  END
$$$$
