I47
 OpenBabel04121316133D

 48 51  0  0  0  0  0  0  0  0999 V2000
    1.0844    0.0757   -0.0090 O   0  0  0  0  0  0  0  0  0  0  0  0
    2.4984    0.0524   -0.0744 C   0  0  0  0  0  0  0  0  0  0  0  0
    3.0336   -0.7727   -1.2586 C   0  0  0  0  0  0  0  0  0  0  0  0
    2.3413   -1.4575   -1.9855 O   0  0  0  0  0  0  0  0  0  0  0  0
    4.4224   -0.8440   -1.2607 N   0  0  0  0  0  0  0  0  0  0  0  0
    5.0114   -2.1587   -1.3189 C   0  0  0  0  0  0  0  0  0  0  0  0
    5.6529   -2.4021   -2.6692 C   0  0  0  0  0  0  0  0  0  0  0  0
    6.7464   -1.3410   -2.9368 C   0  0  0  0  0  0  0  0  0  0  0  0
    6.0096    0.0056   -2.9974 C   0  0  0  0  0  0  0  0  0  0  0  0
    5.2588    0.2826   -1.6781 C   0  0  0  0  0  0  0  0  0  0  0  0
    7.8561   -1.3539   -1.9036 C   0  0  0  0  0  0  0  0  0  0  0  0
    8.3656   -0.2307   -1.3792 N   0  0  0  0  0  0  0  0  0  0  0  0
    9.2250   -0.6632   -0.4414 N   0  0  0  0  0  0  0  0  0  0  0  0
    9.7014    0.0398    0.1144 H   0  0  0  0  0  0  0  0  0  0  0  0
    9.3344   -2.0325   -0.3555 C   0  0  0  0  0  0  0  0  0  0  0  0
    8.4132   -2.5066   -1.2989 C   0  0  0  0  0  0  0  0  0  0  0  0
    8.0691   -3.8951   -1.6053 C   0  0  0  0  0  0  0  0  0  0  0  0
    7.7152   -4.7928   -0.6181 C   0  0  0  0  0  0  0  0  0  0  0  0
    7.8766   -6.1085   -0.9796 C   0  0  0  0  0  0  0  0  0  0  0  0
    7.9078   -6.5169   -2.2538 N   0  0  0  0  0  0  0  0  0  0  0  0
    7.8904   -5.5380   -3.1634 C   0  0  0  0  0  0  0  0  0  0  0  0
    8.1161   -4.2442   -2.9064 N   0  0  0  0  0  0  0  0  0  0  0  0
   10.2410   -2.7348    0.5710 C   0  0  0  0  0  0  0  0  0  0  0  0
   11.1931   -2.1590    1.3994 C   0  0  0  0  0  0  0  0  0  0  0  0
   12.0689   -3.0012    2.1221 C   0  0  0  0  0  0  0  0  0  0  0  0
   11.8565   -4.3839    2.1952 C   0  0  0  0  0  0  0  0  0  0  0  0
   10.8220   -4.9453    1.5062 C   0  0  0  0  0  0  0  0  0  0  0  0
   10.2142   -4.1271    0.5857 C   0  0  0  0  0  0  0  0  0  0  0  0
   12.9605   -5.4416    2.9681 Cl  0  0  0  0  0  0  0  0  0  0  0  0
    0.8330    0.5452    0.8014 H   0  0  0  0  0  0  0  0  0  0  0  0
    2.8716   -0.4174    0.8461 H   0  0  0  0  0  0  0  0  0  0  0  0
    2.8715    1.0771   -0.1253 H   0  0  0  0  0  0  0  0  0  0  0  0
    4.2716   -2.9369   -1.1031 H   0  0  0  0  0  0  0  0  0  0  0  0
    5.7396   -2.2015   -0.4999 H   0  0  0  0  0  0  0  0  0  0  0  0
    4.9089   -2.3766   -3.4717 H   0  0  0  0  0  0  0  0  0  0  0  0
    6.0052   -3.4256   -2.6826 H   0  0  0  0  0  0  0  0  0  0  0  0
    7.2141   -1.5502   -3.9088 H   0  0  0  0  0  0  0  0  0  0  0  0
    5.2948   -0.0351   -3.8303 H   0  0  0  0  0  0  0  0  0  0  0  0
    6.7068    0.8207   -3.2248 H   0  0  0  0  0  0  0  0  0  0  0  0
    4.6494    1.1831   -1.7918 H   0  0  0  0  0  0  0  0  0  0  0  0
    5.9626    0.4584   -0.8605 H   0  0  0  0  0  0  0  0  0  0  0  0
    7.6254   -4.5000    0.4207 H   0  0  0  0  0  0  0  0  0  0  0  0
    8.0935   -6.8671   -0.2315 H   0  0  0  0  0  0  0  0  0  0  0  0
    7.6266   -5.8107   -4.1783 H   0  0  0  0  0  0  0  0  0  0  0  0
   11.3515   -1.0857    1.4330 H   0  0  0  0  0  0  0  0  0  0  0  0
   12.9458   -2.5800    2.6006 H   0  0  0  0  0  0  0  0  0  0  0  0
   10.5841   -6.0040    1.5083 H   0  0  0  0  0  0  0  0  0  0  0  0
    9.8318   -4.6629   -0.2553 H   0  0  0  0  0  0  0  0  0  0  0  0
  1  2  1  0  0  0  0
  1 30  1  0  0  0  0
  2  3  1  0  0  0  0
  2 31  1  0  0  0  0
  2 32  1  0  0  0  0
  3  4  2  0  0  0  0
  3  5  1  0  0  0  0
  5  6  1  0  0  0  0
  5 10  1  0  0  0  0
  6  7  1  0  0  0  0
  6 33  1  0  0  0  0
  6 34  1  0  0  0  0
  7  8  1  0  0  0  0
  7 35  1  0  0  0  0
  7 36  1  0  0  0  0
  8  9  1  0  0  0  0
  8 11  1  0  0  0  0
  8 37  1  0  0  0  0
  9 10  1  0  0  0  0
  9 38  1  0  0  0  0
  9 39  1  0  0  0  0
 10 40  1  0  0  0  0
 10 41  1  0  0  0  0
 11 12  2  0  0  0  0
 11 16  1  0  0  0  0
 12 13  1  0  0  0  0
 13 14  1  0  0  0  0
 13 15  1  0  0  0  0
 15 16  2  0  0  0  0
 15 23  1  0  0  0  0
 16 17  1  0  0  0  0
 17 18  2  0  0  0  0
 17 22  1  0  0  0  0
 18 19  1  0  0  0  0
 18 42  1  0  0  0  0
 19 20  2  0  0  0  0
 19 43  1  0  0  0  0
 20 21  1  0  0  0  0
 21 22  2  0  0  0  0
 21 44  1  0  0  0  0
 23 24  2  0  0  0  0
 23 28  1  0  0  0  0
 24 25  1  0  0  0  0
 24 45  1  0  0  0  0
 25 26  2  0  0  0  0
 25 46  1  0  0  0  0
 26 27  1  0  0  0  0
 26 29  1  0  0  0  0
 27 28  2  0  0  0  0
 27 47  1  0  0  0  0
 28 48  1  0  0  0  0
M  END
$$$$
