I4B
 OpenBabel04121316133D

 24 24  0  0  0  0  0  0  0  0999 V2000
    1.0119    0.2060   -0.1756 C   0  0  0  0  0  0  0  0  0  0  0  0
    2.5397    0.1023   -0.0479 C   0  0  0  0  0  0  0  0  0  0  0  0
    3.0897   -1.2896   -0.4222 C   0  0  0  0  0  0  0  0  0  0  0  0
    2.7355   -2.4348    0.5053 C   0  0  0  0  0  0  0  0  0  0  0  0
    3.2695   -3.7045    0.2383 C   0  0  0  0  0  0  0  0  0  0  0  0
    2.8461   -4.8185    0.9665 C   0  0  0  0  0  0  0  0  0  0  0  0
    1.9089   -4.6801    1.9867 C   0  0  0  0  0  0  0  0  0  0  0  0
    1.4388   -3.4163    2.3216 C   0  0  0  0  0  0  0  0  0  0  0  0
    1.8680   -2.3087    1.5976 C   0  0  0  0  0  0  0  0  0  0  0  0
    3.1483    1.1738   -0.9557 C   0  0  0  0  0  0  0  0  0  0  0  0
    0.4581   -0.5390    0.3965 H   0  0  0  0  0  0  0  0  0  0  0  0
    0.6961    0.0857   -1.2157 H   0  0  0  0  0  0  0  0  0  0  0  0
    0.6745    1.1834    0.1839 H   0  0  0  0  0  0  0  0  0  0  0  0
    2.8409    0.3276    0.9835 H   0  0  0  0  0  0  0  0  0  0  0  0
    4.1863   -1.2352   -0.4732 H   0  0  0  0  0  0  0  0  0  0  0  0
    2.7424   -1.5459   -1.4337 H   0  0  0  0  0  0  0  0  0  0  0  0
    4.0152   -3.8309   -0.5431 H   0  0  0  0  0  0  0  0  0  0  0  0
    3.2439   -5.8020    0.7293 H   0  0  0  0  0  0  0  0  0  0  0  0
    1.5558   -5.5469    2.5349 H   0  0  0  0  0  0  0  0  0  0  0  0
    0.7365   -3.2822    3.1385 H   0  0  0  0  0  0  0  0  0  0  0  0
    1.4846   -1.3440    1.9147 H   0  0  0  0  0  0  0  0  0  0  0  0
    2.8315    1.0298   -1.9948 H   0  0  0  0  0  0  0  0  0  0  0  0
    4.2415    1.1551   -0.9254 H   0  0  0  0  0  0  0  0  0  0  0  0
    2.8177    2.1687   -0.6381 H   0  0  0  0  0  0  0  0  0  0  0  0
  1  2  1  0  0  0  0
  1 11  1  0  0  0  0
  1 12  1  0  0  0  0
  1 13  1  0  0  0  0
  2  3  1  0  0  0  0
  2 10  1  0  0  0  0
  2 14  1  0  0  0  0
  3  4  1  0  0  0  0
  3 15  1  0  0  0  0
  3 16  1  0  0  0  0
  4  5  2  0  0  0  0
  4  9  1  0  0  0  0
  5  6  1  0  0  0  0
  5 17  1  0  0  0  0
  6  7  2  0  0  0  0
  6 18  1  0  0  0  0
  7  8  1  0  0  0  0
  7 19  1  0  0  0  0
  8  9  2  0  0  0  0
  8 20  1  0  0  0  0
  9 21  1  0  0  0  0
 10 22  1  0  0  0  0
 10 23  1  0  0  0  0
 10 24  1  0  0  0  0
M  END
$$$$
