I50
 OpenBabel04121316133D

 51 52  0  0  0  0  0  0  0  0999 V2000
    1.1168    0.0562   -0.0736 N   0  0  0  0  0  0  0  0  0  0  0  0
    2.4633    0.0947   -0.0762 C   0  0  0  0  0  0  0  0  0  0  0  0
    3.1026    1.2098   -0.1428 N   0  0  0  0  0  0  0  0  0  0  0  0
    3.0448   -1.1282   -0.0067 N   0  0  0  0  0  0  0  0  0  0  0  0
    4.4337   -1.1357   -0.0037 O   0  0  0  0  0  0  0  0  0  0  0  0
    4.8660   -2.4831    0.0706 C   0  0  0  0  0  0  0  0  0  0  0  0
    6.3753   -2.5035    0.0748 C   0  0  0  0  0  0  0  0  0  0  0  0
    6.8963   -3.8501    0.1011 N   0  0  0  0  0  0  0  0  0  0  0  0
    8.2226   -4.0119    0.3892 C   0  0  0  0  0  0  0  0  0  0  0  0
    8.9178   -3.0716    0.7842 O   0  0  0  0  0  0  0  0  0  0  0  0
    8.7392   -5.4181    0.1992 C   0  0  0  0  0  0  0  0  0  0  0  0
   10.2372   -5.4590    0.1135 C   0  0  0  0  0  0  0  0  0  0  0  0
   11.0411   -4.5503   -0.5863 C   0  0  0  0  0  0  0  0  0  0  0  0
   10.4244   -3.4803   -1.7947 Cl  0  0  0  0  0  0  0  0  0  0  0  0
   12.4059   -4.4820   -0.3232 C   0  0  0  0  0  0  0  0  0  0  0  0
   12.9651   -5.3138    0.6401 C   0  0  0  0  0  0  0  0  0  0  0  0
   12.2205   -6.3661    1.1785 C   0  0  0  0  0  0  0  0  0  0  0  0
   10.8661   -6.4408    0.8642 C   0  0  0  0  0  0  0  0  0  0  0  0
   10.1197   -7.4562    1.3334 F   0  0  0  0  0  0  0  0  0  0  0  0
   12.8592   -7.2938    1.9609 N   0  0  0  0  0  0  0  0  0  0  0  0
   12.2889   -8.5987    2.3083 C   0  0  0  0  0  0  0  0  0  0  0  0
   13.3148   -9.5597    2.9544 C   0  0  0  0  0  0  0  0  0  0  0  0
   14.4046   -9.9520    1.9708 C   0  0  0  0  0  0  0  0  0  0  0  0
   15.2365   -8.9963    1.3607 C   0  0  0  0  0  0  0  0  0  0  0  0
   16.0080   -9.3158    0.2522 C   0  0  0  0  0  0  0  0  0  0  0  0
   16.1368  -10.6436   -0.1196 C   0  0  0  0  0  0  0  0  0  0  0  0
   15.4802  -11.6354    0.6081 C   0  0  0  0  0  0  0  0  0  0  0  0
   14.5649  -11.2895    1.6019 C   0  0  0  0  0  0  0  0  0  0  0  0
   13.8188   -8.9606    4.0736 F   0  0  0  0  0  0  0  0  0  0  0  0
   12.6072  -10.6406    3.4144 F   0  0  0  0  0  0  0  0  0  0  0  0
    0.5818    0.9097   -0.1234 H   0  0  0  0  0  0  0  0  0  0  0  0
    0.6033   -0.8090   -0.0208 H   0  0  0  0  0  0  0  0  0  0  0  0
    2.4508    1.9882   -0.1879 H   0  0  0  0  0  0  0  0  0  0  0  0
    2.5292   -1.9920    0.0521 H   0  0  0  0  0  0  0  0  0  0  0  0
    4.4913   -3.0485   -0.7904 H   0  0  0  0  0  0  0  0  0  0  0  0
    4.4960   -2.9462    0.9931 H   0  0  0  0  0  0  0  0  0  0  0  0
    6.7636   -1.9401    0.9326 H   0  0  0  0  0  0  0  0  0  0  0  0
    6.7805   -2.0122   -0.8195 H   0  0  0  0  0  0  0  0  0  0  0  0
    6.2779   -4.6523    0.1223 H   0  0  0  0  0  0  0  0  0  0  0  0
    8.3046   -5.9188   -0.6698 H   0  0  0  0  0  0  0  0  0  0  0  0
    8.3968   -5.9545    1.0984 H   0  0  0  0  0  0  0  0  0  0  0  0
   13.0340   -3.7726   -0.8541 H   0  0  0  0  0  0  0  0  0  0  0  0
   13.9997   -5.1575    0.9335 H   0  0  0  0  0  0  0  0  0  0  0  0
   13.7947   -7.0794    2.2673 H   0  0  0  0  0  0  0  0  0  0  0  0
   11.8638   -9.0877    1.4190 H   0  0  0  0  0  0  0  0  0  0  0  0
   11.4710   -8.4367    3.0187 H   0  0  0  0  0  0  0  0  0  0  0  0
   15.2906   -7.9722    1.7055 H   0  0  0  0  0  0  0  0  0  0  0  0
   16.5113   -8.5259   -0.2995 H   0  0  0  0  0  0  0  0  0  0  0  0
   16.7705  -10.9044   -0.9606 H   0  0  0  0  0  0  0  0  0  0  0  0
   15.6652  -12.6815    0.3864 H   0  0  0  0  0  0  0  0  0  0  0  0
   13.9768  -12.0671    2.0861 H   0  0  0  0  0  0  0  0  0  0  0  0
  1  2  1  0  0  0  0
  1 31  1  0  0  0  0
  1 32  1  0  0  0  0
  2  3  2  0  0  0  0
  2  4  1  0  0  0  0
  3 33  1  0  0  0  0
  4  5  1  0  0  0  0
  4 34  1  0  0  0  0
  5  6  1  0  0  0  0
  6  7  1  0  0  0  0
  6 35  1  0  0  0  0
  6 36  1  0  0  0  0
  7  8  1  0  0  0  0
  7 37  1  0  0  0  0
  7 38  1  0  0  0  0
  8  9  1  0  0  0  0
  8 39  1  0  0  0  0
  9 10  2  0  0  0  0
  9 11  1  0  0  0  0
 11 12  1  0  0  0  0
 11 40  1  0  0  0  0
 11 41  1  0  0  0  0
 12 13  2  0  0  0  0
 12 18  1  0  0  0  0
 13 14  1  0  0  0  0
 13 15  1  0  0  0  0
 15 16  2  0  0  0  0
 15 42  1  0  0  0  0
 16 17  1  0  0  0  0
 16 43  1  0  0  0  0
 17 18  2  0  0  0  0
 17 20  1  0  0  0  0
 18 19  1  0  0  0  0
 20 21  1  0  0  0  0
 20 44  1  0  0  0  0
 21 22  1  0  0  0  0
 21 45  1  0  0  0  0
 21 46  1  0  0  0  0
 22 23  1  0  0  0  0
 22 29  1  0  0  0  0
 22 30  1  0  0  0  0
 23 24  2  0  0  0  0
 23 28  1  0  0  0  0
 24 25  1  0  0  0  0
 24 47  1  0  0  0  0
 25 26  2  0  0  0  0
 25 48  1  0  0  0  0
 26 27  1  0  0  0  0
 26 49  1  0  0  0  0
 27 28  2  0  0  0  0
 27 50  1  0  0  0  0
 28 51  1  0  0  0  0
M  END
$$$$
