I5A
 OpenBabel04121316133D

 29 30  0  0  1  0  0  0  0  0999 V2000
    0.9701    0.2450    0.0078 I   0  0  0  0  0  0  0  0  0  0  0  0
    3.1233   -0.0455   -0.0645 C   0  0  0  0  0  0  0  0  0  0  0  0
    3.5886   -1.1268   -1.0545 C   0  0  1  0  0  0  0  0  0  0  0  0
    3.4836   -0.7346   -2.0775 H   0  0  0  0  0  0  0  0  0  0  0  0
    4.9847   -1.4732   -0.8422 O   0  0  0  0  0  0  0  0  0  0  0  0
    5.1600   -2.7549   -1.4925 C   0  0  2  0  0  0  0  0  0  0  0  0
    5.1554   -2.5824   -2.5766 H   0  0  0  0  0  0  0  0  0  0  0  0
    3.8789   -3.5470   -1.1747 C   0  0  1  0  0  0  0  0  0  0  0  0
    3.9743   -4.1521   -0.2718 H   0  0  0  0  0  0  0  0  0  0  0  0
    2.8484   -2.4526   -0.8930 C   0  0  2  0  0  0  0  0  0  0  0  0
    2.5087   -2.5632    0.1423 H   0  0  0  0  0  0  0  0  0  0  0  0
    1.7147   -2.5095   -1.7474 O   0  0  0  0  0  0  0  0  0  0  0  0
    3.4348   -4.4215   -2.2129 O   0  0  0  0  0  0  0  0  0  0  0  0
    6.4616   -3.3479   -1.1472 N   0  0  0  0  0  0  0  0  0  0  0  0
    6.6375   -4.3481   -0.2041 C   0  0  0  0  0  0  0  0  0  0  0  0
    7.7739   -5.0484   -0.1491 C   0  0  0  0  0  0  0  0  0  0  0  0
    8.9115   -4.4859   -0.8984 C   0  0  0  0  0  0  0  0  0  0  0  0
    8.7773   -3.5084   -1.7374 N   0  0  0  0  0  0  0  0  0  0  0  0
    7.5308   -2.9923   -1.9885 C   0  0  0  0  0  0  0  0  0  0  0  0
    7.3601   -2.2487   -2.9601 O   0  0  0  0  0  0  0  0  0  0  0  0
   10.1685   -4.9767   -0.6991 N   0  0  0  0  0  0  0  0  0  0  0  0
    3.4790   -0.2836    0.9437 H   0  0  0  0  0  0  0  0  0  0  0  0
    3.5669    0.9209   -0.3297 H   0  0  0  0  0  0  0  0  0  0  0  0
    1.3811   -3.4233   -1.7078 H   0  0  0  0  0  0  0  0  0  0  0  0
    4.1751   -5.0005   -2.4644 H   0  0  0  0  0  0  0  0  0  0  0  0
    5.8205   -4.6088    0.4577 H   0  0  0  0  0  0  0  0  0  0  0  0
    7.9249   -5.9334    0.4537 H   0  0  0  0  0  0  0  0  0  0  0  0
   10.3891   -5.6108    0.0560 H   0  0  0  0  0  0  0  0  0  0  0  0
   10.9311   -4.4119   -1.0596 H   0  0  0  0  0  0  0  0  0  0  0  0
  1  2  1  0  0  0  0
  2  3  1  0  0  0  0
  2 22  1  0  0  0  0
  2 23  1  0  0  0  0
  3  4  1  6  0  0  0
  3  5  1  0  0  0  0
  3 10  1  0  0  0  0
  5  6  1  0  0  0  0
  6  8  1  0  0  0  0
  6 14  1  0  0  0  0
  6  7  1  6  0  0  0
  8  9  1  1  0  0  0
  8 10  1  0  0  0  0
  8 13  1  0  0  0  0
 10 11  1  1  0  0  0
 10 12  1  0  0  0  0
 12 24  1  0  0  0  0
 13 25  1  0  0  0  0
 14 15  1  0  0  0  0
 14 19  1  0  0  0  0
 15 16  2  0  0  0  0
 15 26  1  0  0  0  0
 16 17  1  0  0  0  0
 16 27  1  0  0  0  0
 17 18  2  0  0  0  0
 17 21  1  0  0  0  0
 18 19  1  0  0  0  0
 19 20  2  0  0  0  0
 21 28  1  0  0  0  0
 21 29  1  0  0  0  0
M  END
$$$$
