I5I
 OpenBabel04121316133D

 26 28  0  0  0  0  0  0  0  0999 V2000
    0.9103   -0.0349   -0.0318 S   0  0  0  0  0  0  0  0  0  0  0  0
    2.5041   -0.0085   -0.0335 C   0  0  0  0  0  0  0  0  0  0  0  0
    3.6817   -0.0194   -0.0466 N   0  0  0  0  0  0  0  0  0  0  0  0
    4.3291    1.2380    0.0454 C   0  0  0  0  0  0  0  0  0  0  0  0
    3.7050    2.4956   -0.0513 C   0  0  0  0  0  0  0  0  0  0  0  0
    4.4157    3.7112    0.0514 C   0  0  0  0  0  0  0  0  0  0  0  0
    5.7958    3.6297    0.2517 C   0  0  0  0  0  0  0  0  0  0  0  0
    6.4582    2.4119    0.3375 C   0  0  0  0  0  0  0  0  0  0  0  0
    5.7224    1.2126    0.2303 C   0  0  0  0  0  0  0  0  0  0  0  0
    7.8207    2.7285    0.5271 C   0  0  0  0  0  0  0  0  0  0  0  0
    7.9426    4.1070    0.5656 C   0  0  0  0  0  0  0  0  0  0  0  0
    6.6921    4.6695    0.3931 O   0  0  0  0  0  0  0  0  0  0  0  0
    9.1562    4.9013    0.7154 C   0  0  0  0  0  0  0  0  0  0  0  0
   10.3075    4.2537    0.7080 N   0  0  0  0  0  0  0  0  0  0  0  0
   11.3623    5.2922    0.8904 C   0  0  0  0  0  0  0  0  0  0  0  0
   10.6756    6.6319    0.6295 C   0  0  0  0  0  0  0  0  0  0  0  0
    9.3038    6.2572    0.8489 N   0  0  0  0  0  0  0  0  0  0  0  0
    2.6308    2.5627   -0.2126 H   0  0  0  0  0  0  0  0  0  0  0  0
    3.8946    4.6585   -0.0226 H   0  0  0  0  0  0  0  0  0  0  0  0
    6.2442    0.2611    0.2972 H   0  0  0  0  0  0  0  0  0  0  0  0
    8.6432    2.0358    0.6279 H   0  0  0  0  0  0  0  0  0  0  0  0
   12.1960    5.1207    0.2017 H   0  0  0  0  0  0  0  0  0  0  0  0
   11.7502    5.2373    1.9152 H   0  0  0  0  0  0  0  0  0  0  0  0
   10.8256    6.9318   -0.4143 H   0  0  0  0  0  0  0  0  0  0  0  0
   11.0436    7.4286    1.2828 H   0  0  0  0  0  0  0  0  0  0  0  0
    8.5514    6.9069    1.0173 H   0  0  0  0  0  0  0  0  0  0  0  0
  1  2  2  0  0  0  0
  2  3  2  0  0  0  0
  3  4  1  0  0  0  0
  4  5  2  0  0  0  0
  4  9  1  0  0  0  0
  5  6  1  0  0  0  0
  5 18  1  0  0  0  0
  6  7  2  0  0  0  0
  6 19  1  0  0  0  0
  7  8  1  0  0  0  0
  7 12  1  0  0  0  0
  8  9  2  0  0  0  0
  8 10  1  0  0  0  0
  9 20  1  0  0  0  0
 10 11  2  0  0  0  0
 10 21  1  0  0  0  0
 11 12  1  0  0  0  0
 11 13  1  0  0  0  0
 13 14  2  0  0  0  0
 13 17  1  0  0  0  0
 14 15  1  0  0  0  0
 15 16  1  0  0  0  0
 15 22  1  0  0  0  0
 15 23  1  0  0  0  0
 16 17  1  0  0  0  0
 16 24  1  0  0  0  0
 16 25  1  0  0  0  0
 17 26  1  0  0  0  0
M  END
$$$$
