I6P
 OpenBabel04121316133D

 54 54  0  0  1  0  0  0  0  0999 V2000
    2.5589   -1.5867   -0.4874 O   0  0  0  0  0  0  0  0  0  0  0  0
    1.1772   -1.1327    0.4494 P   0  0  0  0  0  0  0  0  0  0  0  0
    2.0574   -0.1714    1.2351 O   0  0  0  0  0  0  0  0  0  0  0  0
    0.5915   -0.3379   -0.8590 O   0  0  0  0  0  0  0  0  0  0  0  0
    1.3465   -0.4846   -2.0631 C   0  0  2  0  0  0  0  0  0  0  0  0
    2.3814   -0.1829   -1.8698 H   0  0  0  0  0  0  0  0  0  0  0  0
    0.9336    0.5276   -3.0990 C   0  0  2  0  0  0  0  0  0  0  0  0
    0.9963    1.5404   -2.6884 H   0  0  0  0  0  0  0  0  0  0  0  0
   -0.3768    0.2695   -3.5369 O   0  0  0  0  0  0  0  0  0  0  0  0
   -1.1654    1.3630   -4.6210 P   0  0  0  0  0  0  0  0  0  0  0  0
   -0.1328    2.4669   -4.5502 O   0  0  0  0  0  0  0  0  0  0  0  0
   -1.1642    0.2035   -5.7105 O   0  0  0  0  0  0  0  0  0  0  0  0
   -1.9540    2.4566   -5.7051 O   0  0  0  0  0  0  0  0  0  0  0  0
    1.8727    0.2696   -4.2411 C   0  0  2  0  0  0  0  0  0  0  0  0
    2.8963    0.4326   -3.8905 H   0  0  0  0  0  0  0  0  0  0  0  0
    1.5450    1.1700   -5.2448 O   0  0  0  0  0  0  0  0  0  0  0  0
    2.5458    0.9347   -6.6363 P   0  0  0  0  0  0  0  0  0  0  0  0
    2.3047    2.3578   -7.1360 O   0  0  0  0  0  0  0  0  0  0  0  0
    3.8966    1.0803   -5.7129 O   0  0  0  0  0  0  0  0  0  0  0  0
    3.5465    0.6995   -8.0277 O   0  0  0  0  0  0  0  0  0  0  0  0
    1.7170   -1.1096   -4.8414 C   0  0  2  0  0  0  0  0  0  0  0  0
    0.6625   -1.2681   -5.0749 H   0  0  0  0  0  0  0  0  0  0  0  0
    2.0879   -2.1917   -3.8940 C   0  0  1  0  0  0  0  0  0  0  0  0
    3.1629   -2.1185   -3.7145 H   0  0  0  0  0  0  0  0  0  0  0  0
    1.2753   -1.9354   -2.6385 C   0  0  1  0  0  0  0  0  0  0  0  0
    0.2892   -1.9148   -3.0616 H   0  0  0  0  0  0  0  0  0  0  0  0
    1.4391   -3.0523   -1.7068 O   0  0  0  0  0  0  0  0  0  0  0  0
   -0.0069   -3.9994   -1.6352 P   0  0  0  0  0  0  0  0  0  0  0  0
   -0.9106   -3.1564   -2.5069 O   0  0  0  0  0  0  0  0  0  0  0  0
    0.4203   -5.3777   -2.2796 O   0  0  0  0  0  0  0  0  0  0  0  0
   -1.4528   -4.9465   -1.5636 O   0  0  0  0  0  0  0  0  0  0  0  0
    1.7474   -3.4877   -4.5072 O   0  0  0  0  0  0  0  0  0  0  0  0
    2.1295   -4.7392   -3.3757 P   0  0  0  0  0  0  0  0  0  0  0  0
    2.4109   -5.7338   -4.5015 O   0  0  0  0  0  0  0  0  0  0  0  0
    3.6146   -4.0917   -3.0898 O   0  0  0  0  0  0  0  0  0  0  0  0
    2.5117   -5.9908   -2.2441 O   0  0  0  0  0  0  0  0  0  0  0  0
    2.4996   -1.2143   -6.0359 O   0  0  0  0  0  0  0  0  0  0  0  0
    1.5430   -2.1018   -7.1717 P   0  0  0  0  0  0  0  0  0  0  0  0
    0.4752   -1.0283   -7.2003 O   0  0  0  0  0  0  0  0  0  0  0  0
    2.6034   -1.7360   -8.3480 O   0  0  0  0  0  0  0  0  0  0  0  0
    0.5865   -2.9894   -8.3076 O   0  0  0  0  0  0  0  0  0  0  0  0
   -0.2046   -0.6788    1.3861 O   0  0  0  0  0  0  0  0  0  0  0  0
    3.2620   -0.9994   -0.1286 H   0  0  0  0  0  0  0  0  0  0  0  0
   -1.7611   -0.5094   -5.4018 H   0  0  0  0  0  0  0  0  0  0  0  0
   -1.3209    3.2071   -5.7078 H   0  0  0  0  0  0  0  0  0  0  0  0
    3.9521    2.0051   -5.4184 H   0  0  0  0  0  0  0  0  0  0  0  0
    3.1878    1.3628   -8.6593 H   0  0  0  0  0  0  0  0  0  0  0  0
    0.7796   -6.0085   -1.6144 H   0  0  0  0  0  0  0  0  0  0  0  0
   -2.1388   -4.4208   -1.1132 H   0  0  0  0  0  0  0  0  0  0  0  0
    4.1977   -4.2271   -3.8064 H   0  0  0  0  0  0  0  0  0  0  0  0
    2.5027   -6.7782   -2.8339 H   0  0  0  0  0  0  0  0  0  0  0  0
    3.1855   -0.9592   -8.1772 H   0  0  0  0  0  0  0  0  0  0  0  0
   -0.0388   -3.5570   -7.8268 H   0  0  0  0  0  0  0  0  0  0  0  0
    0.1072   -0.5306    2.3002 H   0  0  0  0  0  0  0  0  0  0  0  0
  1  2  1  0  0  0  0
  1 43  1  0  0  0  0
  2  3  2  0  0  0  0
  2  4  1  0  0  0  0
  2 42  1  0  0  0  0
  5  7  1  0  0  0  0
  5 25  1  0  0  0  0
  5  6  1  1  0  0  0
  5  4  1  0  0  0  0
  7 14  1  0  0  0  0
  7  9  1  0  0  0  0
  7  8  1  1  0  0  0
  9 10  1  0  0  0  0
 10 11  2  0  0  0  0
 10 12  1  0  0  0  0
 10 13  1  0  0  0  0
 12 44  1  0  0  0  0
 13 45  1  0  0  0  0
 14 15  1  1  0  0  0
 14 16  1  0  0  0  0
 14 21  1  0  0  0  0
 16 17  1  0  0  0  0
 17 18  2  0  0  0  0
 17 19  1  0  0  0  0
 17 20  1  0  0  0  0
 19 46  1  0  0  0  0
 20 47  1  0  0  0  0
 21 23  1  0  0  0  0
 21 37  1  0  0  0  0
 21 22  1  6  0  0  0
 23 24  1  1  0  0  0
 23 25  1  0  0  0  0
 23 32  1  0  0  0  0
 25 27  1  0  0  0  0
 25 26  1  6  0  0  0
 27 28  1  0  0  0  0
 28 29  2  0  0  0  0
 28 30  1  0  0  0  0
 28 31  1  0  0  0  0
 30 48  1  0  0  0  0
 31 49  1  0  0  0  0
 32 33  1  0  0  0  0
 33 34  2  0  0  0  0
 33 35  1  0  0  0  0
 33 36  1  0  0  0  0
 35 50  1  0  0  0  0
 36 51  1  0  0  0  0
 37 38  1  0  0  0  0
 38 39  2  0  0  0  0
 38 40  1  0  0  0  0
 38 41  1  0  0  0  0
 40 52  1  0  0  0  0
 41 53  1  0  0  0  0
 42 54  1  0  0  0  0
M  END
$$$$
