IAC
 OpenBabel04121316133D

 22 23  0  0  0  0  0  0  0  0999 V2000
    0.8901    0.4614    0.1922 O   0  0  0  0  0  0  0  0  0  0  0  0
    2.1514    0.0592   -0.0864 C   0  0  0  0  0  0  0  0  0  0  0  0
    2.3232   -1.0610   -0.5410 O   0  0  0  0  0  0  0  0  0  0  0  0
    3.1319    1.2081    0.0440 C   0  0  0  0  0  0  0  0  0  0  0  0
    4.6076    0.8960    0.0363 C   0  0  0  0  0  0  0  0  0  0  0  0
    5.5979    1.8718    0.0147 C   0  0  0  0  0  0  0  0  0  0  0  0
    6.8231    1.2573   -0.0020 N   0  0  0  0  0  0  0  0  0  0  0  0
    7.7144    1.7349   -0.0147 H   0  0  0  0  0  0  0  0  0  0  0  0
    6.6706   -0.1092    0.0033 C   0  0  0  0  0  0  0  0  0  0  0  0
    5.2990   -0.3711    0.0546 C   0  0  0  0  0  0  0  0  0  0  0  0
    4.9254   -1.7331    0.1126 C   0  0  0  0  0  0  0  0  0  0  0  0
    5.8520   -2.7653    0.0356 C   0  0  0  0  0  0  0  0  0  0  0  0
    7.1967   -2.4684   -0.0131 C   0  0  0  0  0  0  0  0  0  0  0  0
    7.6322   -1.1369   -0.0152 C   0  0  0  0  0  0  0  0  0  0  0  0
    0.5263    0.8149   -0.6433 H   0  0  0  0  0  0  0  0  0  0  0  0
    2.8989    1.7546    0.9678 H   0  0  0  0  0  0  0  0  0  0  0  0
    2.9164    1.8862   -0.7957 H   0  0  0  0  0  0  0  0  0  0  0  0
    5.5360    2.9548    0.0107 H   0  0  0  0  0  0  0  0  0  0  0  0
    3.9071   -2.0704    0.2264 H   0  0  0  0  0  0  0  0  0  0  0  0
    5.4837   -3.7878    0.0336 H   0  0  0  0  0  0  0  0  0  0  0  0
    7.9075   -3.2885   -0.0306 H   0  0  0  0  0  0  0  0  0  0  0  0
    8.6936   -0.9193   -0.0332 H   0  0  0  0  0  0  0  0  0  0  0  0
  1  2  1  0  0  0  0
  1 15  1  0  0  0  0
  2  3  2  0  0  0  0
  2  4  1  0  0  0  0
  4  5  1  0  0  0  0
  4 16  1  0  0  0  0
  4 17  1  0  0  0  0
  5  6  2  0  0  0  0
  5 10  1  0  0  0  0
  6  7  1  0  0  0  0
  6 18  1  0  0  0  0
  7  8  1  0  0  0  0
  7  9  1  0  0  0  0
  9 10  2  0  0  0  0
  9 14  1  0  0  0  0
 10 11  1  0  0  0  0
 11 12  2  0  0  0  0
 11 19  1  0  0  0  0
 12 13  1  0  0  0  0
 12 20  1  0  0  0  0
 13 14  2  0  0  0  0
 13 21  1  0  0  0  0
 14 22  1  0  0  0  0
M  END
$$$$
