IAP
 OpenBabel04121316133D

 23 23  0  0  0  0  0  0  0  0999 V2000
    1.0692    0.0136    0.0709 I   0  0  0  0  0  0  0  0  0  0  0  0
    3.2192    0.0136    0.0709 C   0  0  0  0  0  0  0  0  0  0  0  0
    3.7132   -0.8179   -1.0520 C   0  0  0  0  0  0  0  0  0  0  0  0
    2.9154   -1.3732   -1.8018 O   0  0  0  0  0  0  0  0  0  0  0  0
    5.0862   -0.9698   -1.2570 N   0  0  0  0  0  0  0  0  0  0  0  0
    5.5517   -1.7533   -2.3151 C   0  0  0  0  0  0  0  0  0  0  0  0
    5.8263   -1.2139   -3.5040 C   0  0  0  0  0  0  0  0  0  0  0  0
    6.1198   -2.0755   -4.5974 C   0  0  0  0  0  0  0  0  0  0  0  0
    5.8277   -3.4453   -4.4929 C   0  0  0  0  0  0  0  0  0  0  0  0
    5.5541   -3.9656   -3.3328 C   0  0  0  0  0  0  0  0  0  0  0  0
    5.5606   -3.1634   -2.1840 C   0  0  0  0  0  0  0  0  0  0  0  0
    5.2269   -5.4459   -3.2229 B   0  0  0  0  0  0  0  0  0  0  0  0
    5.2198   -6.2816   -4.4176 O   0  0  0  0  0  0  0  0  0  0  0  0
    4.9200   -6.0302   -1.9228 O   0  0  0  0  0  0  0  0  0  0  0  0
    3.5758   -0.3883    0.9962 H   0  0  0  0  0  0  0  0  0  0  0  0
    3.5759    1.0159   -0.0437 H   0  0  0  0  0  0  0  0  0  0  0  0
    5.7259   -0.5244   -0.6557 H   0  0  0  0  0  0  0  0  0  0  0  0
    5.8260   -0.1894   -3.6283 H   0  0  0  0  0  0  0  0  0  0  0  0
    6.5433   -1.6976   -5.4593 H   0  0  0  0  0  0  0  0  0  0  0  0
    5.8301   -4.0392   -5.3369 H   0  0  0  0  0  0  0  0  0  0  0  0
    5.5720   -3.5975   -1.2478 H   0  0  0  0  0  0  0  0  0  0  0  0
    5.4430   -5.7411   -5.1916 H   0  0  0  0  0  0  0  0  0  0  0  0
    4.9682   -5.3429   -1.2400 H   0  0  0  0  0  0  0  0  0  0  0  0
  1  2  1  0  0  0  0
  2  3  1  0  0  0  0
  2 15  1  0  0  0  0
  2 16  1  0  0  0  0
  3  4  2  0  0  0  0
  3  5  1  0  0  0  0
  5  6  1  0  0  0  0
  5 17  1  0  0  0  0
  6  7  2  0  0  0  0
  6 11  1  0  0  0  0
  7  8  1  0  0  0  0
  7 18  1  0  0  0  0
  8  9  2  0  0  0  0
  8 19  1  0  0  0  0
  9 10  1  0  0  0  0
  9 20  1  0  0  0  0
 10 11  2  0  0  0  0
 10 12  1  0  0  0  0
 11 21  1  0  0  0  0
 12 13  1  0  0  0  0
 12 14  1  0  0  0  0
 13 22  1  0  0  0  0
 14 23  1  0  0  0  0
M  END
$$$$
