IAR
 OpenBabel04121316133D

 24 23  0  0  0  0  0  0  0  0999 V2000
    1.1764    0.0241    0.0187 N   0  0  0  0  0  0  0  0  0  0  0  0
    2.5134    0.0802   -0.0279 C   0  0  0  0  0  0  0  0  0  0  0  0
    3.1492    0.9390   -0.7410 N   0  0  0  0  0  0  0  0  0  0  0  0
    3.1516   -0.8334    0.7307 N   0  0  0  0  0  0  0  0  0  0  0  0
    4.6022   -0.8705    0.7615 C   0  0  0  0  0  0  0  0  0  0  0  0
    5.0959   -1.9744    1.6781 C   0  0  0  0  0  0  0  0  0  0  0  0
    6.6196   -2.0313    1.7254 C   0  0  0  0  0  0  0  0  0  0  0  0
    7.1476   -3.1223    2.6312 C   0  0  0  0  0  0  0  0  0  0  0  0
    6.4271   -3.9576    3.3248 N   0  0  0  0  0  0  0  0  0  0  0  0
    8.6685   -3.2500    2.7372 C   0  0  0  0  0  0  0  0  0  0  0  0
    9.4304   -2.5200    2.1311 O   0  0  0  0  0  0  0  0  0  0  0  0
    9.0143   -4.2483    3.5662 O   0  0  0  0  0  0  0  0  0  0  0  0
    0.6214    0.6727   -0.5199 H   0  0  0  0  0  0  0  0  0  0  0  0
    0.6782   -0.6495    0.5780 H   0  0  0  0  0  0  0  0  0  0  0  0
    2.4906    1.5355   -1.2363 H   0  0  0  0  0  0  0  0  0  0  0  0
    2.6321   -1.4982    1.2827 H   0  0  0  0  0  0  0  0  0  0  0  0
    4.9842    0.0946    1.1142 H   0  0  0  0  0  0  0  0  0  0  0  0
    4.9842   -1.0397   -0.2520 H   0  0  0  0  0  0  0  0  0  0  0  0
    4.7022   -2.9372    1.3299 H   0  0  0  0  0  0  0  0  0  0  0  0
    4.7022   -1.8091    2.6885 H   0  0  0  0  0  0  0  0  0  0  0  0
    7.0210   -1.0723    2.0768 H   0  0  0  0  0  0  0  0  0  0  0  0
    7.0210   -2.2005    0.7181 H   0  0  0  0  0  0  0  0  0  0  0  0
    5.4245   -3.7819    3.1789 H   0  0  0  0  0  0  0  0  0  0  0  0
    8.1884   -4.6651    3.9122 H   0  0  0  0  0  0  0  0  0  0  0  0
  1  2  1  0  0  0  0
  1 13  1  0  0  0  0
  1 14  1  0  0  0  0
  2  3  2  0  0  0  0
  2  4  1  0  0  0  0
  3 15  1  0  0  0  0
  4  5  1  0  0  0  0
  4 16  1  0  0  0  0
  5  6  1  0  0  0  0
  5 17  1  0  0  0  0
  5 18  1  0  0  0  0
  6  7  1  0  0  0  0
  6 19  1  0  0  0  0
  6 20  1  0  0  0  0
  7  8  1  0  0  0  0
  7 21  1  0  0  0  0
  7 22  1  0  0  0  0
  8  9  2  0  0  0  0
  8 10  1  0  0  0  0
  9 23  1  0  0  0  0
 10 11  2  0  0  0  0
 10 12  1  0  0  0  0
 12 24  1  0  0  0  0
M  END
$$$$
