IAV
 OpenBabel04121316133D

 38 39  0  0  1  0  0  0  0  0999 V2000
    4.3025   -1.5426   -0.1511 O   0  0  0  0  0  0  0  0  0  0  0  0
    4.8510   -1.1676    0.8878 C   0  0  0  0  0  0  0  0  0  0  0  0
    5.4866   -2.1303    1.8593 C   0  0  0  0  0  0  0  0  0  0  0  0
    5.9295   -3.3765    1.1478 C   0  0  0  0  0  0  0  0  0  0  0  0
    5.8014   -4.6521    1.6591 C   0  0  0  0  0  0  0  0  0  0  0  0
    6.2166   -5.5411    0.7069 N   0  0  0  0  0  0  0  0  0  0  0  0
    6.2164   -6.5447    0.8156 H   0  0  0  0  0  0  0  0  0  0  0  0
    6.6042   -4.8815   -0.4367 C   0  0  0  0  0  0  0  0  0  0  0  0
    6.4658   -3.5155   -0.1900 C   0  0  0  0  0  0  0  0  0  0  0  0
    6.7967   -2.6231   -1.2419 C   0  0  0  0  0  0  0  0  0  0  0  0
    7.2027   -3.1116   -2.4887 C   0  0  0  0  0  0  0  0  0  0  0  0
    7.3452   -4.4774   -2.6901 C   0  0  0  0  0  0  0  0  0  0  0  0
    7.0594   -5.3862   -1.6648 C   0  0  0  0  0  0  0  0  0  0  0  0
    4.8924    0.1578    1.1869 N   0  0  0  0  0  0  0  0  0  0  0  0
    4.3346    1.1642    0.2602 C   0  0  2  0  0  0  0  0  0  0  0  0
    3.2378    1.1156    0.3275 H   0  0  0  0  0  0  0  0  0  0  0  0
    4.6959    1.0228   -1.2724 C   0  0  0  0  0  0  0  0  0  0  0  0
    5.3745    1.8174   -1.9091 O   0  0  0  0  0  0  0  0  0  0  0  0
    4.1157   -0.0127   -1.9185 O   0  0  0  0  0  0  0  0  0  0  0  0
    4.8101    2.5661    0.7317 C   0  0  0  0  0  0  0  0  0  0  0  0
    4.2524    2.9440    2.1092 C   0  0  0  0  0  0  0  0  0  0  0  0
    6.3466    2.6318    0.7754 C   0  0  0  0  0  0  0  0  0  0  0  0
    4.6939   -2.3678    2.5803 H   0  0  0  0  0  0  0  0  0  0  0  0
    6.3235   -1.6864    2.4113 H   0  0  0  0  0  0  0  0  0  0  0  0
    5.4206   -4.9936    2.6127 H   0  0  0  0  0  0  0  0  0  0  0  0
    6.6995   -1.5474   -1.1271 H   0  0  0  0  0  0  0  0  0  0  0  0
    7.3980   -2.4121   -3.2996 H   0  0  0  0  0  0  0  0  0  0  0  0
    7.6835   -4.8403   -3.6579 H   0  0  0  0  0  0  0  0  0  0  0  0
    7.1774   -6.4515   -1.8297 H   0  0  0  0  0  0  0  0  0  0  0  0
    4.8522    0.3714    2.1799 H   0  0  0  0  0  0  0  0  0  0  0  0
    3.9271   -0.7650   -1.3029 H   0  0  0  0  0  0  0  0  0  0  0  0
    4.4470    3.3158    0.0156 H   0  0  0  0  0  0  0  0  0  0  0  0
    4.6019    2.2677    2.8954 H   0  0  0  0  0  0  0  0  0  0  0  0
    3.1582    2.9301    2.1110 H   0  0  0  0  0  0  0  0  0  0  0  0
    4.5813    3.9503    2.3892 H   0  0  0  0  0  0  0  0  0  0  0  0
    6.7555    1.9067    1.4867 H   0  0  0  0  0  0  0  0  0  0  0  0
    6.6856    3.6273    1.0693 H   0  0  0  0  0  0  0  0  0  0  0  0
    6.8007    2.4119   -0.1940 H   0  0  0  0  0  0  0  0  0  0  0  0
  1  2  2  0  0  0  0
  2  3  1  0  0  0  0
  2 14  1  0  0  0  0
  3  4  1  0  0  0  0
  3 23  1  0  0  0  0
  3 24  1  0  0  0  0
  4  5  2  0  0  0  0
  4  9  1  0  0  0  0
  5  6  1  0  0  0  0
  5 25  1  0  0  0  0
  6  7  1  0  0  0  0
  6  8  1  0  0  0  0
  8  9  2  0  0  0  0
  8 13  1  0  0  0  0
  9 10  1  0  0  0  0
 10 11  2  0  0  0  0
 10 26  1  0  0  0  0
 11 12  1  0  0  0  0
 11 27  1  0  0  0  0
 12 13  2  0  0  0  0
 12 28  1  0  0  0  0
 13 29  1  0  0  0  0
 14 30  1  0  0  0  0
 15 17  1  0  0  0  0
 15 20  1  0  0  0  0
 15 16  1  1  0  0  0
 15 14  1  0  0  0  0
 17 18  2  0  0  0  0
 17 19  1  0  0  0  0
 19 31  1  0  0  0  0
 20 21  1  0  0  0  0
 20 22  1  0  0  0  0
 20 32  1  0  0  0  0
 21 33  1  0  0  0  0
 21 34  1  0  0  0  0
 21 35  1  0  0  0  0
 22 36  1  0  0  0  0
 22 37  1  0  0  0  0
 22 38  1  0  0  0  0
M  END
$$$$
