IB
 OpenBabel04121316133D

 60 65  0  0  0  0  0  0  0  0999 V2000
    1.0865    0.0194    0.0344 C   0  0  0  0  0  0  0  0  0  0  0  0
    2.5165   -0.0196    0.1237 O   0  0  0  0  0  0  0  0  0  0  0  0
    3.0656   -0.6650   -0.9526 C   0  0  0  0  0  0  0  0  0  0  0  0
    3.7167    0.1317   -1.9000 C   0  0  0  0  0  0  0  0  0  0  0  0
    4.1704   -0.4302   -3.0988 C   0  0  0  0  0  0  0  0  0  0  0  0
    4.0630   -1.8087   -3.3224 C   0  0  0  0  0  0  0  0  0  0  0  0
    3.5759   -2.6166   -2.2837 C   0  0  0  0  0  0  0  0  0  0  0  0
    3.0510   -2.0530   -1.1158 C   0  0  0  0  0  0  0  0  0  0  0  0
    2.2823   -3.3899    0.3088 I   0  0  0  0  0  0  0  0  0  0  0  0
    4.3682   -2.4347   -4.6152 C   0  0  0  0  0  0  0  0  0  0  0  0
    4.2466   -3.7173   -4.9019 N   0  0  0  0  0  0  0  0  0  0  0  0
    4.5004   -3.8445   -6.2442 C   0  0  0  0  0  0  0  0  0  0  0  0
    4.8023   -2.6143   -6.8018 C   0  0  0  0  0  0  0  0  0  0  0  0
    4.7316   -1.7375   -5.7482 N   0  0  0  0  0  0  0  0  0  0  0  0
    4.8736   -0.7458   -5.8030 H   0  0  0  0  0  0  0  0  0  0  0  0
    5.0959   -2.4311   -8.1583 C   0  0  0  0  0  0  0  0  0  0  0  0
    5.0855   -3.5688   -8.9914 C   0  0  0  0  0  0  0  0  0  0  0  0
    4.7820   -4.8239   -8.4332 C   0  0  0  0  0  0  0  0  0  0  0  0
    4.4843   -4.9779   -7.0659 C   0  0  0  0  0  0  0  0  0  0  0  0
    5.3940   -3.4629  -10.4302 C   0  0  0  0  0  0  0  0  0  0  0  0
    5.6382   -4.4572  -11.2663 N   0  0  0  0  0  0  0  0  0  0  0  0
    5.8801   -3.8859  -12.4940 C   0  0  0  0  0  0  0  0  0  0  0  0
    5.7665   -2.5063  -12.4311 C   0  0  0  0  0  0  0  0  0  0  0  0
    5.4617   -2.2651  -11.1143 N   0  0  0  0  0  0  0  0  0  0  0  0
    5.2982   -1.3610  -10.7063 H   0  0  0  0  0  0  0  0  0  0  0  0
    5.9400   -1.6612  -13.5435 C   0  0  0  0  0  0  0  0  0  0  0  0
    6.2665   -2.2470  -14.7818 C   0  0  0  0  0  0  0  0  0  0  0  0
    6.4014   -3.6443  -14.8419 C   0  0  0  0  0  0  0  0  0  0  0  0
    6.2008   -4.4755  -13.7221 C   0  0  0  0  0  0  0  0  0  0  0  0
    6.4110   -1.5078  -15.9447 N   0  0  0  0  0  0  0  0  0  0  0  0
    7.7270   -1.2938  -16.5519 C   0  0  0  0  0  0  0  0  0  0  0  0
    8.1792    0.1737  -16.3381 C   0  0  0  0  0  0  0  0  0  0  0  0
    7.1000    1.1775  -16.8039 N   0  3  0  0  0  0  0  0  0  0  0  0
    7.0229    1.0829  -17.8251 H   0  0  0  0  0  0  0  0  0  0  0  0
    5.7162    0.8482  -16.2148 C   0  0  0  0  0  0  0  0  0  0  0  0
    5.3468   -0.6328  -16.4289 C   0  0  0  0  0  0  0  0  0  0  0  0
    7.4965    2.6032  -16.5192 C   0  0  0  0  0  0  0  0  0  0  0  0
    0.7093    0.5364    0.9216 H   0  0  0  0  0  0  0  0  0  0  0  0
    0.6375   -0.9763    0.0324 H   0  0  0  0  0  0  0  0  0  0  0  0
    0.7522    0.5640   -0.8551 H   0  0  0  0  0  0  0  0  0  0  0  0
    3.8454    1.1972   -1.7229 H   0  0  0  0  0  0  0  0  0  0  0  0
    4.5819    0.2375   -3.8498 H   0  0  0  0  0  0  0  0  0  0  0  0
    3.5800   -3.6983   -2.4098 H   0  0  0  0  0  0  0  0  0  0  0  0
    5.3339   -1.4423   -8.5259 H   0  0  0  0  0  0  0  0  0  0  0  0
    4.7714   -5.7109   -9.0667 H   0  0  0  0  0  0  0  0  0  0  0  0
    4.2453   -5.9501   -6.6474 H   0  0  0  0  0  0  0  0  0  0  0  0
    5.8343   -0.5912  -13.4258 H   0  0  0  0  0  0  0  0  0  0  0  0
    6.6210   -4.1213  -15.7953 H   0  0  0  0  0  0  0  0  0  0  0  0
    6.2783   -5.5548  -13.8027 H   0  0  0  0  0  0  0  0  0  0  0  0
    7.6362   -1.4793  -17.6304 H   0  0  0  0  0  0  0  0  0  0  0  0
    8.4834   -1.9897  -16.1726 H   0  0  0  0  0  0  0  0  0  0  0  0
    9.0826    0.3897  -16.9193 H   0  0  0  0  0  0  0  0  0  0  0  0
    8.3602    0.3772  -15.2780 H   0  0  0  0  0  0  0  0  0  0  0  0
    4.9917    1.4987  -16.7163 H   0  0  0  0  0  0  0  0  0  0  0  0
    5.7610    1.0946  -15.1501 H   0  0  0  0  0  0  0  0  0  0  0  0
    5.2375   -0.8150  -17.5066 H   0  0  0  0  0  0  0  0  0  0  0  0
    4.3793   -0.8725  -15.9752 H   0  0  0  0  0  0  0  0  0  0  0  0
    8.4270    2.8166  -17.0524 H   0  0  0  0  0  0  0  0  0  0  0  0
    7.6301    2.7228  -15.4403 H   0  0  0  0  0  0  0  0  0  0  0  0
    6.7026    3.2622  -16.8837 H   0  0  0  0  0  0  0  0  0  0  0  0
  1  2  1  0  0  0  0
  1 38  1  0  0  0  0
  1 39  1  0  0  0  0
  1 40  1  0  0  0  0
  2  3  1  0  0  0  0
  3  4  2  0  0  0  0
  3  8  1  0  0  0  0
  4  5  1  0  0  0  0
  4 41  1  0  0  0  0
  5  6  2  0  0  0  0
  5 42  1  0  0  0  0
  6  7  1  0  0  0  0
  6 10  1  0  0  0  0
  7  8  2  0  0  0  0
  7 43  1  0  0  0  0
  8  9  1  0  0  0  0
 10 11  2  0  0  0  0
 10 14  1  0  0  0  0
 11 12  1  0  0  0  0
 12 13  2  0  0  0  0
 12 19  1  0  0  0  0
 13 14  1  0  0  0  0
 13 16  1  0  0  0  0
 14 15  1  0  0  0  0
 16 17  2  0  0  0  0
 16 44  1  0  0  0  0
 17 18  1  0  0  0  0
 17 20  1  0  0  0  0
 18 19  2  0  0  0  0
 18 45  1  0  0  0  0
 19 46  1  0  0  0  0
 20 21  2  0  0  0  0
 20 24  1  0  0  0  0
 21 22  1  0  0  0  0
 22 23  2  0  0  0  0
 22 29  1  0  0  0  0
 23 24  1  0  0  0  0
 23 26  1  0  0  0  0
 24 25  1  0  0  0  0
 26 27  2  0  0  0  0
 26 47  1  0  0  0  0
 27 28  1  0  0  0  0
 27 30  1  0  0  0  0
 28 29  2  0  0  0  0
 28 48  1  0  0  0  0
 29 49  1  0  0  0  0
 30 31  1  0  0  0  0
 30 36  1  0  0  0  0
 31 32  1  0  0  0  0
 31 50  1  0  0  0  0
 31 51  1  0  0  0  0
 32 33  1  0  0  0  0
 32 52  1  0  0  0  0
 32 53  1  0  0  0  0
 33 34  1  0  0  0  0
 33 35  1  0  0  0  0
 33 37  1  0  0  0  0
 35 36  1  0  0  0  0
 35 54  1  0  0  0  0
 35 55  1  0  0  0  0
 36 56  1  0  0  0  0
 36 57  1  0  0  0  0
 37 58  1  0  0  0  0
 37 59  1  0  0  0  0
 37 60  1  0  0  0  0
M  CHG  1  33   1
M  END
$$$$
