IBA
 OpenBabel04121316133D

 52 53  0  0  1  0  0  0  0  0999 V2000
    1.1834   -0.3880    0.4707 C   0  0  0  0  0  0  0  0  0  0  0  0
    2.6646   -0.2017    0.1996 C   0  0  0  0  0  0  0  0  0  0  0  0
    3.0196    0.5099   -1.1315 C   0  0  0  0  0  0  0  0  0  0  0  0
    2.4635    1.8581   -1.1059 N   0  0  0  0  0  0  0  0  0  0  0  0
    1.1453    2.2477   -1.2978 C   0  0  0  0  0  0  0  0  0  0  0  0
    0.1925    1.2906   -1.6760 C   0  0  0  0  0  0  0  0  0  0  0  0
   -1.1664    1.5198   -1.6107 C   0  0  0  0  0  0  0  0  0  0  0  0
   -1.5707    2.8378   -1.3904 C   0  0  0  0  0  0  0  0  0  0  0  0
   -0.6163    3.8692   -1.1404 C   0  0  0  0  0  0  0  0  0  0  0  0
    0.7728    3.6026   -1.1181 C   0  0  0  0  0  0  0  0  0  0  0  0
    1.7681    4.6816   -1.1669 N   0  0  0  0  0  0  0  0  0  0  0  0
    1.5491    5.9845   -0.7140 C   0  0  0  0  0  0  0  0  0  0  0  0
    0.8500    6.3439    0.2118 O   0  0  0  0  0  0  0  0  0  0  0  0
    2.2978    6.9149   -1.6430 C   0  0  0  0  0  0  0  0  0  0  0  0
    3.4484    6.1005   -2.1909 C   0  0  0  0  0  0  0  0  0  0  0  0
    3.0757    4.6299   -1.9257 C   0  0  2  0  0  0  0  0  0  0  0  0
    2.9033    3.9303   -3.3181 C   0  0  0  0  0  0  0  0  0  0  0  0
    1.6431    4.3686   -3.9582 N   0  0  0  0  0  0  0  0  0  0  0  0
    4.1650    4.0543   -0.9743 C   0  0  0  0  0  0  0  0  0  0  0  0
    5.5542    4.3141   -1.0477 O   0  0  0  0  0  0  0  0  0  0  0  0
   -2.1577    0.3994   -1.7680 C   0  0  0  0  0  0  0  0  0  0  0  0
   -3.3345    0.6044   -1.9392 O   0  0  0  0  0  0  0  0  0  0  0  0
   -1.6794   -0.8702   -1.6665 O   0  0  0  0  0  0  0  0  0  0  0  0
    4.5731    0.5967   -1.2213 C   0  0  0  0  0  0  0  0  0  0  0  0
    5.1606    1.1811   -2.5110 C   0  0  0  0  0  0  0  0  0  0  0  0
    0.9535   -0.9317    1.3850 H   0  0  0  0  0  0  0  0  0  0  0  0
    0.7644   -0.9702   -0.3469 H   0  0  0  0  0  0  0  0  0  0  0  0
    0.6827    0.5758    0.5916 H   0  0  0  0  0  0  0  0  0  0  0  0
    3.1251   -1.1926    0.1925 H   0  0  0  0  0  0  0  0  0  0  0  0
    3.0826    0.3672    1.0381 H   0  0  0  0  0  0  0  0  0  0  0  0
    2.6705   -0.0412   -2.0119 H   0  0  0  0  0  0  0  0  0  0  0  0
    2.7875    2.3617   -0.2842 H   0  0  0  0  0  0  0  0  0  0  0  0
    0.5518    0.3114   -1.9429 H   0  0  0  0  0  0  0  0  0  0  0  0
   -2.6311    3.0780   -1.4796 H   0  0  0  0  0  0  0  0  0  0  0  0
   -0.9959    4.8859   -1.0476 H   0  0  0  0  0  0  0  0  0  0  0  0
    2.6570    7.8144   -1.1427 H   0  0  0  0  0  0  0  0  0  0  0  0
    1.6099    7.1959   -2.4488 H   0  0  0  0  0  0  0  0  0  0  0  0
    4.3832    6.3811   -1.6940 H   0  0  0  0  0  0  0  0  0  0  0  0
    3.6175    6.3135   -3.2557 H   0  0  0  0  0  0  0  0  0  0  0  0
    3.7364    4.1548   -3.9927 H   0  0  0  0  0  0  0  0  0  0  0  0
    2.8685    2.8399   -3.2677 H   0  0  0  0  0  0  0  0  0  0  0  0
    1.5518    5.3743   -3.8268 H   0  0  0  0  0  0  0  0  0  0  0  0
    0.8872    4.0074   -3.3699 H   0  0  0  0  0  0  0  0  0  0  0  0
    3.8664    4.2131    0.0681 H   0  0  0  0  0  0  0  0  0  0  0  0
    4.1621    3.0239   -1.1901 H   0  0  0  0  0  0  0  0  0  0  0  0
    5.9010    4.0673   -0.1614 H   0  0  0  0  0  0  0  0  0  0  0  0
   -0.7453   -1.0331   -1.4758 H   0  0  0  0  0  0  0  0  0  0  0  0
    4.9748   -0.4177   -1.1301 H   0  0  0  0  0  0  0  0  0  0  0  0
    4.9626    1.1570   -0.3587 H   0  0  0  0  0  0  0  0  0  0  0  0
    4.8199    0.6287   -3.3866 H   0  0  0  0  0  0  0  0  0  0  0  0
    6.2546    1.1553   -2.4615 H   0  0  0  0  0  0  0  0  0  0  0  0
    4.9188    2.2232   -2.7061 H   0  0  0  0  0  0  0  0  0  0  0  0
  1  2  1  0  0  0  0
  1 26  1  0  0  0  0
  1 27  1  0  0  0  0
  1 28  1  0  0  0  0
  2  3  1  0  0  0  0
  2 29  1  0  0  0  0
  2 30  1  0  0  0  0
  3  4  1  0  0  0  0
  3 24  1  0  0  0  0
  3 31  1  0  0  0  0
  4  5  1  0  0  0  0
  4 32  1  0  0  0  0
  5  6  2  0  0  0  0
  5 10  1  0  0  0  0
  6  7  1  0  0  0  0
  6 33  1  0  0  0  0
  7  8  2  0  0  0  0
  7 21  1  0  0  0  0
  8  9  1  0  0  0  0
  8 34  1  0  0  0  0
  9 10  2  0  0  0  0
  9 35  1  0  0  0  0
 10 11  1  0  0  0  0
 11 12  1  0  0  0  0
 11 16  1  0  0  0  0
 12 13  2  0  0  0  0
 12 14  1  0  0  0  0
 14 15  1  0  0  0  0
 14 36  1  0  0  0  0
 14 37  1  0  0  0  0
 15 16  1  0  0  0  0
 15 38  1  0  0  0  0
 15 39  1  0  0  0  0
 16 19  1  1  0  0  0
 16 17  1  0  0  0  0
 17 18  1  0  0  0  0
 17 40  1  0  0  0  0
 17 41  1  0  0  0  0
 18 42  1  0  0  0  0
 18 43  1  0  0  0  0
 19 20  1  0  0  0  0
 19 44  1  0  0  0  0
 19 45  1  0  0  0  0
 20 46  1  0  0  0  0
 21 22  2  0  0  0  0
 21 23  1  0  0  0  0
 23 47  1  0  0  0  0
 24 25  1  0  0  0  0
 24 48  1  0  0  0  0
 24 49  1  0  0  0  0
 25 50  1  0  0  0  0
 25 51  1  0  0  0  0
 25 52  1  0  0  0  0
M  END
$$$$
