IBD
 OpenBabel04121316133D

 56 58  0  0  0  0  0  0  0  0999 V2000
    0.9559   -0.1353    0.0307 C   0  0  0  0  0  0  0  0  0  0  0  0
    2.4646   -0.0447   -0.0302 C   0  0  0  0  0  0  0  0  0  0  0  0
    3.0071    1.1388    0.5979 N   0  0  0  0  0  0  0  0  0  0  0  0
    4.3728    1.3245    0.6678 C   0  0  0  0  0  0  0  0  0  0  0  0
    5.1759    0.4981    0.2263 O   0  0  0  0  0  0  0  0  0  0  0  0
    4.7617    2.5710    1.2714 C   0  0  0  0  0  0  0  0  0  0  0  0
    4.3905    3.8318    0.8697 C   0  0  0  0  0  0  0  0  0  0  0  0
    4.8421    4.8753    1.7407 C   0  0  0  0  0  0  0  0  0  0  0  0
    5.6746    4.3265    2.7084 C   0  0  0  0  0  0  0  0  0  0  0  0
    5.8214    2.6280    2.5935 S   0  0  0  0  0  0  0  0  0  0  0  0
    6.3367    4.9843    3.6690 N   0  0  0  0  0  0  0  0  0  0  0  0
    6.1260    6.2911    3.6559 C   0  0  0  0  0  0  0  0  0  0  0  0
    5.3253    6.9354    2.8000 N   0  0  0  0  0  0  0  0  0  0  0  0
    4.6649    6.2762    1.8071 C   0  0  0  0  0  0  0  0  0  0  0  0
    3.8844    7.0773    0.8090 C   0  0  0  0  0  0  0  0  0  0  0  0
    3.0511    6.4517   -0.1541 C   0  0  0  0  0  0  0  0  0  0  0  0
    2.6387    7.0827   -1.3450 C   0  0  0  0  0  0  0  0  0  0  0  0
    2.2071    6.4575   -2.4986 O   0  0  0  0  0  0  0  0  0  0  0  0
    2.0069    5.0667   -2.3673 C   0  0  0  0  0  0  0  0  0  0  0  0
    1.2594    4.4019   -3.5225 C   0  0  0  0  0  0  0  0  0  0  0  0
    1.0669    2.9421   -3.3237 N   0  0  0  0  0  0  0  0  0  0  0  0
    0.1984    2.6342   -2.1678 C   0  0  0  0  0  0  0  0  0  0  0  0
    0.7552    2.9771   -0.7890 C   0  0  0  0  0  0  0  0  0  0  0  0
    0.4742    2.3643   -4.5572 C   0  0  0  0  0  0  0  0  0  0  0  0
    0.3497    0.8385   -4.5279 C   0  0  0  0  0  0  0  0  0  0  0  0
    2.7202    8.4583   -1.4056 C   0  0  0  0  0  0  0  0  0  0  0  0
    3.3018    9.1543   -0.3584 C   0  0  0  0  0  0  0  0  0  0  0  0
    3.9636    8.4780    0.6795 C   0  0  0  0  0  0  0  0  0  0  0  0
    4.8945    9.5164    1.7080 Cl  0  0  0  0  0  0  0  0  0  0  0  0
    2.1133    9.3243   -2.7657 Cl  0  0  0  0  0  0  0  0  0  0  0  0
    6.7730    7.0392    4.5983 N   0  0  0  0  0  0  0  0  0  0  0  0
    0.5874   -1.0510   -0.4328 H   0  0  0  0  0  0  0  0  0  0  0  0
    0.4968    0.6483   -0.5407 H   0  0  0  0  0  0  0  0  0  0  0  0
    0.5728   -0.0333    1.0486 H   0  0  0  0  0  0  0  0  0  0  0  0
    2.8081   -0.0529   -1.0712 H   0  0  0  0  0  0  0  0  0  0  0  0
    2.8924   -0.9062    0.4850 H   0  0  0  0  0  0  0  0  0  0  0  0
    2.3878    1.8323    1.0004 H   0  0  0  0  0  0  0  0  0  0  0  0
    3.8049    3.9407   -0.0267 H   0  0  0  0  0  0  0  0  0  0  0  0
    2.7048    5.4473    0.0357 H   0  0  0  0  0  0  0  0  0  0  0  0
    1.3350    5.0453   -1.5386 H   0  0  0  0  0  0  0  0  0  0  0  0
    2.9466    4.5401   -2.1584 H   0  0  0  0  0  0  0  0  0  0  0  0
    1.8313    4.5894   -4.4385 H   0  0  0  0  0  0  0  0  0  0  0  0
    0.2861    4.8904   -3.6504 H   0  0  0  0  0  0  0  0  0  0  0  0
    0.0688    1.5549   -2.1541 H   0  0  0  0  0  0  0  0  0  0  0  0
   -0.7986    3.0637   -2.2876 H   0  0  0  0  0  0  0  0  0  0  0  0
    1.8242    2.7558   -0.7763 H   0  0  0  0  0  0  0  0  0  0  0  0
    0.2423    2.4483    0.0131 H   0  0  0  0  0  0  0  0  0  0  0  0
    0.5833    3.9940   -0.4606 H   0  0  0  0  0  0  0  0  0  0  0  0
    1.1008    2.6194   -5.4217 H   0  0  0  0  0  0  0  0  0  0  0  0
   -0.5163    2.8011   -4.7370 H   0  0  0  0  0  0  0  0  0  0  0  0
    1.3272    0.3693   -4.3789 H   0  0  0  0  0  0  0  0  0  0  0  0
   -0.0745    0.4726   -5.4674 H   0  0  0  0  0  0  0  0  0  0  0  0
   -0.3241    0.4845   -3.7424 H   0  0  0  0  0  0  0  0  0  0  0  0
    3.3038   10.2379   -0.3834 H   0  0  0  0  0  0  0  0  0  0  0  0
    7.3950    6.5699    5.2342 H   0  0  0  0  0  0  0  0  0  0  0  0
    6.6706    8.0391    4.5695 H   0  0  0  0  0  0  0  0  0  0  0  0
  1  2  1  0  0  0  0
  1 32  1  0  0  0  0
  1 33  1  0  0  0  0
  1 34  1  0  0  0  0
  2  3  1  0  0  0  0
  2 35  1  0  0  0  0
  2 36  1  0  0  0  0
  3  4  1  0  0  0  0
  3 37  1  0  0  0  0
  4  5  2  0  0  0  0
  4  6  1  0  0  0  0
  6  7  2  0  0  0  0
  6 10  1  0  0  0  0
  7  8  1  0  0  0  0
  7 38  1  0  0  0  0
  8  9  2  0  0  0  0
  8 14  1  0  0  0  0
  9 10  1  0  0  0  0
  9 11  1  0  0  0  0
 11 12  2  0  0  0  0
 12 13  1  0  0  0  0
 12 31  1  0  0  0  0
 13 14  2  0  0  0  0
 14 15  1  0  0  0  0
 15 16  2  0  0  0  0
 15 28  1  0  0  0  0
 16 17  1  0  0  0  0
 16 39  1  0  0  0  0
 17 18  1  0  0  0  0
 17 26  2  0  0  0  0
 18 19  1  0  0  0  0
 19 20  1  0  0  0  0
 19 40  1  0  0  0  0
 19 41  1  0  0  0  0
 20 21  1  0  0  0  0
 20 42  1  0  0  0  0
 20 43  1  0  0  0  0
 21 22  1  0  0  0  0
 21 24  1  0  0  0  0
 22 23  1  0  0  0  0
 22 44  1  0  0  0  0
 22 45  1  0  0  0  0
 23 46  1  0  0  0  0
 23 47  1  0  0  0  0
 23 48  1  0  0  0  0
 24 25  1  0  0  0  0
 24 49  1  0  0  0  0
 24 50  1  0  0  0  0
 25 51  1  0  0  0  0
 25 52  1  0  0  0  0
 25 53  1  0  0  0  0
 26 27  1  0  0  0  0
 26 30  1  0  0  0  0
 27 28  2  0  0  0  0
 27 54  1  0  0  0  0
 28 29  1  0  0  0  0
 31 55  1  0  0  0  0
 31 56  1  0  0  0  0
M  END
$$$$
