IBG
 OpenBabel04121316133D

 50 50  0  0  1  0  0  0  0  0999 V2000
    1.9428   -2.0849    0.1689 O   0  0  0  0  0  0  0  0  0  0  0  0
    1.2483   -2.3811   -0.7994 C   0  0  0  0  0  0  0  0  0  0  0  0
    1.4683   -1.9116   -2.0512 N   0  0  0  0  0  0  0  0  0  0  0  0
    2.3385   -0.7948   -2.3904 C   0  0  2  0  0  0  0  0  0  0  0  0
    2.8918   -0.4763   -1.5003 H   0  0  0  0  0  0  0  0  0  0  0  0
    1.4615    0.3981   -2.8571 C   0  0  0  0  0  0  0  0  0  0  0  0
    1.6724    1.0198   -3.8982 O   0  0  0  0  0  0  0  0  0  0  0  0
    0.4573    0.7986   -2.0093 N   0  0  0  0  0  0  0  0  0  0  0  0
   -0.4063    1.9081   -2.3851 C   0  0  0  0  0  0  0  0  0  0  0  0
   -1.3721    2.2315   -1.2588 C   0  0  0  0  0  0  0  0  0  0  0  0
   -1.3864    1.6316   -0.1925 O   0  0  0  0  0  0  0  0  0  0  0  0
   -2.2200    3.2504   -1.5288 O   0  0  0  0  0  0  0  0  0  0  0  0
    3.2948   -1.2263   -3.5138 C   0  0  0  0  0  0  0  0  0  0  0  0
    2.2902   -1.9516   -4.8871 S   0  0  0  0  0  0  0  0  0  0  0  0
    3.5413   -2.1513   -6.1758 C   0  0  0  0  0  0  0  0  0  0  0  0
    2.8628   -2.5196   -7.4747 C   0  0  0  0  0  0  0  0  0  0  0  0
    2.7415   -3.8848   -7.7991 C   0  0  0  0  0  0  0  0  0  0  0  0
    2.2669   -4.2826   -9.0482 C   0  0  0  0  0  0  0  0  0  0  0  0
    1.7718   -3.3332   -9.9353 C   0  0  0  0  0  0  0  0  0  0  0  0
    1.7315   -1.9905   -9.5647 C   0  0  0  0  0  0  0  0  0  0  0  0
    2.3223   -1.5747   -8.3661 C   0  0  0  0  0  0  0  0  0  0  0  0
    2.3958    0.5018   -8.0348 I   0  0  0  0  0  0  0  0  0  0  0  0
   -0.0057   -3.2022   -0.6384 C   0  0  0  0  0  0  0  0  0  0  0  0
   -0.8589   -3.3901   -1.8936 C   0  0  0  0  0  0  0  0  0  0  0  0
   -2.1409   -4.1869   -1.6537 C   0  0  1  0  0  0  0  0  0  0  0  0
   -1.9152   -5.1742   -1.2382 H   0  0  0  0  0  0  0  0  0  0  0  0
   -3.1363   -3.4625   -0.7122 C   0  0  0  0  0  0  0  0  0  0  0  0
   -4.2163   -2.9972   -1.0786 O   0  0  0  0  0  0  0  0  0  0  0  0
   -2.7512   -3.3535    0.5771 O   0  0  0  0  0  0  0  0  0  0  0  0
   -2.7854   -4.3992   -2.9707 N   0  0  0  0  0  0  0  0  0  0  0  0
    1.0422   -2.3504   -2.8598 H   0  0  0  0  0  0  0  0  0  0  0  0
    0.3445    0.3903   -1.0833 H   0  0  0  0  0  0  0  0  0  0  0  0
   -0.9615    1.6153   -3.2825 H   0  0  0  0  0  0  0  0  0  0  0  0
    0.2186    2.7808   -2.6020 H   0  0  0  0  0  0  0  0  0  0  0  0
   -2.1246    3.6548   -2.4124 H   0  0  0  0  0  0  0  0  0  0  0  0
    3.9594   -2.0170   -3.1502 H   0  0  0  0  0  0  0  0  0  0  0  0
    3.8989   -0.3759   -3.8461 H   0  0  0  0  0  0  0  0  0  0  0  0
    4.2167   -2.9570   -5.8673 H   0  0  0  0  0  0  0  0  0  0  0  0
    4.1699   -1.2646   -6.3079 H   0  0  0  0  0  0  0  0  0  0  0  0
    3.0363   -4.6491   -7.0818 H   0  0  0  0  0  0  0  0  0  0  0  0
    2.2843   -5.3327   -9.3284 H   0  0  0  0  0  0  0  0  0  0  0  0
    1.4117   -3.6373  -10.9142 H   0  0  0  0  0  0  0  0  0  0  0  0
    1.2573   -1.2742  -10.2312 H   0  0  0  0  0  0  0  0  0  0  0  0
   -0.5689   -2.6064    0.0832 H   0  0  0  0  0  0  0  0  0  0  0  0
    0.2443   -4.1714   -0.1945 H   0  0  0  0  0  0  0  0  0  0  0  0
   -0.2563   -3.9133   -2.6505 H   0  0  0  0  0  0  0  0  0  0  0  0
   -1.1115   -2.4053   -2.3116 H   0  0  0  0  0  0  0  0  0  0  0  0
   -1.9085   -3.7685    0.8348 H   0  0  0  0  0  0  0  0  0  0  0  0
   -2.1391   -4.7785   -3.6578 H   0  0  0  0  0  0  0  0  0  0  0  0
   -3.1048   -3.4940   -3.3292 H   0  0  0  0  0  0  0  0  0  0  0  0
  1  2  2  0  0  0  0
  2  3  1  0  0  0  0
  2 23  1  0  0  0  0
  3 31  1  0  0  0  0
  4  6  1  0  0  0  0
  4 13  1  0  0  0  0
  4  5  1  1  0  0  0
  4  3  1  0  0  0  0
  6  7  2  0  0  0  0
  6  8  1  0  0  0  0
  8  9  1  0  0  0  0
  8 32  1  0  0  0  0
  9 10  1  0  0  0  0
  9 33  1  0  0  0  0
  9 34  1  0  0  0  0
 10 11  2  0  0  0  0
 10 12  1  0  0  0  0
 12 35  1  0  0  0  0
 13 14  1  0  0  0  0
 13 36  1  0  0  0  0
 13 37  1  0  0  0  0
 14 15  1  0  0  0  0
 15 16  1  0  0  0  0
 15 38  1  0  0  0  0
 15 39  1  0  0  0  0
 16 17  2  0  0  0  0
 16 21  1  0  0  0  0
 17 18  1  0  0  0  0
 17 40  1  0  0  0  0
 18 19  2  0  0  0  0
 18 41  1  0  0  0  0
 19 20  1  0  0  0  0
 19 42  1  0  0  0  0
 20 21  2  0  0  0  0
 20 43  1  0  0  0  0
 21 22  1  0  0  0  0
 23 24  1  0  0  0  0
 23 44  1  0  0  0  0
 23 45  1  0  0  0  0
 24 25  1  0  0  0  0
 24 46  1  0  0  0  0
 24 47  1  0  0  0  0
 25 26  1  1  0  0  0
 25 27  1  0  0  0  0
 25 30  1  0  0  0  0
 27 28  2  0  0  0  0
 27 29  1  0  0  0  0
 29 48  1  0  0  0  0
 30 49  1  0  0  0  0
 30 50  1  0  0  0  0
M  END
$$$$
