IBI
 OpenBabel04121316133D

 95100  0  0  1  0  0  0  0  0999 V2000
    5.7060   25.2109    4.8955 C   0  0  0  0  0  0  0  0  0  0  0  0
    6.2812   24.0519    5.6021 C   0  0  0  0  0  0  0  0  0  0  0  0
    6.2907   22.8828    4.5857 C   0  0  1  0  0  0  0  0  0  0  0  0
    5.2196   22.7317    4.6422 H   0  0  0  0  0  0  0  0  0  0  0  0
    6.7485   22.9711    3.0624 N   0  0  0  0  0  0  0  0  0  0  0  0
    6.8093   24.1560    2.0346 C   0  0  0  0  0  0  0  0  0  0  0  0
    5.6493   24.2269    1.0142 C   0  0  0  0  0  0  0  0  0  0  0  0
    6.9653   25.6606    2.4399 C   0  0  0  0  0  0  0  0  0  0  0  0
    6.9218   21.6436    2.4099 C   0  0  0  0  0  0  0  0  0  0  0  0
    7.0241   21.5718    1.0212 N   0  0  0  0  0  0  0  0  0  0  0  0
    7.1563   20.3745    0.3799 C   0  0  0  0  0  0  0  0  0  0  0  0
    7.2603   19.2384    1.1204 N   0  0  0  0  0  0  0  0  0  0  0  0
    6.9598   19.2784    2.4622 C   0  0  0  0  0  0  0  0  0  0  0  0
    6.8007   20.4430    3.1886 C   0  0  0  0  0  0  0  0  0  0  0  0
    6.5136   20.4593    4.5995 N   0  0  0  0  0  0  0  0  0  0  0  0
    6.8583   21.6315    5.2791 C   0  0  0  0  0  0  0  0  0  0  0  0
    7.4463   21.6346    6.3302 O   0  0  0  0  0  0  0  0  0  0  0  0
    6.0461   19.3451    5.4262 C   0  0  0  0  0  0  0  0  0  0  0  0
    6.8111   20.3031   -1.0528 N   0  0  0  0  0  0  0  0  0  0  0  0
    6.3408   19.1692   -1.7872 C   0  0  0  0  0  0  0  0  0  0  0  0
    6.4949   18.9428   -3.1761 C   0  0  0  0  0  0  0  0  0  0  0  0
    6.2206   17.6752   -3.8149 C   0  0  0  0  0  0  0  0  0  0  0  0
    5.9289   16.5637   -3.0469 C   0  0  0  0  0  0  0  0  0  0  0  0
    5.7890   16.8703   -1.7067 C   0  0  0  0  0  0  0  0  0  0  0  0
    5.7466   18.1452   -1.1370 C   0  0  0  0  0  0  0  0  0  0  0  0
    5.2014   18.2410    0.0892 O   0  0  0  0  0  0  0  0  0  0  0  0
    4.5743   19.4077    0.5584 C   0  0  0  0  0  0  0  0  0  0  0  0
    5.5468   15.2036   -3.6585 C   0  0  0  0  0  0  0  0  0  0  0  0
    5.4430   15.1014   -4.8726 O   0  0  0  0  0  0  0  0  0  0  0  0
    5.1485   14.0825   -2.8929 N   0  0  0  0  0  0  0  0  0  0  0  0
    4.3727   14.1359   -1.6522 C   0  0  2  0  0  0  0  0  0  0  0  0
    3.8054   13.1982   -1.5951 H   0  0  0  0  0  0  0  0  0  0  0  0
    3.3330   15.2253   -1.8967 C   0  0  0  0  0  0  0  0  0  0  0  0
    2.6671   15.7632   -0.6940 C   0  0  0  0  0  0  0  0  0  0  0  0
    3.5319   15.8710    0.5559 C   0  0  2  0  0  0  0  0  0  0  0  0
    4.3165   16.5522    0.3584 H   0  0  0  0  0  0  0  0  0  0  0  0
    4.3536   14.6126    0.8822 C   0  0  0  0  0  0  0  0  0  0  0  0
    5.1895   14.1020   -0.3175 C   0  0  0  0  0  0  0  0  0  0  0  0
    2.7459   16.5049    1.6211 N   0  0  0  0  0  0  0  0  0  0  0  0
    1.8970   17.6146    1.0969 C   0  0  0  0  0  0  0  0  0  0  0  0
    1.0405   18.2635    2.1748 C   0  0  0  0  0  0  0  0  0  0  0  0
    1.8243   18.8339    3.2634 N   0  0  0  0  0  0  0  0  0  0  0  0
    2.7938   17.8059    3.7403 C   0  0  0  0  0  0  0  0  0  0  0  0
    3.6081   16.9874    2.7157 C   0  0  0  0  0  0  0  0  0  0  0  0
    2.3269   20.0816    2.7430 C   0  0  0  0  0  0  0  0  0  0  0  0
    3.1894   20.7355    3.6974 C   0  0  0  0  0  0  0  0  0  0  0  0
    3.8193   21.9530    3.1727 C   0  0  0  0  0  0  0  0  0  0  0  0
    2.8619   22.0491    4.3191 C   0  0  0  0  0  0  0  0  0  0  0  0
    5.9463   26.2282    5.1900 H   0  0  0  0  0  0  0  0  0  0  0  0
    4.7371   25.0833    4.3997 H   0  0  0  0  0  0  0  0  0  0  0  0
    6.4034   25.0407    4.1458 H   0  0  0  0  0  0  0  0  0  0  0  0
    5.6257   23.8772    6.4673 H   0  0  0  0  0  0  0  0  0  0  0  0
    7.2918   24.2491    5.9625 H   0  0  0  0  0  0  0  0  0  0  0  0
    7.7429   23.9679    1.4947 H   0  0  0  0  0  0  0  0  0  0  0  0
    4.6764   24.3582    1.4983 H   0  0  0  0  0  0  0  0  0  0  0  0
    5.5912   23.3836    0.3279 H   0  0  0  0  0  0  0  0  0  0  0  0
    5.7890   25.1138    0.3725 H   0  0  0  0  0  0  0  0  0  0  0  0
    5.9655   26.0741    2.6862 H   0  0  0  0  0  0  0  0  0  0  0  0
    7.2885   26.3444    1.6534 H   0  0  0  0  0  0  0  0  0  0  0  0
    7.6884   25.8196    3.2513 H   0  0  0  0  0  0  0  0  0  0  0  0
    6.7500   18.2989    2.8986 H   0  0  0  0  0  0  0  0  0  0  0  0
    5.6587   18.4975    4.8559 H   0  0  0  0  0  0  0  0  0  0  0  0
    5.2049   19.7022    6.0524 H   0  0  0  0  0  0  0  0  0  0  0  0
    6.8153   19.0197    6.1289 H   0  0  0  0  0  0  0  0  0  0  0  0
    6.2905   21.1340   -1.3168 H   0  0  0  0  0  0  0  0  0  0  0  0
    6.8942   19.7284   -3.8020 H   0  0  0  0  0  0  0  0  0  0  0  0
    6.2769   17.5579   -4.8959 H   0  0  0  0  0  0  0  0  0  0  0  0
    5.5529   16.1065   -1.0306 H   0  0  0  0  0  0  0  0  0  0  0  0
    4.2271   19.0682    1.5128 H   0  0  0  0  0  0  0  0  0  0  0  0
    3.8291   19.8769   -0.0783 H   0  0  0  0  0  0  0  0  0  0  0  0
    5.1299   20.2175    0.9881 H   0  0  0  0  0  0  0  0  0  0  0  0
    4.7399   13.4085   -3.5405 H   0  0  0  0  0  0  0  0  0  0  0  0
    2.6198   14.9390   -2.6766 H   0  0  0  0  0  0  0  0  0  0  0  0
    3.7360   16.1197   -2.3682 H   0  0  0  0  0  0  0  0  0  0  0  0
    1.7606   15.1974   -0.4895 H   0  0  0  0  0  0  0  0  0  0  0  0
    2.3853   16.7724   -1.0334 H   0  0  0  0  0  0  0  0  0  0  0  0
    3.6839   13.8255    1.2262 H   0  0  0  0  0  0  0  0  0  0  0  0
    5.0586   14.8356    1.6977 H   0  0  0  0  0  0  0  0  0  0  0  0
    5.5478   13.0876   -0.1016 H   0  0  0  0  0  0  0  0  0  0  0  0
    6.1655   14.6154   -0.3609 H   0  0  0  0  0  0  0  0  0  0  0  0
    1.1603   17.2699    0.3690 H   0  0  0  0  0  0  0  0  0  0  0  0
    2.4736   18.3604    0.5414 H   0  0  0  0  0  0  0  0  0  0  0  0
    0.3649   17.5139    2.5795 H   0  0  0  0  0  0  0  0  0  0  0  0
    0.4181   19.0424    1.7113 H   0  0  0  0  0  0  0  0  0  0  0  0
    2.1961   17.0645    4.2805 H   0  0  0  0  0  0  0  0  0  0  0  0
    3.4730   18.1874    4.5068 H   0  0  0  0  0  0  0  0  0  0  0  0
    4.0903   16.1475    3.2279 H   0  0  0  0  0  0  0  0  0  0  0  0
    4.4803   17.5467    2.3793 H   0  0  0  0  0  0  0  0  0  0  0  0
    1.5545   20.7882    2.4190 H   0  0  0  0  0  0  0  0  0  0  0  0
    2.8410   19.9782    1.8123 H   0  0  0  0  0  0  0  0  0  0  0  0
    3.8970   20.0694    4.1631 H   0  0  0  0  0  0  0  0  0  0  0  0
    3.6134   22.3824    2.2092 H   0  0  0  0  0  0  0  0  0  0  0  0
    4.8456   21.7438    3.2350 H   0  0  0  0  0  0  0  0  0  0  0  0
    1.9344   22.5421    4.0729 H   0  0  0  0  0  0  0  0  0  0  0  0
    3.2022   22.1663    5.3393 H   0  0  0  0  0  0  0  0  0  0  0  0
  1  2  1  0  0  0  0
  1 49  1  0  0  0  0
  1 50  1  0  0  0  0
  1 51  1  0  0  0  0
  2  3  1  0  0  0  0
  2 52  1  0  0  0  0
  2 53  1  0  0  0  0
  3  4  1  6  0  0  0
  3  5  1  0  0  0  0
  3 16  1  0  0  0  0
  5  6  1  0  0  0  0
  5  9  1  0  0  0  0
  6  7  1  0  0  0  0
  6  8  1  0  0  0  0
  6 54  1  0  0  0  0
  7 55  1  0  0  0  0
  7 56  1  0  0  0  0
  7 57  1  0  0  0  0
  8 58  1  0  0  0  0
  8 59  1  0  0  0  0
  8 60  1  0  0  0  0
  9 10  2  0  0  0  0
  9 14  1  0  0  0  0
 10 11  1  0  0  0  0
 11 12  2  0  0  0  0
 11 19  1  0  0  0  0
 12 13  1  0  0  0  0
 13 14  2  0  0  0  0
 13 61  1  0  0  0  0
 14 15  1  0  0  0  0
 15 16  1  0  0  0  0
 15 18  1  0  0  0  0
 16 17  2  0  0  0  0
 18 62  1  0  0  0  0
 18 63  1  0  0  0  0
 18 64  1  0  0  0  0
 19 20  1  0  0  0  0
 19 65  1  0  0  0  0
 20 21  2  0  0  0  0
 20 25  1  0  0  0  0
 21 22  1  0  0  0  0
 21 66  1  0  0  0  0
 22 23  2  0  0  0  0
 22 67  1  0  0  0  0
 23 24  1  0  0  0  0
 23 28  1  0  0  0  0
 24 25  2  0  0  0  0
 24 68  1  0  0  0  0
 25 26  1  0  0  0  0
 26 27  1  0  0  0  0
 27 69  1  0  0  0  0
 27 70  1  0  0  0  0
 27 71  1  0  0  0  0
 28 29  2  0  0  0  0
 28 30  1  0  0  0  0
 30 72  1  0  0  0  0
 31 33  1  0  0  0  0
 31 38  1  0  0  0  0
 31 32  1  1  0  0  0
 31 30  1  0  0  0  0
 33 34  1  0  0  0  0
 33 73  1  0  0  0  0
 33 74  1  0  0  0  0
 34 35  1  0  0  0  0
 34 75  1  0  0  0  0
 34 76  1  0  0  0  0
 35 37  1  0  0  0  0
 35 39  1  0  0  0  0
 35 36  1  6  0  0  0
 37 38  1  0  0  0  0
 37 77  1  0  0  0  0
 37 78  1  0  0  0  0
 38 79  1  0  0  0  0
 38 80  1  0  0  0  0
 39 40  1  0  0  0  0
 39 44  1  0  0  0  0
 40 41  1  0  0  0  0
 40 81  1  0  0  0  0
 40 82  1  0  0  0  0
 41 42  1  0  0  0  0
 41 83  1  0  0  0  0
 41 84  1  0  0  0  0
 42 43  1  0  0  0  0
 42 45  1  0  0  0  0
 43 44  1  0  0  0  0
 43 85  1  0  0  0  0
 43 86  1  0  0  0  0
 44 87  1  0  0  0  0
 44 88  1  0  0  0  0
 45 46  1  0  0  0  0
 45 89  1  0  0  0  0
 45 90  1  0  0  0  0
 46 47  1  0  0  0  0
 46 48  1  0  0  0  0
 46 91  1  0  0  0  0
 47 48  1  0  0  0  0
 47 92  1  0  0  0  0
 47 93  1  0  0  0  0
 48 94  1  0  0  0  0
 48 95  1  0  0  0  0
M  END
$$$$
