ICF
 OpenBabel04121316133D

 12 11  0  0  1  0  0  0  0  0999 V2000
    2.1555   -0.3028    1.6278 F   0  0  0  0  0  0  0  0  0  0  0  0
    2.1100   -1.5645    2.1046 C   0  0  0  0  0  0  0  0  0  0  0  0
    2.8129   -2.4009    1.2107 O   0  0  0  0  0  0  0  0  0  0  0  0
    2.3396   -2.2824   -0.1360 C   0  0  2  0  0  0  0  0  0  0  0  0
    2.7448   -1.3663   -0.5788 H   0  0  0  0  0  0  0  0  0  0  0  0
    0.8091   -2.3210   -0.3206 C   0  0  0  0  0  0  0  0  0  0  0  0
    0.4392   -2.3565   -1.6182 F   0  0  0  0  0  0  0  0  0  0  0  0
    0.2629   -3.3903    0.3038 F   0  0  0  0  0  0  0  0  0  0  0  0
    0.2288   -1.2200    0.2186 F   0  0  0  0  0  0  0  0  0  0  0  0
    3.0972   -3.6399   -1.0467 Cl  0  0  0  0  0  0  0  0  0  0  0  0
    2.7749   -1.5759    3.2826 F   0  0  0  0  0  0  0  0  0  0  0  0
    1.0806   -1.8935    2.2712 H   0  0  0  0  0  0  0  0  0  0  0  0
  1  2  1  0  0  0  0
  2  3  1  0  0  0  0
  2 11  1  0  0  0  0
  2 12  1  0  0  0  0
  4  6  1  0  0  0  0
  4 10  1  0  0  0  0
  4  5  1  6  0  0  0
  4  3  1  0  0  0  0
  6  7  1  0  0  0  0
  6  8  1  0  0  0  0
  6  9  1  0  0  0  0
M  END
$$$$
