ICP
 OpenBabel04121316133D

 16 16  0  0  0  0  0  0  0  0999 V2000
    0.9741    0.0560   -0.0555 C   0  0  0  0  0  0  0  0  0  0  0  0
    2.4807    0.0987   -0.0566 C   0  0  0  0  0  0  0  0  0  0  0  0
    3.0840    1.2476   -0.0552 N   0  0  0  0  0  0  0  0  0  0  0  0
    4.4406    1.3173   -0.0560 C   0  0  0  0  0  0  0  0  0  0  0  0
    4.9888    2.4831   -0.0579 N   0  0  0  0  0  0  0  0  0  0  0  0
    5.1805    0.0518   -0.0548 C   0  0  0  0  0  0  0  0  0  0  0  0
    6.5186    0.0339   -0.0489 C   0  0  0  0  0  0  0  0  0  0  0  0
    4.3729   -1.1634   -0.0591 C   0  0  0  0  0  0  0  0  0  0  0  0
    3.0830   -1.1359   -0.0596 N   0  0  0  0  0  0  0  0  0  0  0  0
    0.5610    1.0681   -0.0566 H   0  0  0  0  0  0  0  0  0  0  0  0
    0.6199   -0.4725    0.8348 H   0  0  0  0  0  0  0  0  0  0  0  0
    0.6190   -0.4748   -0.9440 H   0  0  0  0  0  0  0  0  0  0  0  0
    4.2293    3.1687   -0.0585 H   0  0  0  0  0  0  0  0  0  0  0  0
    7.0698    0.9727   -0.0450 H   0  0  0  0  0  0  0  0  0  0  0  0
    7.0951   -0.8817   -0.0471 H   0  0  0  0  0  0  0  0  0  0  0  0
    4.9073   -2.1277   -0.0623 H   0  0  0  0  0  0  0  0  0  0  0  0
  1  2  1  0  0  0  0
  1 10  1  0  0  0  0
  1 11  1  0  0  0  0
  1 12  1  0  0  0  0
  2  3  2  0  0  0  0
  2  9  1  0  0  0  0
  3  4  1  0  0  0  0
  4  5  2  0  0  0  0
  4  6  1  0  0  0  0
  5 13  1  0  0  0  0
  6  7  2  0  0  0  0
  6  8  1  0  0  0  0
  7 14  1  0  0  0  0
  7 15  1  0  0  0  0
  8  9  2  0  0  0  0
  8 16  1  0  0  0  0
M  END
$$$$
