ICR
 OpenBabel04121316133D

 36 37  0  0  1  0  0  0  0  0999 V2000
    2.9161    0.1716   -1.4344 O   0  0  0  0  0  0  0  0  0  0  0  0
    2.4192    0.0295   -0.0900 C   0  0  2  0  0  0  0  0  0  0  0  0
    1.3288    0.0636   -0.1428 H   0  0  0  0  0  0  0  0  0  0  0  0
    2.9879    1.1469    0.7662 C   0  0  2  0  0  0  0  0  0  0  0  0
    2.3533    1.2437    1.6530 H   0  0  0  0  0  0  0  0  0  0  0  0
    3.0813    2.4193    0.1466 O   0  0  0  0  0  0  0  0  0  0  0  0
    4.3476    0.5849    1.1273 C   0  0  2  0  0  0  0  0  0  0  0  0
    5.0659    0.6637    0.2993 H   0  0  0  0  0  0  0  0  0  0  0  0
    4.1236   -0.8181    1.3742 O   0  0  0  0  0  0  0  0  0  0  0  0
    2.9467   -1.2322    0.6303 C   0  0  1  0  0  0  0  0  0  0  0  0
    3.3038   -1.9690   -0.0998 H   0  0  0  0  0  0  0  0  0  0  0  0
    1.9684   -1.8565    1.5049 N   0  0  0  0  0  0  0  0  0  0  0  0
    1.8899   -1.7287    2.8548 C   0  0  0  0  0  0  0  0  0  0  0  0
    1.0592   -2.5303    3.4712 N   0  0  0  0  0  0  0  0  0  0  0  0
    0.6382   -3.5148    2.3806 C   0  0  2  0  0  0  0  0  0  0  0  0
    1.2620   -4.4140    2.4766 H   0  0  0  0  0  0  0  0  0  0  0  0
    1.0512   -2.7899    1.0957 C   0  0  0  0  0  0  0  0  0  0  0  0
    0.5961   -2.9903   -0.0896 N   0  0  0  0  0  0  0  0  0  0  0  0
   -0.8016   -3.9301    2.5420 C   0  0  0  0  0  0  0  0  0  0  0  0
   -1.1432   -5.0932    2.7678 O   0  0  0  0  0  0  0  0  0  0  0  0
   -1.7160   -2.9491    2.4002 O   0  0  0  0  0  0  0  0  0  0  0  0
    4.9729    1.2763    2.3222 C   0  0  0  0  0  0  0  0  0  0  0  0
    3.9669    1.6590    3.2798 O   0  0  0  0  0  0  0  0  0  0  0  0
    4.5904    2.4611    4.6800 P   0  0  0  0  0  0  0  0  0  0  0  0
    5.8350    1.5826    4.7293 O   0  0  0  0  0  0  0  0  0  0  0  0
    4.8950    3.7737    3.7694 O   0  0  0  0  0  0  0  0  0  0  0  0
    5.2139    3.2632    6.0803 O   0  0  0  0  0  0  0  0  0  0  0  0
    3.8749    0.0096   -1.4585 H   0  0  0  0  0  0  0  0  0  0  0  0
    3.4398    2.2936   -0.7518 H   0  0  0  0  0  0  0  0  0  0  0  0
    2.4411   -0.9077    3.3369 H   0  0  0  0  0  0  0  0  0  0  0  0
   -0.1308   -3.7216   -0.0982 H   0  0  0  0  0  0  0  0  0  0  0  0
   -1.3138   -2.0670    2.2881 H   0  0  0  0  0  0  0  0  0  0  0  0
    5.6957    0.5886    2.7710 H   0  0  0  0  0  0  0  0  0  0  0  0
    5.4958    2.1828    1.9974 H   0  0  0  0  0  0  0  0  0  0  0  0
    4.2687    3.8385    3.0244 H   0  0  0  0  0  0  0  0  0  0  0  0
    5.2987    2.6023    6.7899 H   0  0  0  0  0  0  0  0  0  0  0  0
  1 28  1  0  0  0  0
  2  4  1  0  0  0  0
  2 10  1  0  0  0  0
  2  3  1  1  0  0  0
  2  1  1  0  0  0  0
  4  7  1  0  0  0  0
  4  6  1  0  0  0  0
  4  5  1  1  0  0  0
  6 29  1  0  0  0  0
  7  9  1  0  0  0  0
  7 22  1  0  0  0  0
  7  8  1  6  0  0  0
  9 10  1  0  0  0  0
 10 12  1  0  0  0  0
 10 11  1  6  0  0  0
 12 13  1  0  0  0  0
 12 17  1  0  0  0  0
 13 14  2  0  0  0  0
 13 30  1  0  0  0  0
 14 15  1  0  0  0  0
 15 17  1  0  0  0  0
 15 19  1  0  0  0  0
 15 16  1  1  0  0  0
 17 18  2  0  0  0  0
 18 31  1  0  0  0  0
 19 20  2  0  0  0  0
 19 21  1  0  0  0  0
 21 32  1  0  0  0  0
 22 23  1  0  0  0  0
 22 33  1  0  0  0  0
 22 34  1  0  0  0  0
 23 24  1  0  0  0  0
 24 25  2  0  0  0  0
 24 26  1  0  0  0  0
 24 27  1  0  0  0  0
 26 35  1  0  0  0  0
 27 36  1  0  0  0  0
M  END
$$$$
