ID5
 OpenBabel04121316133D

 38 40  0  0  0  0  0  0  0  0999 V2000
    0.8399    0.0533    0.1271 O   0  0  0  0  0  0  0  0  0  0  0  0
    2.1584    0.2308   -0.1162 C   0  0  0  0  0  0  0  0  0  0  0  0
    2.6424   -0.1016   -1.1758 O   0  0  0  0  0  0  0  0  0  0  0  0
    2.9282    0.9592    0.9783 C   0  0  0  0  0  0  0  0  0  0  0  0
    4.3294    0.7360    0.7821 O   0  0  0  0  0  0  0  0  0  0  0  0
    5.1708    1.4619    1.5847 C   0  0  0  0  0  0  0  0  0  0  0  0
    5.0119    2.8473    1.7169 C   0  0  0  0  0  0  0  0  0  0  0  0
    5.9786    3.5965    2.3772 C   0  0  0  0  0  0  0  0  0  0  0  0
    5.8746    4.9312    2.3922 F   0  0  0  0  0  0  0  0  0  0  0  0
    7.0501    2.9859    3.0073 C   0  0  0  0  0  0  0  0  0  0  0  0
    7.1664    1.5980    2.9592 C   0  0  0  0  0  0  0  0  0  0  0  0
    6.2799    0.8271    2.1839 C   0  0  0  0  0  0  0  0  0  0  0  0
    6.6214   -0.6297    2.0609 C   0  0  0  0  0  0  0  0  0  0  0  0
    7.6020   -1.0921    2.6349 O   0  0  0  0  0  0  0  0  0  0  0  0
    5.8207   -1.4127    1.2786 N   0  0  0  0  0  0  0  0  0  0  0  0
    6.1341   -2.8184    1.0176 C   0  0  0  0  0  0  0  0  0  0  0  0
    5.1719   -3.4121    0.0273 C   0  0  0  0  0  0  0  0  0  0  0  0
    4.3291   -2.3236   -0.9648 S   0  0  0  0  0  0  0  0  0  0  0  0
    3.4142   -3.5640   -1.6370 C   0  0  0  0  0  0  0  0  0  0  0  0
    3.9394   -4.7879   -1.2295 C   0  0  0  0  0  0  0  0  0  0  0  0
    4.9363   -4.6854   -0.2383 N   0  0  0  0  0  0  0  0  0  0  0  0
    3.4137   -5.9377   -1.8567 C   0  0  0  0  0  0  0  0  0  0  0  0
    3.9008   -7.1566   -1.5817 F   0  0  0  0  0  0  0  0  0  0  0  0
    2.3852   -5.8019   -2.8030 C   0  0  0  0  0  0  0  0  0  0  0  0
    1.8415   -4.5688   -3.1268 C   0  0  0  0  0  0  0  0  0  0  0  0
    2.3504   -3.4364   -2.5286 C   0  0  0  0  0  0  0  0  0  0  0  0
    1.8489   -2.2364   -2.8448 F   0  0  0  0  0  0  0  0  0  0  0  0
    1.9017   -6.8869   -3.4217 F   0  0  0  0  0  0  0  0  0  0  0  0
    0.4864    0.4499    0.9407 H   0  0  0  0  0  0  0  0  0  0  0  0
    2.6511    0.5830    1.9677 H   0  0  0  0  0  0  0  0  0  0  0  0
    2.6599    2.0102    0.8557 H   0  0  0  0  0  0  0  0  0  0  0  0
    4.1806    3.3844    1.2759 H   0  0  0  0  0  0  0  0  0  0  0  0
    7.7928    3.5877    3.5211 H   0  0  0  0  0  0  0  0  0  0  0  0
    7.9711    1.1146    3.5120 H   0  0  0  0  0  0  0  0  0  0  0  0
    5.1264   -0.9533    0.6919 H   0  0  0  0  0  0  0  0  0  0  0  0
    6.0896   -3.3412    1.9759 H   0  0  0  0  0  0  0  0  0  0  0  0
    7.1477   -2.8735    0.6093 H   0  0  0  0  0  0  0  0  0  0  0  0
    1.0485   -4.4674   -3.8576 H   0  0  0  0  0  0  0  0  0  0  0  0
  1  2  1  0  0  0  0
  1 29  1  0  0  0  0
  2  3  2  0  0  0  0
  2  4  1  0  0  0  0
  4  5  1  0  0  0  0
  4 30  1  0  0  0  0
  4 31  1  0  0  0  0
  5  6  1  0  0  0  0
  6  7  2  0  0  0  0
  6 12  1  0  0  0  0
  7  8  1  0  0  0  0
  7 32  1  0  0  0  0
  8  9  1  0  0  0  0
  8 10  2  0  0  0  0
 10 11  1  0  0  0  0
 10 33  1  0  0  0  0
 11 12  2  0  0  0  0
 11 34  1  0  0  0  0
 12 13  1  0  0  0  0
 13 14  2  0  0  0  0
 13 15  1  0  0  0  0
 15 16  1  0  0  0  0
 15 35  1  0  0  0  0
 16 17  1  0  0  0  0
 16 36  1  0  0  0  0
 16 37  1  0  0  0  0
 17 18  1  0  0  0  0
 17 21  2  0  0  0  0
 18 19  1  0  0  0  0
 19 20  2  0  0  0  0
 19 26  1  0  0  0  0
 20 21  1  0  0  0  0
 20 22  1  0  0  0  0
 22 23  1  0  0  0  0
 22 24  2  0  0  0  0
 24 25  1  0  0  0  0
 24 28  1  0  0  0  0
 25 26  2  0  0  0  0
 25 38  1  0  0  0  0
 26 27  1  0  0  0  0
M  END
$$$$
