IDC
 OpenBabel04121316133D

 47 49  0  0  1  0  0  0  0  0999 V2000
    2.7165   -0.5046   -0.3084 O   0  0  0  0  0  0  0  0  0  0  0  0
    4.1099   -0.7452   -0.2775 C   0  0  0  0  0  0  0  0  0  0  0  0
    4.9445    0.5535    0.1441 C   0  0  1  0  0  0  0  0  0  0  0  0
    4.5428    0.7937    1.1363 H   0  0  0  0  0  0  0  0  0  0  0  0
    6.2782    0.0962    0.2776 O   0  0  0  0  0  0  0  0  0  0  0  0
    6.8948    0.1661   -0.9935 C   0  0  1  0  0  0  0  0  0  0  0  0
    7.7622   -0.5028   -0.9455 H   0  0  0  0  0  0  0  0  0  0  0  0
    5.9616   -0.3566   -2.1888 O   0  0  0  0  0  0  0  0  0  0  0  0
    4.5866    0.3421   -2.8293 C   0  0  1  0  0  0  0  0  0  0  0  0
    3.9003    0.5421   -2.0278 H   0  0  0  0  0  0  0  0  0  0  0  0
    4.5283    1.8028   -3.7386 C   0  0  2  0  0  0  0  0  0  0  0  0
    4.6394    2.6852   -3.0948 H   0  0  0  0  0  0  0  0  0  0  0  0
    3.1807    2.0526   -4.1535 O   0  0  0  0  0  0  0  0  0  0  0  0
    5.5607    1.8031   -5.0192 C   0  0  1  0  0  0  0  0  0  0  0  0
    5.3377    2.6914   -5.6122 H   0  0  0  0  0  0  0  0  0  0  0  0
    7.0325    1.9313   -5.0000 O   0  0  0  0  0  0  0  0  0  0  0  0
    5.3165    0.4397   -5.6130 C   0  0  0  0  0  0  0  0  0  0  0  0
    4.6266   -0.6296   -5.0200 N   0  0  0  0  0  0  0  0  0  0  0  0
    4.0035   -0.7696   -3.6922 C   0  0  2  0  0  0  0  0  0  0  0  0
    4.3156   -1.7571   -3.3070 H   0  0  0  0  0  0  0  0  0  0  0  0
    2.4429   -0.7711   -3.7378 C   0  0  0  0  0  0  0  0  0  0  0  0
    1.7298   -1.0341   -2.5291 O   0  0  0  0  0  0  0  0  0  0  0  0
    4.5728   -1.6366   -5.9387 C   0  0  0  0  0  0  0  0  0  0  0  0
    5.2666   -1.1725   -7.0214 C   0  0  0  0  0  0  0  0  0  0  0  0
    5.7453    0.0807   -6.8060 N   0  0  0  0  0  0  0  0  0  0  0  0
    7.5021    1.5814   -1.2533 C   0  0  1  0  0  0  0  0  0  0  0  0
    8.2703    1.4707   -2.0490 H   0  0  0  0  0  0  0  0  0  0  0  0
    6.2809    2.1839   -1.7511 C   0  0  2  0  0  0  0  0  0  0  0  0
    6.3080    3.2364   -2.0415 H   0  0  0  0  0  0  0  0  0  0  0  0
    5.0277    1.9689   -0.6660 C   0  0  2  0  0  0  0  0  0  0  0  0
    4.0295    2.2222   -1.0441 H   0  0  0  0  0  0  0  0  0  0  0  0
    5.2477    3.0202    0.3091 O   0  0  0  0  0  0  0  0  0  0  0  0
    6.5327    1.5965   -3.0011 O   0  0  0  0  0  0  0  0  0  0  0  0
    8.0220    2.4759   -0.3185 O   0  0  0  0  0  0  0  0  0  0  0  0
    2.4347   -0.3322   -1.2349 H   0  0  0  0  0  0  0  0  0  0  0  0
    4.3539   -1.2351   -1.2178 H   0  0  0  0  0  0  0  0  0  0  0  0
    4.3447   -1.6195    0.3467 H   0  0  0  0  0  0  0  0  0  0  0  0
    3.0540    1.5771   -4.9892 H   0  0  0  0  0  0  0  0  0  0  0  0
    7.3150    2.2071   -4.1011 H   0  0  0  0  0  0  0  0  0  0  0  0
    2.0629   -1.4199   -4.5289 H   0  0  0  0  0  0  0  0  0  0  0  0
    2.0943    0.2217   -3.9724 H   0  0  0  0  0  0  0  0  0  0  0  0
    1.8945   -1.9080   -2.1260 H   0  0  0  0  0  0  0  0  0  0  0  0
    4.0400   -2.5583   -5.7587 H   0  0  0  0  0  0  0  0  0  0  0  0
    5.4224   -1.6681   -7.9658 H   0  0  0  0  0  0  0  0  0  0  0  0
    5.3340    3.8621   -0.1767 H   0  0  0  0  0  0  0  0  0  0  0  0
    6.5283    0.5819   -3.1492 H   0  0  0  0  0  0  0  0  0  0  0  0
    8.9778    2.3371   -0.3263 H   0  0  0  0  0  0  0  0  0  0  0  0
  1  2  1  0  0  0  0
  1 35  1  0  0  0  0
  2  3  1  0  0  0  0
  2 36  1  0  0  0  0
  2 37  1  0  0  0  0
  3  4  1  1  0  0  0
  3  5  1  0  0  0  0
  3 30  1  0  0  0  0
  5  6  1  0  0  0  0
  6 26  1  0  0  0  0
  6  8  1  0  0  0  0
  6  7  1  1  0  0  0
  9 11  1  0  0  0  0
  9 19  1  0  0  0  0
  9 10  1  1  0  0  0
  9  8  1  0  0  0  0
 11 14  1  0  0  0  0
 11 13  1  0  0  0  0
 11 12  1  1  0  0  0
 13 38  1  0  0  0  0
 14 15  1  6  0  0  0
 14 16  1  0  0  0  0
 14 17  1  0  0  0  0
 16 39  1  0  0  0  0
 17 18  1  0  0  0  0
 17 25  2  0  0  0  0
 18 19  1  0  0  0  0
 18 23  1  0  0  0  0
 19 20  1  1  0  0  0
 19 21  1  0  0  0  0
 21 22  1  0  0  0  0
 21 40  1  0  0  0  0
 21 41  1  0  0  0  0
 22 42  1  0  0  0  0
 23 24  2  0  0  0  0
 23 43  1  0  0  0  0
 24 25  1  0  0  0  0
 24 44  1  0  0  0  0
 26 27  1  6  0  0  0
 26 28  1  0  0  0  0
 26 34  1  0  0  0  0
 28 30  1  0  0  0  0
 28 33  1  0  0  0  0
 28 29  1  6  0  0  0
 30 31  1  6  0  0  0
 30 32  1  0  0  0  0
 32 45  1  0  0  0  0
 33 46  1  0  0  0  0
 34 47  1  0  0  0  0
M  END
$$$$
