IDH
 OpenBabel04121316133D

 14 14  0  0  1  0  0  0  0  0999 V2000
    0.9099    0.0209    0.2592 I   0  0  0  0  0  0  0  0  0  0  0  0
    3.0646   -0.0216    0.1231 C   0  0  1  0  0  0  0  0  0  0  0  0
    3.5000    0.2881    1.0784 H   0  0  0  0  0  0  0  0  0  0  0  0
    3.5778   -1.3930   -0.2785 C   0  0  0  0  0  0  0  0  0  0  0  0
    3.3126   -1.6797   -1.6690 N   0  0  0  0  0  0  0  0  0  0  0  0
    3.5020   -0.7290   -2.6246 C   0  0  0  0  0  0  0  0  0  0  0  0
    3.9219   -0.9954   -3.7500 O   0  0  0  0  0  0  0  0  0  0  0  0
    3.1861    0.5372   -2.2467 N   0  0  0  0  0  0  0  0  0  0  0  0
    3.4626    0.9575   -0.9687 C   0  0  0  0  0  0  0  0  0  0  0  0
    4.0216    2.0152   -0.7499 O   0  0  0  0  0  0  0  0  0  0  0  0
    3.1701   -2.2036    0.3329 H   0  0  0  0  0  0  0  0  0  0  0  0
    4.6717   -1.4173   -0.1760 H   0  0  0  0  0  0  0  0  0  0  0  0
    2.8866   -2.5493   -1.9678 H   0  0  0  0  0  0  0  0  0  0  0  0
    3.3339    1.2239   -2.9689 H   0  0  0  0  0  0  0  0  0  0  0  0
  1  2  1  0  0  0  0
  2  3  1  1  0  0  0
  2  4  1  0  0  0  0
  2  9  1  0  0  0  0
  4  5  1  0  0  0  0
  4 11  1  0  0  0  0
  4 12  1  0  0  0  0
  5  6  1  0  0  0  0
  5 13  1  0  0  0  0
  6  7  2  0  0  0  0
  6  8  1  0  0  0  0
  8  9  1  0  0  0  0
  8 14  1  0  0  0  0
  9 10  2  0  0  0  0
M  END
$$$$
