IDZ
 OpenBabel04121316133D

 28 31  0  0  0  0  0  0  0  0999 V2000
    2.1812   -0.6393   -0.0004 C   0  0  0  0  0  0  0  0  0  0  0  0
    2.1384    0.7493    0.0006 C   0  0  0  0  0  0  0  0  0  0  0  0
    0.9177    1.4328   -0.0007 C   0  0  0  0  0  0  0  0  0  0  0  0
   -0.2533    0.6628   -0.0006 C   0  0  0  0  0  0  0  0  0  0  0  0
   -0.2489   -0.7296   -0.0003 C   0  0  0  0  0  0  0  0  0  0  0  0
    1.0007   -1.3851   -0.0005 C   0  0  0  0  0  0  0  0  0  0  0  0
   -1.6314   -1.1023    0.0007 C   0  0  0  0  0  0  0  0  0  0  0  0
   -2.4273   -0.0217    0.0011 N   0  0  0  0  0  0  0  0  0  0  0  0
   -1.5759    1.0162   -0.0003 N   0  0  0  0  0  0  0  0  0  0  0  0
   -1.9633    1.9535   -0.0003 H   0  0  0  0  0  0  0  0  0  0  0  0
   -2.1750   -2.5113    0.0012 C   0  0  0  0  0  0  0  0  0  0  0  0
   -3.4475   -2.8705    0.0055 N   0  0  0  0  0  0  0  0  0  0  0  0
   -3.4533   -4.2501    0.0046 C   0  0  0  0  0  0  0  0  0  0  0  0
   -2.1600   -4.7482   -0.0007 C   0  0  0  0  0  0  0  0  0  0  0  0
   -1.3790   -3.6293   -0.0032 N   0  0  0  0  0  0  0  0  0  0  0  0
   -0.3795   -3.6452   -0.0080 H   0  0  0  0  0  0  0  0  0  0  0  0
   -1.8369   -6.1054   -0.0024 C   0  0  0  0  0  0  0  0  0  0  0  0
   -2.9111   -6.9970    0.0023 C   0  0  0  0  0  0  0  0  0  0  0  0
   -4.2305   -6.5363    0.0063 C   0  0  0  0  0  0  0  0  0  0  0  0
   -4.5190   -5.1615    0.0077 C   0  0  0  0  0  0  0  0  0  0  0  0
    3.1364   -1.1591   -0.0008 H   0  0  0  0  0  0  0  0  0  0  0  0
    3.0718    1.3076    0.0025 H   0  0  0  0  0  0  0  0  0  0  0  0
    0.8924    2.5178   -0.0012 H   0  0  0  0  0  0  0  0  0  0  0  0
    1.0959   -2.4613    0.0000 H   0  0  0  0  0  0  0  0  0  0  0  0
   -0.8103   -6.4548   -0.0070 H   0  0  0  0  0  0  0  0  0  0  0  0
   -2.7138   -8.0672    0.0030 H   0  0  0  0  0  0  0  0  0  0  0  0
   -5.0475   -7.2539    0.0084 H   0  0  0  0  0  0  0  0  0  0  0  0
   -5.5418   -4.8034    0.0113 H   0  0  0  0  0  0  0  0  0  0  0  0
  1  2  2  0  0  0  0
  1  6  1  0  0  0  0
  1 21  1  0  0  0  0
  2  3  1  0  0  0  0
  2 22  1  0  0  0  0
  3  4  2  0  0  0  0
  3 23  1  0  0  0  0
  4  5  1  0  0  0  0
  4  9  1  0  0  0  0
  5  6  2  0  0  0  0
  5  7  1  0  0  0  0
  6 24  1  0  0  0  0
  7  8  2  0  0  0  0
  7 11  1  0  0  0  0
  8  9  1  0  0  0  0
  9 10  1  0  0  0  0
 11 12  2  0  0  0  0
 11 15  1  0  0  0  0
 12 13  1  0  0  0  0
 13 14  2  0  0  0  0
 13 20  1  0  0  0  0
 14 15  1  0  0  0  0
 14 17  1  0  0  0  0
 15 16  1  0  0  0  0
 17 18  2  0  0  0  0
 17 25  1  0  0  0  0
 18 19  1  0  0  0  0
 18 26  1  0  0  0  0
 19 20  2  0  0  0  0
 19 27  1  0  0  0  0
 20 28  1  0  0  0  0
M  END
$$$$
