IFC
 OpenBabel04121316133D

 52 55  0  0  0  0  0  0  0  0999 V2000
    0.9915    0.1336   -0.0541 C   0  0  0  0  0  0  0  0  0  0  0  0
    2.4585    0.0875   -0.0556 C   0  0  0  0  0  0  0  0  0  0  0  0
    3.2566    1.1970   -0.0601 N   0  0  0  0  0  0  0  0  0  0  0  0
    4.4867    0.7259   -0.0654 C   0  0  0  0  0  0  0  0  0  0  0  0
    4.5139   -0.6530   -0.0633 N   0  0  0  0  0  0  0  0  0  0  0  0
    3.2110   -1.0552   -0.0556 C   0  0  0  0  0  0  0  0  0  0  0  0
    5.6252   -1.5174   -0.0675 C   0  0  0  0  0  0  0  0  0  0  0  0
    6.9013   -0.9926   -0.0678 C   0  0  0  0  0  0  0  0  0  0  0  0
    8.0065   -1.8470   -0.0660 C   0  0  0  0  0  0  0  0  0  0  0  0
    7.8402   -3.2275   -0.0661 C   0  0  0  0  0  0  0  0  0  0  0  0
    6.5557   -3.7649   -0.0665 C   0  0  0  0  0  0  0  0  0  0  0  0
    5.4538   -2.9064   -0.0682 C   0  0  0  0  0  0  0  0  0  0  0  0
    6.3913   -5.2560   -0.0622 C   0  0  0  0  0  0  0  0  0  0  0  0
    6.9744   -5.8292   -1.1478 F   0  0  0  0  0  0  0  0  0  0  0  0
    6.9732   -5.8226    1.0277 F   0  0  0  0  0  0  0  0  0  0  0  0
    5.0947   -5.6597   -0.0614 F   0  0  0  0  0  0  0  0  0  0  0  0
    9.3089   -1.1791   -0.0560 C   0  0  0  0  0  0  0  0  0  0  0  0
    9.2824    0.0473   -0.0785 O   0  0  0  0  0  0  0  0  0  0  0  0
   10.4303   -1.9685   -0.0207 N   0  0  0  0  0  0  0  0  0  0  0  0
   11.7287   -1.4517   -0.0408 C   0  0  0  0  0  0  0  0  0  0  0  0
   12.0075   -0.0960   -0.0666 C   0  0  0  0  0  0  0  0  0  0  0  0
   13.3064    0.3549   -0.1599 C   0  0  0  0  0  0  0  0  0  0  0  0
   14.3416   -0.5510   -0.3808 C   0  0  0  0  0  0  0  0  0  0  0  0
   14.0688   -1.9310   -0.3345 C   0  0  0  0  0  0  0  0  0  0  0  0
   12.7703   -2.3583   -0.0669 C   0  0  0  0  0  0  0  0  0  0  0  0
   15.0957   -2.8600   -0.5980 N   0  0  0  0  0  0  0  0  0  0  0  0
   14.9505   -4.2395   -0.6414 C   0  0  0  0  0  0  0  0  0  0  0  0
   13.8991   -4.8472   -0.4279 O   0  0  0  0  0  0  0  0  0  0  0  0
   16.1440   -4.9603   -0.9650 C   0  0  0  0  0  0  0  0  0  0  0  0
   17.4297   -4.6031   -1.2998 C   0  0  0  0  0  0  0  0  0  0  0  0
   18.0824   -5.8326   -1.4828 C   0  0  0  0  0  0  0  0  0  0  0  0
   17.2737   -6.8723   -1.2815 N   0  0  0  0  0  0  0  0  0  0  0  0
   16.0505   -6.3212   -0.9574 O   0  0  0  0  0  0  0  0  0  0  0  0
   15.6891    0.0147   -0.6998 C   0  0  0  0  0  0  0  0  0  0  0  0
    0.6191    1.1574   -0.0532 H   0  0  0  0  0  0  0  0  0  0  0  0
    0.6175   -0.3907    0.8314 H   0  0  0  0  0  0  0  0  0  0  0  0
    0.6169   -0.3890   -0.9404 H   0  0  0  0  0  0  0  0  0  0  0  0
    5.3761    1.3442   -0.0723 H   0  0  0  0  0  0  0  0  0  0  0  0
    2.8940   -2.0844   -0.0520 H   0  0  0  0  0  0  0  0  0  0  0  0
    7.0716    0.0819   -0.0657 H   0  0  0  0  0  0  0  0  0  0  0  0
    8.6773   -3.9170   -0.0643 H   0  0  0  0  0  0  0  0  0  0  0  0
    4.4673   -3.3592   -0.0694 H   0  0  0  0  0  0  0  0  0  0  0  0
   10.3610   -2.9769   -0.0512 H   0  0  0  0  0  0  0  0  0  0  0  0
   11.2395    0.6618   -0.0261 H   0  0  0  0  0  0  0  0  0  0  0  0
   13.4692    1.4268   -0.1042 H   0  0  0  0  0  0  0  0  0  0  0  0
   12.5261   -3.3994    0.0938 H   0  0  0  0  0  0  0  0  0  0  0  0
   15.9965   -2.4686   -0.8322 H   0  0  0  0  0  0  0  0  0  0  0  0
   17.8371   -3.6102   -1.3995 H   0  0  0  0  0  0  0  0  0  0  0  0
   19.1090   -6.0218   -1.7536 H   0  0  0  0  0  0  0  0  0  0  0  0
   15.6733    1.1104   -0.6821 H   0  0  0  0  0  0  0  0  0  0  0  0
   15.9838   -0.2910   -1.7081 H   0  0  0  0  0  0  0  0  0  0  0  0
   16.4222   -0.3261    0.0335 H   0  0  0  0  0  0  0  0  0  0  0  0
  1  2  1  0  0  0  0
  1 35  1  0  0  0  0
  1 36  1  0  0  0  0
  1 37  1  0  0  0  0
  2  3  1  0  0  0  0
  2  6  2  0  0  0  0
  3  4  2  0  0  0  0
  4  5  1  0  0  0  0
  4 38  1  0  0  0  0
  5  6  1  0  0  0  0
  5  7  1  0  0  0  0
  6 39  1  0  0  0  0
  7  8  2  0  0  0  0
  7 12  1  0  0  0  0
  8  9  1  0  0  0  0
  8 40  1  0  0  0  0
  9 10  2  0  0  0  0
  9 17  1  0  0  0  0
 10 11  1  0  0  0  0
 10 41  1  0  0  0  0
 11 12  2  0  0  0  0
 11 13  1  0  0  0  0
 12 42  1  0  0  0  0
 13 14  1  0  0  0  0
 13 15  1  0  0  0  0
 13 16  1  0  0  0  0
 17 18  2  0  0  0  0
 17 19  1  0  0  0  0
 19 20  1  0  0  0  0
 19 43  1  0  0  0  0
 20 21  2  0  0  0  0
 20 25  1  0  0  0  0
 21 22  1  0  0  0  0
 21 44  1  0  0  0  0
 22 23  2  0  0  0  0
 22 45  1  0  0  0  0
 23 24  1  0  0  0  0
 23 34  1  0  0  0  0
 24 25  2  0  0  0  0
 24 26  1  0  0  0  0
 25 46  1  0  0  0  0
 26 27  1  0  0  0  0
 26 47  1  0  0  0  0
 27 28  2  0  0  0  0
 27 29  1  0  0  0  0
 29 30  2  0  0  0  0
 29 33  1  0  0  0  0
 30 31  1  0  0  0  0
 30 48  1  0  0  0  0
 31 32  2  0  0  0  0
 31 49  1  0  0  0  0
 32 33  1  0  0  0  0
 34 50  1  0  0  0  0
 34 51  1  0  0  0  0
 34 52  1  0  0  0  0
M  END
$$$$
