IFG
 OpenBabel04121316133D

 30 30  0  0  1  0  0  0  0  0999 V2000
    1.0492   -0.3286    0.2038 O   0  0  0  0  0  0  0  0  0  0  0  0
    2.4484   -0.0670    0.0524 C   0  0  0  0  0  0  0  0  0  0  0  0
    2.8490    0.1778   -1.4176 C   0  0  1  0  0  0  0  0  0  0  0  0
    3.9470    0.1641   -1.4438 H   0  0  0  0  0  0  0  0  0  0  0  0
    2.3213   -0.9227   -2.3418 C   0  0  0  0  0  0  0  0  0  0  0  0
    0.8658   -0.8628   -2.5279 N   0  0  0  0  0  0  0  0  0  0  0  0
    0.3816    0.4467   -2.9894 C   0  0  1  0  0  0  0  0  0  0  0  0
   -0.7147    0.4156   -2.9681 H   0  0  0  0  0  0  0  0  0  0  0  0
    0.8844    1.6574   -2.1383 C   0  0  2  0  0  0  0  0  0  0  0  0
    0.6530    2.6129   -2.6124 H   0  0  0  0  0  0  0  0  0  0  0  0
    2.4087    1.5430   -1.9766 C   0  0  1  0  0  0  0  0  0  0  0  0
    2.8613    1.6722   -2.9699 H   0  0  0  0  0  0  0  0  0  0  0  0
    2.9386    2.5898   -1.1633 O   0  0  0  0  0  0  0  0  0  0  0  0
    0.2383    1.7504   -0.8620 O   0  0  0  0  0  0  0  0  0  0  0  0
    0.7886    0.5448   -4.3637 N   0  0  0  0  0  0  0  0  0  0  0  0
    0.4249    1.6271   -5.1191 C   0  0  0  0  0  0  0  0  0  0  0  0
   -0.3230    2.5161   -4.7116 O   0  0  0  0  0  0  0  0  0  0  0  0
    1.0388    1.7037   -6.4803 C   0  0  0  0  0  0  0  0  0  0  0  0
    0.8282   -0.1705    1.1434 H   0  0  0  0  0  0  0  0  0  0  0  0
    2.9756   -0.9416    0.4415 H   0  0  0  0  0  0  0  0  0  0  0  0
    2.7054    0.7947    0.6752 H   0  0  0  0  0  0  0  0  0  0  0  0
    2.5847   -1.9045   -1.9285 H   0  0  0  0  0  0  0  0  0  0  0  0
    2.8206   -0.8754   -3.3168 H   0  0  0  0  0  0  0  0  0  0  0  0
    0.4644   -1.0035   -1.5897 H   0  0  0  0  0  0  0  0  0  0  0  0
    2.3283    2.6867   -0.4090 H   0  0  0  0  0  0  0  0  0  0  0  0
    0.2568    0.8441   -0.4958 H   0  0  0  0  0  0  0  0  0  0  0  0
    1.3378   -0.2111   -4.7456 H   0  0  0  0  0  0  0  0  0  0  0  0
    1.6761    0.8439   -6.6969 H   0  0  0  0  0  0  0  0  0  0  0  0
    1.6440    2.6142   -6.5367 H   0  0  0  0  0  0  0  0  0  0  0  0
    0.2306    1.7527   -7.2130 H   0  0  0  0  0  0  0  0  0  0  0  0
  1  2  1  0  0  0  0
  1 19  1  0  0  0  0
  2  3  1  0  0  0  0
  2 20  1  0  0  0  0
  2 21  1  0  0  0  0
  3  4  1  6  0  0  0
  3  5  1  0  0  0  0
  3 11  1  0  0  0  0
  5  6  1  0  0  0  0
  5 22  1  0  0  0  0
  5 23  1  0  0  0  0
  6  7  1  0  0  0  0
  6 24  1  0  0  0  0
  7  8  1  1  0  0  0
  7  9  1  0  0  0  0
  7 15  1  0  0  0  0
  9 11  1  0  0  0  0
  9 14  1  0  0  0  0
  9 10  1  6  0  0  0
 11 13  1  0  0  0  0
 11 12  1  6  0  0  0
 13 25  1  0  0  0  0
 14 26  1  0  0  0  0
 15 16  1  0  0  0  0
 15 27  1  0  0  0  0
 16 17  2  0  0  0  0
 16 18  1  0  0  0  0
 18 28  1  0  0  0  0
 18 29  1  0  0  0  0
 18 30  1  0  0  0  0
M  END
$$$$
