IGN
 OpenBabel04121316133D

 69 70  0  0  1  0  0  0  0  0999 V2000
   13.2706   -5.1840   -5.4964 N   0  0  0  0  0  0  0  0  0  0  0  0
   13.3335   -3.9276   -5.9331 C   0  0  0  0  0  0  0  0  0  0  0  0
   14.2077   -3.4706   -6.7520 N   0  0  0  0  0  0  0  0  0  0  0  0
   12.3791   -3.1497   -5.4162 N   0  0  0  0  0  0  0  0  0  0  0  0
   12.4224   -1.7473   -5.6765 C   0  0  0  0  0  0  0  0  0  0  0  0
   11.5021   -1.0750   -4.6949 C   0  0  0  0  0  0  0  0  0  0  0  0
   11.9193    0.3754   -4.6433 C   0  0  0  0  0  0  0  0  0  0  0  0
   10.9730    1.2710   -3.6805 N   0  0  0  0  0  0  0  0  0  0  0  0
   10.6798    2.5234   -4.1874 C   0  0  0  0  0  0  0  0  0  0  0  0
   11.5656    2.5788   -5.0708 O   0  0  0  0  0  0  0  0  0  0  0  0
    9.1768    3.7588   -4.0334 C   0  0  2  0  0  0  0  0  0  0  0  0
    8.6348    3.3242   -3.1822 H   0  0  0  0  0  0  0  0  0  0  0  0
    7.7017    4.0900   -5.1711 C   0  0  0  0  0  0  0  0  0  0  0  0
    6.5622    4.7983   -4.5451 C   0  0  0  0  0  0  0  0  0  0  0  0
    7.1883    6.0799   -4.0629 C   0  0  0  0  0  0  0  0  0  0  0  0
    8.3300    5.8210   -3.0532 C   0  0  0  0  0  0  0  0  0  0  0  0
    9.4932    5.1040   -3.6176 N   0  0  0  0  0  0  0  0  0  0  0  0
   10.7811    5.5971   -3.6987 C   0  0  0  0  0  0  0  0  0  0  0  0
   11.1186    6.6122   -3.0159 O   0  0  0  0  0  0  0  0  0  0  0  0
   11.8103    4.7698   -4.4972 C   0  0  1  0  0  0  0  0  0  0  0  0
   11.9491    3.9670   -3.7668 H   0  0  0  0  0  0  0  0  0  0  0  0
   11.2710    4.4037   -6.0571 C   0  0  0  0  0  0  0  0  0  0  0  0
    9.7947    3.3475   -6.3845 C   0  0  0  0  0  0  0  0  0  0  0  0
    9.5313    2.8797   -7.7868 C   0  0  0  0  0  0  0  0  0  0  0  0
   10.0114    1.4462   -7.9817 C   0  0  0  0  0  0  0  0  0  0  0  0
    9.2500    0.3428   -7.2019 C   0  0  0  0  0  0  0  0  0  0  0  0
    9.2829    0.6500   -5.7862 C   0  0  0  0  0  0  0  0  0  0  0  0
    8.8255    1.9870   -5.4896 C   0  0  0  0  0  0  0  0  0  0  0  0
   13.2311    5.1760   -4.3808 N   0  0  0  0  0  0  0  0  0  0  0  0
   14.1796    4.1304   -4.8698 C   0  0  0  0  0  0  0  0  0  0  0  0
   15.5962    4.6960   -4.7001 C   0  0  0  0  0  0  0  0  0  0  0  0
   15.8585    5.7226   -4.1080 O   0  0  0  0  0  0  0  0  0  0  0  0
   16.5710    3.9293   -5.2522 O   0  0  0  0  0  0  0  0  0  0  0  0
   13.9383   -5.8660   -5.8122 H   0  0  0  0  0  0  0  0  0  0  0  0
   12.5630   -5.4719   -4.8396 H   0  0  0  0  0  0  0  0  0  0  0  0
   14.8478   -4.2067   -7.0304 H   0  0  0  0  0  0  0  0  0  0  0  0
   11.7064   -3.4931   -4.7485 H   0  0  0  0  0  0  0  0  0  0  0  0
   12.1314   -1.5561   -6.7232 H   0  0  0  0  0  0  0  0  0  0  0  0
   13.4362   -1.3531   -5.5495 H   0  0  0  0  0  0  0  0  0  0  0  0
   11.4916   -1.4724   -3.6851 H   0  0  0  0  0  0  0  0  0  0  0  0
   10.5045   -1.2927   -5.0965 H   0  0  0  0  0  0  0  0  0  0  0  0
   11.8924    0.6388   -5.7370 H   0  0  0  0  0  0  0  0  0  0  0  0
   12.9790    0.6407   -4.5392 H   0  0  0  0  0  0  0  0  0  0  0  0
   10.2182    0.7972   -3.2239 H   0  0  0  0  0  0  0  0  0  0  0  0
    7.1806    3.3107   -5.7302 H   0  0  0  0  0  0  0  0  0  0  0  0
    7.8614    4.7705   -6.0357 H   0  0  0  0  0  0  0  0  0  0  0  0
    6.1045    4.1436   -3.8060 H   0  0  0  0  0  0  0  0  0  0  0  0
    5.8021    4.9888   -5.3300 H   0  0  0  0  0  0  0  0  0  0  0  0
    6.3834    6.6751   -3.6375 H   0  0  0  0  0  0  0  0  0  0  0  0
    7.5925    6.6233   -4.9316 H   0  0  0  0  0  0  0  0  0  0  0  0
    7.9215    5.1862   -2.2561 H   0  0  0  0  0  0  0  0  0  0  0  0
    8.6495    6.7659   -2.6244 H   0  0  0  0  0  0  0  0  0  0  0  0
   12.0887    3.9552   -6.6450 H   0  0  0  0  0  0  0  0  0  0  0  0
   11.1479    5.3901   -6.5329 H   0  0  0  0  0  0  0  0  0  0  0  0
    9.3133    4.3037   -6.3855 H   0  0  0  0  0  0  0  0  0  0  0  0
    9.9564    3.5787   -8.5037 H   0  0  0  0  0  0  0  0  0  0  0  0
    8.4382    2.8890   -7.8996 H   0  0  0  0  0  0  0  0  0  0  0  0
   11.0834    1.4448   -7.7283 H   0  0  0  0  0  0  0  0  0  0  0  0
    9.9062    1.1808   -9.0232 H   0  0  0  0  0  0  0  0  0  0  0  0
    9.7848   -0.6042   -7.2930 H   0  0  0  0  0  0  0  0  0  0  0  0
    8.1928    0.2505   -7.4283 H   0  0  0  0  0  0  0  0  0  0  0  0
   10.2879    0.8334   -5.7072 H   0  0  0  0  0  0  0  0  0  0  0  0
    8.9989   -0.0743   -5.0089 H   0  0  0  0  0  0  0  0  0  0  0  0
    8.7995    1.8997   -4.3889 H   0  0  0  0  0  0  0  0  0  0  0  0
    7.7498    1.8531   -5.5849 H   0  0  0  0  0  0  0  0  0  0  0  0
   13.4316    5.2581   -3.3700 H   0  0  0  0  0  0  0  0  0  0  0  0
   14.0288    3.9275   -5.9321 H   0  0  0  0  0  0  0  0  0  0  0  0
   14.1154    3.1759   -4.3185 H   0  0  0  0  0  0  0  0  0  0  0  0
   16.2632    3.1210   -5.6971 H   0  0  0  0  0  0  0  0  0  0  0  0
  1  2  1  0  0  0  0
  1 34  1  0  0  0  0
  1 35  1  0  0  0  0
  2  3  2  0  0  0  0
  2  4  1  0  0  0  0
  3 36  1  0  0  0  0
  4  5  1  0  0  0  0
  4 37  1  0  0  0  0
  5  6  1  0  0  0  0
  5 38  1  0  0  0  0
  5 39  1  0  0  0  0
  6  7  1  0  0  0  0
  6 40  1  0  0  0  0
  6 41  1  0  0  0  0
  7  8  1  0  0  0  0
  7 42  1  0  0  0  0
  7 43  1  0  0  0  0
  8  9  1  0  0  0  0
  8 44  1  0  0  0  0
  9 10  2  0  0  0  0
 11 13  1  0  0  0  0
 11 17  1  0  0  0  0
 11 12  1  1  0  0  0
 11  9  1  0  0  0  0
 13 14  1  0  0  0  0
 13 45  1  0  0  0  0
 13 46  1  0  0  0  0
 14 15  1  0  0  0  0
 14 47  1  0  0  0  0
 14 48  1  0  0  0  0
 15 16  1  0  0  0  0
 15 49  1  0  0  0  0
 15 50  1  0  0  0  0
 16 17  1  0  0  0  0
 16 51  1  0  0  0  0
 16 52  1  0  0  0  0
 17 18  1  0  0  0  0
 18 19  2  0  0  0  0
 18 20  1  0  0  0  0
 20 21  1  1  0  0  0
 20 22  1  0  0  0  0
 20 29  1  0  0  0  0
 22 23  1  0  0  0  0
 22 53  1  0  0  0  0
 22 54  1  0  0  0  0
 23 24  1  0  0  0  0
 23 28  1  0  0  0  0
 23 55  1  0  0  0  0
 24 25  1  0  0  0  0
 24 56  1  0  0  0  0
 24 57  1  0  0  0  0
 25 26  1  0  0  0  0
 25 58  1  0  0  0  0
 25 59  1  0  0  0  0
 26 27  1  0  0  0  0
 26 60  1  0  0  0  0
 26 61  1  0  0  0  0
 27 28  1  0  0  0  0
 27 62  1  0  0  0  0
 27 63  1  0  0  0  0
 28 64  1  0  0  0  0
 28 65  1  0  0  0  0
 29 30  1  0  0  0  0
 29 66  1  0  0  0  0
 30 31  1  0  0  0  0
 30 67  1  0  0  0  0
 30 68  1  0  0  0  0
 31 32  2  0  0  0  0
 31 33  1  0  0  0  0
 33 69  1  0  0  0  0
M  END
$$$$
