IH5
 OpenBabel04121316133D

 39 40  0  0  0  0  0  0  0  0999 V2000
    0.8071    0.2486   -0.1873 O   0  0  0  0  0  0  0  0  0  0  0  0
    2.0967   -0.0453    0.0778 C   0  0  0  0  0  0  0  0  0  0  0  0
    2.3838   -1.2061    0.2637 O   0  0  0  0  0  0  0  0  0  0  0  0
    2.9855    1.1933   -0.0073 C   0  0  0  0  0  0  0  0  0  0  0  0
    4.4842    0.9766    0.0423 C   0  0  0  0  0  0  0  0  0  0  0  0
    5.3863    2.0550    0.0502 C   0  0  0  0  0  0  0  0  0  0  0  0
    6.7800    1.8250    0.0665 C   0  0  0  0  0  0  0  0  0  0  0  0
    7.8329    3.1960    0.0973 Cl  0  0  0  0  0  0  0  0  0  0  0  0
    7.2949    0.5314   -0.0617 C   0  0  0  0  0  0  0  0  0  0  0  0
    6.3687   -0.4465   -0.3988 C   0  0  0  0  0  0  0  0  0  0  0  0
    5.0237   -0.2891   -0.1224 C   0  0  0  0  0  0  0  0  0  0  0  0
    6.6779   -1.6542   -1.6156 Cl  0  0  0  0  0  0  0  0  0  0  0  0
    8.6532    0.3282    0.1029 O   0  0  0  0  0  0  0  0  0  0  0  0
    9.1624   -0.9511    0.2541 C   0  0  0  0  0  0  0  0  0  0  0  0
   10.4531   -1.1608   -0.2172 C   0  0  0  0  0  0  0  0  0  0  0  0
   10.9453   -2.4618   -0.3120 C   0  0  0  0  0  0  0  0  0  0  0  0
   10.0643   -3.5310   -0.1531 C   0  0  0  0  0  0  0  0  0  0  0  0
    8.7721   -3.3373    0.3510 C   0  0  0  0  0  0  0  0  0  0  0  0
    8.4468   -2.0399    0.7648 C   0  0  0  0  0  0  0  0  0  0  0  0
    7.7537   -4.4792    0.3630 C   0  0  0  0  0  0  0  0  0  0  0  0
    8.2091   -5.5419    1.3528 C   0  0  0  0  0  0  0  0  0  0  0  0
    6.2903   -4.1346    0.7096 C   0  0  0  0  0  0  0  0  0  0  0  0
   10.4524   -4.7932   -0.5033 O   0  0  0  0  0  0  0  0  0  0  0  0
    0.4354   -0.6491   -0.3345 H   0  0  0  0  0  0  0  0  0  0  0  0
    2.6971    1.8792    0.7945 H   0  0  0  0  0  0  0  0  0  0  0  0
    2.7654    1.6572   -0.9785 H   0  0  0  0  0  0  0  0  0  0  0  0
    5.0144    3.0788    0.0245 H   0  0  0  0  0  0  0  0  0  0  0  0
    4.4215   -1.1842   -0.2036 H   0  0  0  0  0  0  0  0  0  0  0  0
   11.0614   -0.3181   -0.5318 H   0  0  0  0  0  0  0  0  0  0  0  0
   11.9840   -2.6231   -0.5758 H   0  0  0  0  0  0  0  0  0  0  0  0
    7.5348   -1.8659    1.3217 H   0  0  0  0  0  0  0  0  0  0  0  0
    7.7287   -4.9080   -0.6527 H   0  0  0  0  0  0  0  0  0  0  0  0
    8.2797   -5.1011    2.3513 H   0  0  0  0  0  0  0  0  0  0  0  0
    9.1856   -5.9580    1.0996 H   0  0  0  0  0  0  0  0  0  0  0  0
    7.5034   -6.3764    1.3780 H   0  0  0  0  0  0  0  0  0  0  0  0
    6.2218   -3.5454    1.6275 H   0  0  0  0  0  0  0  0  0  0  0  0
    5.6987   -5.0451    0.8590 H   0  0  0  0  0  0  0  0  0  0  0  0
    5.7759   -3.5925   -0.0854 H   0  0  0  0  0  0  0  0  0  0  0  0
   11.4045   -4.8025   -0.6832 H   0  0  0  0  0  0  0  0  0  0  0  0
  1  2  1  0  0  0  0
  1 24  1  0  0  0  0
  2  3  2  0  0  0  0
  2  4  1  0  0  0  0
  4  5  1  0  0  0  0
  4 25  1  0  0  0  0
  4 26  1  0  0  0  0
  5  6  2  0  0  0  0
  5 11  1  0  0  0  0
  6  7  1  0  0  0  0
  6 27  1  0  0  0  0
  7  8  1  0  0  0  0
  7  9  2  0  0  0  0
  9 10  1  0  0  0  0
  9 13  1  0  0  0  0
 10 11  2  0  0  0  0
 10 12  1  0  0  0  0
 11 28  1  0  0  0  0
 13 14  1  0  0  0  0
 14 15  2  0  0  0  0
 14 19  1  0  0  0  0
 15 16  1  0  0  0  0
 15 29  1  0  0  0  0
 16 17  2  0  0  0  0
 16 30  1  0  0  0  0
 17 18  1  0  0  0  0
 17 23  1  0  0  0  0
 18 19  2  0  0  0  0
 18 20  1  0  0  0  0
 19 31  1  0  0  0  0
 20 21  1  0  0  0  0
 20 22  1  0  0  0  0
 20 32  1  0  0  0  0
 21 33  1  0  0  0  0
 21 34  1  0  0  0  0
 21 35  1  0  0  0  0
 22 36  1  0  0  0  0
 22 37  1  0  0  0  0
 22 38  1  0  0  0  0
 23 39  1  0  0  0  0
M  END
$$$$
