IM2
 OpenBabel04121316133D

 39 39  0  0  1  0  0  0  0  0999 V2000
   15.6047   12.4714    1.3665 N   0  0  0  0  0  0  0  0  0  0  0  0
   14.4383   12.8835    1.0208 C   0  0  0  0  0  0  0  0  0  0  0  0
   13.3101   12.2308    1.3713 N   0  0  0  0  0  0  0  0  0  0  0  0
   11.9685   12.6453    1.0150 C   0  0  0  0  0  0  0  0  0  0  0  0
   10.9161   11.6752    1.5722 C   0  0  0  0  0  0  0  0  0  0  0  0
    9.2673   12.2359    1.0654 S   0  0  0  0  0  0  0  0  0  0  0  0
    8.1767   11.1275    1.8031 C   0  0  0  0  0  0  0  0  0  0  0  0
    6.9349   11.3834    2.2729 C   0  0  0  0  0  0  0  0  0  0  0  0
    6.2839   10.1881    2.6083 N   0  0  0  0  0  0  0  0  0  0  0  0
    7.0645    9.0226    2.1471 C   0  0  2  0  0  0  0  0  0  0  0  0
    7.1413    8.2521    2.9276 H   0  0  0  0  0  0  0  0  0  0  0  0
    8.4594    9.6473    1.8747 C   0  0  0  0  0  0  0  0  0  0  0  0
    6.3834    8.4434    0.8799 C   0  0  1  0  0  0  0  0  0  0  0  0
    6.2050    9.2718    0.1792 H   0  0  0  0  0  0  0  0  0  0  0  0
    7.2418    7.3575    0.1922 C   0  0  2  0  0  0  0  0  0  0  0  0
    7.9629    6.9315    0.8989 H   0  0  0  0  0  0  0  0  0  0  0  0
    8.0064    7.9836   -0.8446 O   0  0  0  0  0  0  0  0  0  0  0  0
    6.4419    6.2221   -0.4343 C   0  0  0  0  0  0  0  0  0  0  0  0
    5.0144    7.9194    1.2752 C   0  0  0  0  0  0  0  0  0  0  0  0
    4.1411    7.5963    0.4740 O   0  0  0  0  0  0  0  0  0  0  0  0
    6.2966   12.7449    2.3127 C   0  0  0  0  0  0  0  0  0  0  0  0
    6.8096   13.7768    1.8945 O   0  0  0  0  0  0  0  0  0  0  0  0
    5.0651   12.7604    2.8644 O   0  0  0  0  0  0  0  0  0  0  0  0
   16.3163   13.1115    0.9966 H   0  0  0  0  0  0  0  0  0  0  0  0
   14.2862   13.7950    0.4156 H   0  0  0  0  0  0  0  0  0  0  0  0
   13.4496   11.3993    1.9329 H   0  0  0  0  0  0  0  0  0  0  0  0
   11.8955   12.6915   -0.0787 H   0  0  0  0  0  0  0  0  0  0  0  0
   11.7955   13.6560    1.4050 H   0  0  0  0  0  0  0  0  0  0  0  0
   10.9792   11.6402    2.6655 H   0  0  0  0  0  0  0  0  0  0  0  0
   11.1015   10.6660    1.1896 H   0  0  0  0  0  0  0  0  0  0  0  0
    5.6285   10.1222    3.3776 H   0  0  0  0  0  0  0  0  0  0  0  0
    8.9311    9.2722    0.9662 H   0  0  0  0  0  0  0  0  0  0  0  0
    9.1376    9.4442    2.7134 H   0  0  0  0  0  0  0  0  0  0  0  0
    8.4798    7.2946   -1.3443 H   0  0  0  0  0  0  0  0  0  0  0  0
    7.0895    5.5084   -0.9497 H   0  0  0  0  0  0  0  0  0  0  0  0
    5.7470    6.6117   -1.1865 H   0  0  0  0  0  0  0  0  0  0  0  0
    5.8854    5.6727    0.3319 H   0  0  0  0  0  0  0  0  0  0  0  0
    4.8345    7.7704    2.3517 H   0  0  0  0  0  0  0  0  0  0  0  0
    4.7300   11.8835    3.1035 H   0  0  0  0  0  0  0  0  0  0  0  0
  1  2  2  0  0  0  0
  1 24  1  0  0  0  0
  2  3  1  0  0  0  0
  2 25  1  0  0  0  0
  3  4  1  0  0  0  0
  3 26  1  0  0  0  0
  4  5  1  0  0  0  0
  4 27  1  0  0  0  0
  4 28  1  0  0  0  0
  5  6  1  0  0  0  0
  5 29  1  0  0  0  0
  5 30  1  0  0  0  0
  6  7  1  0  0  0  0
  7  8  2  0  0  0  0
  7 12  1  0  0  0  0
  8  9  1  0  0  0  0
  8 21  1  0  0  0  0
  9 10  1  0  0  0  0
  9 31  1  0  0  0  0
 10 11  1  1  0  0  0
 10 12  1  0  0  0  0
 10 13  1  0  0  0  0
 12 32  1  0  0  0  0
 12 33  1  0  0  0  0
 13 14  1  6  0  0  0
 13 19  1  0  0  0  0
 15 17  1  0  0  0  0
 15 18  1  0  0  0  0
 15 16  1  1  0  0  0
 15 13  1  0  0  0  0
 17 34  1  0  0  0  0
 18 35  1  0  0  0  0
 18 36  1  0  0  0  0
 18 37  1  0  0  0  0
 19 20  2  0  0  0  0
 19 38  1  0  0  0  0
 21 22  2  0  0  0  0
 21 23  1  0  0  0  0
 23 39  1  0  0  0  0
M  END
$$$$
