IMD
 OpenBabel04121316133D

 10 10  0  0  0  0  0  0  0  0999 V2000
    0.0912   -1.1452   -0.0006 C   0  0  0  0  0  0  0  0  0  0  0  0
   -1.0369   -0.4282    0.0005 N   0  0  0  0  0  0  0  0  0  0  0  0
   -1.9718   -0.8323    0.0020 H   0  0  0  0  0  0  0  0  0  0  0  0
   -0.7526    0.9209   -0.0008 C   0  0  0  0  0  0  0  0  0  0  0  0
    0.6097    1.0255    0.0012 C   0  0  0  0  0  0  0  0  0  0  0  0
    1.0964   -0.2644   -0.0002 N   0  3  0  0  0  0  0  0  0  0  0  0
    2.0821   -0.5209   -0.0009 H   0  0  0  0  0  0  0  0  0  0  0  0
    0.1743   -2.2261   -0.0016 H   0  0  0  0  0  0  0  0  0  0  0  0
   -1.5641    1.6276   -0.0023 H   0  0  0  0  0  0  0  0  0  0  0  0
    1.3041    1.8475    0.0027 H   0  0  0  0  0  0  0  0  0  0  0  0
  1  2  1  0  0  0  0
  1  6  2  0  0  0  0
  1  8  1  0  0  0  0
  2  3  1  0  0  0  0
  2  4  1  0  0  0  0
  4  5  2  0  0  0  0
  4  9  1  0  0  0  0
  5  6  1  0  0  0  0
  5 10  1  0  0  0  0
  6  7  1  0  0  0  0
M  CHG  1   6   1
M  END
$$$$
