IMH
 OpenBabel04121316133D

 33 35  0  0  1  0  0  0  0  0999 V2000
    0.8943   -0.0971   -0.0811 O   0  0  0  0  0  0  0  0  0  0  0  0
    2.3182   -0.0314    0.0511 C   0  0  0  0  0  0  0  0  0  0  0  0
    2.8321   -1.1980    0.9105 C   0  0  1  0  0  0  0  0  0  0  0  0
    3.8121   -0.9220    1.3200 H   0  0  0  0  0  0  0  0  0  0  0  0
    1.9210   -1.5293    2.0228 N   0  0  0  0  0  0  0  0  0  0  0  0
    2.1679   -2.9432    2.3223 C   0  0  2  0  0  0  0  0  0  0  0  0
    3.0111   -3.0015    3.0235 H   0  0  0  0  0  0  0  0  0  0  0  0
    2.5494   -3.6177    0.9842 C   0  0  1  0  0  0  0  0  0  0  0  0
    1.6868   -4.1278    0.5385 H   0  0  0  0  0  0  0  0  0  0  0  0
    2.9646   -2.4663    0.0614 C   0  0  2  0  0  0  0  0  0  0  0  0
    2.2900   -2.4469   -0.8009 H   0  0  0  0  0  0  0  0  0  0  0  0
    4.2948   -2.5873   -0.4462 O   0  0  0  0  0  0  0  0  0  0  0  0
    3.5988   -4.5861    1.1015 O   0  0  0  0  0  0  0  0  0  0  0  0
    0.9826   -3.6068    2.9809 C   0  0  0  0  0  0  0  0  0  0  0  0
    0.9542   -4.9284    3.4164 C   0  0  0  0  0  0  0  0  0  0  0  0
   -0.2830   -5.1989    3.9427 N   0  0  0  0  0  0  0  0  0  0  0  0
   -0.5915   -6.0817    4.3272 H   0  0  0  0  0  0  0  0  0  0  0  0
   -1.0564   -4.0784    3.8772 C   0  0  0  0  0  0  0  0  0  0  0  0
   -0.3118   -3.0724    3.2887 C   0  0  0  0  0  0  0  0  0  0  0  0
   -0.8273   -1.8391    3.0785 N   0  0  0  0  0  0  0  0  0  0  0  0
   -2.0896   -1.6954    3.5195 C   0  0  0  0  0  0  0  0  0  0  0  0
   -2.8838   -2.6201    4.0988 N   0  0  0  0  0  0  0  0  0  0  0  0
   -2.3499   -3.8281    4.2702 C   0  0  0  0  0  0  0  0  0  0  0  0
   -3.1393   -4.7803    4.8401 O   0  0  0  0  0  0  0  0  0  0  0  0
    0.6186    0.7343   -0.5047 H   0  0  0  0  0  0  0  0  0  0  0  0
    2.5832    0.9274    0.5073 H   0  0  0  0  0  0  0  0  0  0  0  0
    2.7436   -0.0709   -0.9574 H   0  0  0  0  0  0  0  0  0  0  0  0
    0.9585   -1.4072    1.6782 H   0  0  0  0  0  0  0  0  0  0  0  0
    4.4206   -3.5360   -0.6375 H   0  0  0  0  0  0  0  0  0  0  0  0
    3.3109   -5.2346    1.7676 H   0  0  0  0  0  0  0  0  0  0  0  0
    1.7079   -5.7036    3.3935 H   0  0  0  0  0  0  0  0  0  0  0  0
   -2.5211   -0.7073    3.3881 H   0  0  0  0  0  0  0  0  0  0  0  0
   -3.9617   -4.2787    4.9861 H   0  0  0  0  0  0  0  0  0  0  0  0
  1  2  1  0  0  0  0
  1 25  1  0  0  0  0
  2  3  1  0  0  0  0
  2 26  1  0  0  0  0
  2 27  1  0  0  0  0
  3  4  1  1  0  0  0
  3  5  1  0  0  0  0
  3 10  1  0  0  0  0
  5  6  1  0  0  0  0
  5 28  1  0  0  0  0
  6  8  1  0  0  0  0
  6 14  1  0  0  0  0
  6  7  1  1  0  0  0
  8  9  1  6  0  0  0
  8 10  1  0  0  0  0
  8 13  1  0  0  0  0
 10 11  1  6  0  0  0
 10 12  1  0  0  0  0
 12 29  1  0  0  0  0
 13 30  1  0  0  0  0
 14 15  2  0  0  0  0
 14 19  1  0  0  0  0
 15 16  1  0  0  0  0
 15 31  1  0  0  0  0
 16 17  1  0  0  0  0
 16 18  1  0  0  0  0
 18 19  2  0  0  0  0
 18 23  1  0  0  0  0
 19 20  1  0  0  0  0
 20 21  2  0  0  0  0
 21 22  1  0  0  0  0
 21 32  1  0  0  0  0
 22 23  2  0  0  0  0
 23 24  1  0  0  0  0
 24 33  1  0  0  0  0
M  END
$$$$
