IMJ
 OpenBabel04121316133D

 53 56  0  0  0  0  0  0  0  0999 V2000
    0.9997    0.3961    0.3670 O   0  0  0  0  0  0  0  0  0  0  0  0
    2.1908    0.3108    0.2826 C   0  0  0  0  0  0  0  0  0  0  0  0
    2.9253   -0.9837    0.3705 C   0  0  0  0  0  0  0  0  0  0  0  0
    3.4261   -1.1691   -1.0390 C   0  0  0  0  0  0  0  0  0  0  0  0
    3.6544    0.0100   -1.9552 C   0  0  0  0  0  0  0  0  0  0  0  0
    3.7465    1.2287   -1.3055 C   0  0  0  0  0  0  0  0  0  0  0  0
    3.0806    1.3408   -0.0586 N   0  0  0  0  0  0  0  0  0  0  0  0
    4.4852    2.2268   -1.8218 N   0  0  0  0  0  0  0  0  0  0  0  0
    5.1372    1.9854   -3.0348 C   0  0  0  0  0  0  0  0  0  0  0  0
    5.0396    0.8207   -3.8500 C   0  0  0  0  0  0  0  0  0  0  0  0
    4.2055   -0.1657   -3.2782 C   0  0  0  0  0  0  0  0  0  0  0  0
    6.1175    0.5150   -4.9294 C   0  0  0  0  0  0  0  0  0  0  0  0
    6.4085   -0.6394   -5.6351 C   0  0  0  0  0  0  0  0  0  0  0  0
    7.7755   -1.0238   -6.4303 C   0  0  0  0  0  0  0  0  0  0  0  0
    8.3597   -0.1188   -7.0384 O   0  0  0  0  0  0  0  0  0  0  0  0
    8.4358   -2.2912   -6.2923 N   0  0  0  0  0  0  0  0  0  0  0  0
    8.0421   -3.4428   -5.4819 C   0  0  0  0  0  0  0  0  0  0  0  0
    7.4676   -3.0330   -4.1928 C   0  0  0  0  0  0  0  0  0  0  0  0
    7.7056   -1.8479   -3.4914 C   0  0  0  0  0  0  0  0  0  0  0  0
    8.7034   -0.7018   -3.8110 C   0  0  0  0  0  0  0  0  0  0  0  0
    6.7414   -1.8218   -2.4807 N   0  0  0  0  0  0  0  0  0  0  0  0
    5.9792   -3.0231   -2.5003 C   0  0  0  0  0  0  0  0  0  0  0  0
    6.5353   -3.8417   -3.4846 C   0  0  0  0  0  0  0  0  0  0  0  0
    6.0817   -5.1958   -3.6259 C   0  0  0  0  0  0  0  0  0  0  0  0
    5.0981   -5.7507   -2.8014 C   0  0  0  0  0  0  0  0  0  0  0  0
    4.4428   -4.9254   -1.9436 C   0  0  0  0  0  0  0  0  0  0  0  0
    4.8673   -3.6041   -1.8278 C   0  0  0  0  0  0  0  0  0  0  0  0
    6.6741   -0.6604   -1.6260 C   0  0  0  0  0  0  0  0  0  0  0  0
    9.6381   -2.5741   -7.0957 C   0  0  0  0  0  0  0  0  0  0  0  0
    2.3306   -1.8430    0.7027 H   0  0  0  0  0  0  0  0  0  0  0  0
    3.7442   -0.8923    1.1052 H   0  0  0  0  0  0  0  0  0  0  0  0
    2.7950   -1.8893   -1.5589 H   0  0  0  0  0  0  0  0  0  0  0  0
    4.4369   -1.5033   -0.8003 H   0  0  0  0  0  0  0  0  0  0  0  0
    2.8184    2.2835    0.1727 H   0  0  0  0  0  0  0  0  0  0  0  0
    5.9005    2.7412   -3.2378 H   0  0  0  0  0  0  0  0  0  0  0  0
    4.2814   -1.1892   -3.6427 H   0  0  0  0  0  0  0  0  0  0  0  0
    6.8689    1.3141   -4.9234 H   0  0  0  0  0  0  0  0  0  0  0  0
    5.7723   -1.4995   -5.4899 H   0  0  0  0  0  0  0  0  0  0  0  0
    8.9133   -4.0720   -5.2257 H   0  0  0  0  0  0  0  0  0  0  0  0
    7.3758   -4.0671   -6.0864 H   0  0  0  0  0  0  0  0  0  0  0  0
    9.6096   -1.1241   -4.2441 H   0  0  0  0  0  0  0  0  0  0  0  0
    8.9373   -0.0387   -2.9854 H   0  0  0  0  0  0  0  0  0  0  0  0
    8.4300    0.0459   -4.5605 H   0  0  0  0  0  0  0  0  0  0  0  0
    6.5409   -5.8524   -4.3572 H   0  0  0  0  0  0  0  0  0  0  0  0
    4.8335   -6.8031   -2.8226 H   0  0  0  0  0  0  0  0  0  0  0  0
    3.6247   -5.2724   -1.3109 H   0  0  0  0  0  0  0  0  0  0  0  0
    4.2210   -3.1473   -1.1221 H   0  0  0  0  0  0  0  0  0  0  0  0
    7.4257    0.0976   -1.8453 H   0  0  0  0  0  0  0  0  0  0  0  0
    6.5165   -0.8674   -0.5795 H   0  0  0  0  0  0  0  0  0  0  0  0
    5.8438   -0.0771   -1.8889 H   0  0  0  0  0  0  0  0  0  0  0  0
   10.1440   -1.6681   -7.4276 H   0  0  0  0  0  0  0  0  0  0  0  0
    9.3318   -3.1625   -7.9669 H   0  0  0  0  0  0  0  0  0  0  0  0
   10.3751   -3.1728   -6.5331 H   0  0  0  0  0  0  0  0  0  0  0  0
  1  2  2  0  0  0  0
  2  3  1  0  0  0  0
  2  7  1  0  0  0  0
  3  4  1  0  0  0  0
  3 30  1  0  0  0  0
  3 31  1  0  0  0  0
  4  5  1  0  0  0  0
  4 32  1  0  0  0  0
  4 33  1  0  0  0  0
  5  6  2  0  0  0  0
  5 11  1  0  0  0  0
  6  7  1  0  0  0  0
  6  8  1  0  0  0  0
  7 34  1  0  0  0  0
  8  9  2  0  0  0  0
  9 10  1  0  0  0  0
  9 35  1  0  0  0  0
 10 11  2  0  0  0  0
 10 12  1  0  0  0  0
 11 36  1  0  0  0  0
 12 13  2  0  0  0  0
 12 37  1  0  0  0  0
 13 14  1  0  0  0  0
 13 38  1  0  0  0  0
 14 15  2  0  0  0  0
 14 16  1  0  0  0  0
 16 17  1  0  0  0  0
 16 29  1  0  0  0  0
 17 18  1  0  0  0  0
 17 39  1  0  0  0  0
 17 40  1  0  0  0  0
 18 19  2  0  0  0  0
 18 23  1  0  0  0  0
 19 20  1  0  0  0  0
 19 21  1  0  0  0  0
 20 41  1  0  0  0  0
 20 42  1  0  0  0  0
 20 43  1  0  0  0  0
 21 22  1  0  0  0  0
 21 28  1  0  0  0  0
 22 23  2  0  0  0  0
 22 27  1  0  0  0  0
 23 24  1  0  0  0  0
 24 25  2  0  0  0  0
 24 44  1  0  0  0  0
 25 26  1  0  0  0  0
 25 45  1  0  0  0  0
 26 27  2  0  0  0  0
 26 46  1  0  0  0  0
 27 47  1  0  0  0  0
 28 48  1  0  0  0  0
 28 49  1  0  0  0  0
 28 50  1  0  0  0  0
 29 51  1  0  0  0  0
 29 52  1  0  0  0  0
 29 53  1  0  0  0  0
M  END
$$$$
