IMQ
 OpenBabel04121316133D

 38 40  0  0  1  0  0  0  0  0999 V2000
    1.8581   -0.5248   -0.9684 O   0  0  0  0  0  0  0  0  0  0  0  0
    2.8719   -0.1276   -0.0806 C   0  0  0  0  0  0  0  0  0  0  0  0
    2.8680   -1.0007    1.1714 C   0  0  1  0  0  0  0  0  0  0  0  0
    3.7937   -0.7194    1.6996 H   0  0  0  0  0  0  0  0  0  0  0  0
    1.7777   -0.9347    2.2011 N   0  0  0  0  0  0  0  0  0  0  0  0
    2.0357   -2.1885    2.9600 C   0  0  0  0  0  0  0  0  0  0  0  0
    2.4516   -3.2624    1.9401 C   0  0  1  0  0  0  0  0  0  0  0  0
    1.5703   -3.8370    1.6336 H   0  0  0  0  0  0  0  0  0  0  0  0
    2.9690   -2.4700    0.7402 C   0  0  2  0  0  0  0  0  0  0  0  0
    2.3193   -2.6855   -0.1141 H   0  0  0  0  0  0  0  0  0  0  0  0
    4.3051   -2.7905    0.3551 O   0  0  0  0  0  0  0  0  0  0  0  0
    3.4339   -4.1766    2.4154 O   0  0  0  0  0  0  0  0  0  0  0  0
    0.3657   -0.9134    1.6893 C   0  0  0  0  0  0  0  0  0  0  0  0
   -0.0784    0.4114    1.0590 C   0  0  0  0  0  0  0  0  0  0  0  0
    0.2677    1.6045    1.7320 C   0  0  0  0  0  0  0  0  0  0  0  0
    0.2373    2.8214    1.0708 C   0  0  0  0  0  0  0  0  0  0  0  0
   -0.1381    2.8725   -0.2678 C   0  0  0  0  0  0  0  0  0  0  0  0
   -0.5120    1.6938   -0.9370 C   0  0  0  0  0  0  0  0  0  0  0  0
   -0.5884    0.4592   -0.2648 C   0  0  0  0  0  0  0  0  0  0  0  0
   -0.8476   -0.6768   -0.9686 N   0  0  0  0  0  0  0  0  0  0  0  0
   -0.7110   -0.6351   -2.3210 C   0  0  0  0  0  0  0  0  0  0  0  0
   -0.5154    0.5214   -3.0393 C   0  0  0  0  0  0  0  0  0  0  0  0
   -0.5558    1.7230   -2.3415 C   0  0  0  0  0  0  0  0  0  0  0  0
    1.4608    0.2985   -1.2883 H   0  0  0  0  0  0  0  0  0  0  0  0
    2.8032    0.9379    0.1581 H   0  0  0  0  0  0  0  0  0  0  0  0
    3.7763   -0.2902   -0.6684 H   0  0  0  0  0  0  0  0  0  0  0  0
    1.1779   -2.5142    3.5597 H   0  0  0  0  0  0  0  0  0  0  0  0
    2.8521   -2.0224    3.6772 H   0  0  0  0  0  0  0  0  0  0  0  0
    4.3463   -3.7631    0.3469 H   0  0  0  0  0  0  0  0  0  0  0  0
    3.0702   -4.6217    3.1986 H   0  0  0  0  0  0  0  0  0  0  0  0
   -0.3007   -1.0586    2.5529 H   0  0  0  0  0  0  0  0  0  0  0  0
    0.1886   -1.7607    1.0202 H   0  0  0  0  0  0  0  0  0  0  0  0
    0.6884    1.5529    2.7362 H   0  0  0  0  0  0  0  0  0  0  0  0
    0.6210    3.7158    1.5580 H   0  0  0  0  0  0  0  0  0  0  0  0
   -0.0073    3.7999   -0.8130 H   0  0  0  0  0  0  0  0  0  0  0  0
   -0.6462   -1.6077   -2.8088 H   0  0  0  0  0  0  0  0  0  0  0  0
   -0.2666    0.4993   -4.0969 H   0  0  0  0  0  0  0  0  0  0  0  0
   -0.4540    2.6519   -2.8893 H   0  0  0  0  0  0  0  0  0  0  0  0
  1  2  1  0  0  0  0
  1 24  1  0  0  0  0
  2  3  1  0  0  0  0
  2 25  1  0  0  0  0
  2 26  1  0  0  0  0
  3  4  1  1  0  0  0
  3  5  1  0  0  0  0
  3  9  1  0  0  0  0
  5  6  1  0  0  0  0
  5 13  1  0  0  0  0
  6  7  1  0  0  0  0
  6 27  1  0  0  0  0
  6 28  1  0  0  0  0
  7  8  1  6  0  0  0
  7  9  1  0  0  0  0
  7 12  1  0  0  0  0
  9 10  1  6  0  0  0
  9 11  1  0  0  0  0
 11 29  1  0  0  0  0
 12 30  1  0  0  0  0
 13 14  1  0  0  0  0
 13 31  1  0  0  0  0
 13 32  1  0  0  0  0
 14 15  2  0  0  0  0
 14 19  1  0  0  0  0
 15 16  1  0  0  0  0
 15 33  1  0  0  0  0
 16 17  2  0  0  0  0
 16 34  1  0  0  0  0
 17 18  1  0  0  0  0
 17 35  1  0  0  0  0
 18 19  2  0  0  0  0
 18 23  1  0  0  0  0
 19 20  1  0  0  0  0
 20 21  2  0  0  0  0
 21 22  1  0  0  0  0
 21 36  1  0  0  0  0
 22 23  2  0  0  0  0
 22 37  1  0  0  0  0
 23 38  1  0  0  0  0
M  END
$$$$
