IMV
 OpenBabel04121316133D

 36 39  0  0  0  0  0  0  0  0999 V2000
    1.6527   -0.5053   -0.9761 O   0  0  0  0  0  0  0  0  0  0  0  0
    2.7536   -0.2283   -0.5370 C   0  0  0  0  0  0  0  0  0  0  0  0
    3.4650   -1.4290   -0.0755 C   0  0  0  0  0  0  0  0  0  0  0  0
    4.8100   -0.9172   -0.0217 C   0  0  0  0  0  0  0  0  0  0  0  0
    4.8799    0.4919   -0.0840 C   0  0  0  0  0  0  0  0  0  0  0  0
    3.5193    1.0128   -0.2782 N   0  0  0  0  0  0  0  0  0  0  0  0
    3.1312    2.6827   -0.2089 C   0  0  0  0  0  0  0  0  0  0  0  0
    1.5992    3.1836   -0.1819 C   0  0  0  0  0  0  0  0  0  0  0  0
    1.0961    4.5251   -0.0812 C   0  0  0  0  0  0  0  0  0  0  0  0
   -0.3583    4.8202   -0.0221 C   0  0  0  0  0  0  0  0  0  0  0  0
   -1.3080    3.7986   -0.0619 C   0  0  0  0  0  0  0  0  0  0  0  0
   -0.8142    2.5531   -0.1432 C   0  0  0  0  0  0  0  0  0  0  0  0
    0.5476    2.2653   -0.1338 C   0  0  0  0  0  0  0  0  0  0  0  0
    0.6416    0.9604    0.4974 C   0  0  0  0  0  0  0  0  0  0  0  0
   -0.1197    0.0511    0.3666 O   0  0  0  0  0  0  0  0  0  0  0  0
    1.5724    1.0569    1.4814 O   0  0  0  0  0  0  0  0  0  0  0  0
   -1.7608    1.5804   -0.0753 O   0  0  0  0  0  0  0  0  0  0  0  0
   -2.9553    2.2965    0.0113 C   0  0  0  0  0  0  0  0  0  0  0  0
   -2.6803    3.7386    0.0188 O   0  0  0  0  0  0  0  0  0  0  0  0
    6.1536    0.9980   -0.0045 C   0  0  0  0  0  0  0  0  0  0  0  0
    7.2375    0.0502    0.0428 C   0  0  0  0  0  0  0  0  0  0  0  0
    7.0630   -1.3552    0.0483 C   0  0  0  0  0  0  0  0  0  0  0  0
    5.8064   -1.8549    0.0502 C   0  0  0  0  0  0  0  0  0  0  0  0
    3.3256   -2.1910   -0.8485 H   0  0  0  0  0  0  0  0  0  0  0  0
    3.1283   -1.7777    0.9066 H   0  0  0  0  0  0  0  0  0  0  0  0
    3.6742    3.2148   -1.0030 H   0  0  0  0  0  0  0  0  0  0  0  0
    3.5842    3.0347    0.7430 H   0  0  0  0  0  0  0  0  0  0  0  0
    1.7737    5.3846    0.0047 H   0  0  0  0  0  0  0  0  0  0  0  0
   -0.6928    5.8555    0.0476 H   0  0  0  0  0  0  0  0  0  0  0  0
    2.4539    1.1231    1.0722 H   0  0  0  0  0  0  0  0  0  0  0  0
   -3.4742    1.9462    0.9184 H   0  0  0  0  0  0  0  0  0  0  0  0
   -3.5439    1.9556   -0.8527 H   0  0  0  0  0  0  0  0  0  0  0  0
    6.3857    2.0562   -0.0209 H   0  0  0  0  0  0  0  0  0  0  0  0
    8.2676    0.3943    0.0518 H   0  0  0  0  0  0  0  0  0  0  0  0
    7.8712   -2.0767    0.0388 H   0  0  0  0  0  0  0  0  0  0  0  0
    5.5332   -2.9082    0.0541 H   0  0  0  0  0  0  0  0  0  0  0  0
  1  2  2  0  0  0  0
  2  3  1  0  0  0  0
  2  6  1  0  0  0  0
  3  4  1  0  0  0  0
  3 24  1  0  0  0  0
  3 25  1  0  0  0  0
  4  5  2  0  0  0  0
  4 23  1  0  0  0  0
  5  6  1  0  0  0  0
  5 20  1  0  0  0  0
  6  7  1  0  0  0  0
  7  8  1  0  0  0  0
  7 26  1  0  0  0  0
  7 27  1  0  0  0  0
  8  9  2  0  0  0  0
  8 13  1  0  0  0  0
  9 10  1  0  0  0  0
  9 28  1  0  0  0  0
 10 11  2  0  0  0  0
 10 29  1  0  0  0  0
 11 12  1  0  0  0  0
 11 19  1  0  0  0  0
 12 13  2  0  0  0  0
 12 17  1  0  0  0  0
 13 14  1  0  0  0  0
 14 15  2  0  0  0  0
 14 16  1  0  0  0  0
 16 30  1  0  0  0  0
 17 18  1  0  0  0  0
 18 19  1  0  0  0  0
 18 31  1  0  0  0  0
 18 32  1  0  0  0  0
 20 21  2  0  0  0  0
 20 33  1  0  0  0  0
 21 22  1  0  0  0  0
 21 34  1  0  0  0  0
 22 23  2  0  0  0  0
 22 35  1  0  0  0  0
 23 36  1  0  0  0  0
M  END
$$$$
