IN2
 OpenBabel04121316133D

 33 32  0  0  0  0  0  0  0  0999 V2000
    0.9012    0.0432    0.0746 N   0  0  0  0  0  0  0  0  0  0  0  0
    2.3465    0.1075    0.0839 C   0  0  0  0  0  0  0  0  0  0  0  0
    2.7712    1.5607    0.3468 C   0  0  0  0  0  0  0  0  0  0  0  0
    4.2716    1.5814    0.3500 C   0  0  0  0  0  0  0  0  0  0  0  0
    5.0383    2.8522    0.5823 C   0  0  0  0  0  0  0  0  0  0  0  0
    6.5209    2.6236    0.5406 N   0  0  0  0  0  0  0  0  0  0  0  0
    7.2517    1.4129    0.3163 C   0  0  0  0  0  0  0  0  0  0  0  0
    8.4599    1.2379    0.2833 O   0  0  0  0  0  0  0  0  0  0  0  0
    6.6158    0.2419    0.0970 O   0  0  0  0  0  0  0  0  0  0  0  0
    7.2192    3.9166    0.7749 N   0  0  0  0  0  0  0  0  0  0  0  0
    8.5897    4.0649    0.8030 C   0  0  0  0  0  0  0  0  0  0  0  0
    9.4028    3.1689    0.6388 O   0  0  0  0  0  0  0  0  0  0  0  0
    9.1289    5.3102    1.0309 N   0  0  0  0  0  0  0  0  0  0  0  0
    8.4431    6.5609    1.2600 C   0  0  0  0  0  0  0  0  0  0  0  0
   10.5976    5.3604    1.0403 C   0  0  0  0  0  0  0  0  0  0  0  0
    0.6014   -0.9067   -0.1383 H   0  0  0  0  0  0  0  0  0  0  0  0
    0.5470    0.6347   -0.6755 H   0  0  0  0  0  0  0  0  0  0  0  0
    2.7456   -0.2496   -0.8760 H   0  0  0  0  0  0  0  0  0  0  0  0
    2.7474   -0.5636    0.8557 H   0  0  0  0  0  0  0  0  0  0  0  0
    2.3946    1.9023    1.3150 H   0  0  0  0  0  0  0  0  0  0  0  0
    2.3957    2.2218   -0.4395 H   0  0  0  0  0  0  0  0  0  0  0  0
    4.5665    1.2293   -0.6466 H   0  0  0  0  0  0  0  0  0  0  0  0
    4.5661    0.9007    1.1585 H   0  0  0  0  0  0  0  0  0  0  0  0
    4.7696    3.2783    1.5590 H   0  0  0  0  0  0  0  0  0  0  0  0
    4.7695    3.5962   -0.1806 H   0  0  0  0  0  0  0  0  0  0  0  0
    5.6805    0.0569    0.0810 H   0  0  0  0  0  0  0  0  0  0  0  0
    6.6191    4.7149    0.9251 H   0  0  0  0  0  0  0  0  0  0  0  0
    7.3598    6.4596    1.2414 H   0  0  0  0  0  0  0  0  0  0  0  0
    8.7468    7.2643    0.4795 H   0  0  0  0  0  0  0  0  0  0  0  0
    8.7468    6.9421    2.2390 H   0  0  0  0  0  0  0  0  0  0  0  0
   11.0792    4.3903    0.8628 H   0  0  0  0  0  0  0  0  0  0  0  0
   10.9386    5.7008    2.0198 H   0  0  0  0  0  0  0  0  0  0  0  0
   10.9388    6.0255    0.2449 H   0  0  0  0  0  0  0  0  0  0  0  0
  1  2  1  0  0  0  0
  1 16  1  0  0  0  0
  1 17  1  0  0  0  0
  2  3  1  0  0  0  0
  2 18  1  0  0  0  0
  2 19  1  0  0  0  0
  3  4  1  0  0  0  0
  3 20  1  0  0  0  0
  3 21  1  0  0  0  0
  4  5  1  0  0  0  0
  4 22  1  0  0  0  0
  4 23  1  0  0  0  0
  5  6  1  0  0  0  0
  5 24  1  0  0  0  0
  5 25  1  0  0  0  0
  6  7  1  0  0  0  0
  6 10  1  0  0  0  0
  7  8  2  0  0  0  0
  7  9  1  0  0  0  0
  9 26  1  0  0  0  0
 10 11  1  0  0  0  0
 10 27  1  0  0  0  0
 11 12  2  0  0  0  0
 11 13  1  0  0  0  0
 13 14  1  0  0  0  0
 13 15  1  0  0  0  0
 14 28  1  0  0  0  0
 14 29  1  0  0  0  0
 14 30  1  0  0  0  0
 15 31  1  0  0  0  0
 15 32  1  0  0  0  0
 15 33  1  0  0  0  0
M  END
$$$$
