INE
 OpenBabel04121316133D

 17 18  0  0  0  0  0  0  0  0999 V2000
    0.9727   -0.0879    0.0622 O   0  5  0  0  0  0  0  0  0  0  0  0
    2.2102   -0.1392    0.0498 N   0  3  0  0  0  0  0  0  0  0  0  0
    2.8810   -1.1767    0.1512 O   0  0  0  0  0  0  0  0  0  0  0  0
    2.9499    1.1127   -0.1130 C   0  0  0  0  0  0  0  0  0  0  0  0
    2.2764    2.3374    0.0400 C   0  0  0  0  0  0  0  0  0  0  0  0
    2.9524    3.5481   -0.1148 C   0  0  0  0  0  0  0  0  0  0  0  0
    4.3181    3.5729   -0.4250 C   0  0  0  0  0  0  0  0  0  0  0  0
    5.0126    2.3571   -0.5789 C   0  0  0  0  0  0  0  0  0  0  0  0
    4.3209    1.1585   -0.4191 C   0  0  0  0  0  0  0  0  0  0  0  0
    5.2526    0.1698   -0.6250 N   0  0  0  0  0  0  0  0  0  0  0  0
    5.1045   -0.8359   -0.5798 H   0  0  0  0  0  0  0  0  0  0  0  0
    6.4834    0.6292   -0.9099 N   0  0  0  0  0  0  0  0  0  0  0  0
    6.3324    1.9535   -0.8777 C   0  0  0  0  0  0  0  0  0  0  0  0
    7.7491    3.1487   -1.2027 Br  0  0  0  0  0  0  0  0  0  0  0  0
    1.2147    2.3604    0.2848 H   0  0  0  0  0  0  0  0  0  0  0  0
    2.4134    4.4863    0.0056 H   0  0  0  0  0  0  0  0  0  0  0  0
    4.8315    4.5240   -0.5442 H   0  0  0  0  0  0  0  0  0  0  0  0
  1  2  1  0  0  0  0
  2  3  2  0  0  0  0
  2  4  1  0  0  0  0
  4  5  2  0  0  0  0
  4  9  1  0  0  0  0
  5  6  1  0  0  0  0
  5 15  1  0  0  0  0
  6  7  2  0  0  0  0
  6 16  1  0  0  0  0
  7  8  1  0  0  0  0
  7 17  1  0  0  0  0
  8  9  2  0  0  0  0
  8 13  1  0  0  0  0
  9 10  1  0  0  0  0
 10 11  1  0  0  0  0
 10 12  1  0  0  0  0
 12 13  2  0  0  0  0
 13 14  1  0  0  0  0
M  CHG  2   1  -1   2   1
M  END
$$$$
