ING
 OpenBabel04121316133D

 27 27  0  0  1  0  0  0  0  0999 V2000
    3.4997    3.2710    0.6982 O   0  0  0  0  0  0  0  0  0  0  0  0
    2.5732    2.2982    0.5936 C   0  0  0  0  0  0  0  0  0  0  0  0
    1.4205    2.5951    0.3084 O   0  0  0  0  0  0  0  0  0  0  0  0
    3.0700    0.9003    1.0342 C   0  0  2  0  0  0  0  0  0  0  0  0
    2.6255    0.1971    0.3168 H   0  0  0  0  0  0  0  0  0  0  0  0
    2.6415    0.5057    2.4754 C   0  0  0  0  0  0  0  0  0  0  0  0
    1.1654    0.6257    2.7493 C   0  0  0  0  0  0  0  0  0  0  0  0
    0.3435   -0.5013    2.7891 C   0  0  0  0  0  0  0  0  0  0  0  0
   -1.0422   -0.3456    2.7646 C   0  0  0  0  0  0  0  0  0  0  0  0
   -1.6089    0.9290    2.7926 C   0  0  0  0  0  0  0  0  0  0  0  0
   -0.7945    2.0486    2.9106 C   0  0  0  0  0  0  0  0  0  0  0  0
    0.5863    1.8949    2.8902 C   0  0  0  0  0  0  0  0  0  0  0  0
    4.5261    0.7549    0.8720 N   0  0  0  0  0  0  0  0  0  0  0  0
    5.4003    1.4373    1.6650 C   0  0  0  0  0  0  0  0  0  0  0  0
    5.1000    2.2118    2.5559 O   0  0  0  0  0  0  0  0  0  0  0  0
    6.6973    1.1752    1.4045 N   0  0  0  0  0  0  0  0  0  0  0  0
    3.0444    4.0540    1.0644 H   0  0  0  0  0  0  0  0  0  0  0  0
    3.1594    1.0981    3.2357 H   0  0  0  0  0  0  0  0  0  0  0  0
    2.9641   -0.5305    2.6542 H   0  0  0  0  0  0  0  0  0  0  0  0
    0.7711   -1.5005    2.8096 H   0  0  0  0  0  0  0  0  0  0  0  0
   -1.6833   -1.2196    2.6994 H   0  0  0  0  0  0  0  0  0  0  0  0
   -2.6852    1.0515    2.7237 H   0  0  0  0  0  0  0  0  0  0  0  0
   -1.2222    3.0451    2.9687 H   0  0  0  0  0  0  0  0  0  0  0  0
    1.2073    2.7884    2.8895 H   0  0  0  0  0  0  0  0  0  0  0  0
    4.8744    0.1210    0.1711 H   0  0  0  0  0  0  0  0  0  0  0  0
    7.0251    0.5784    0.6668 H   0  0  0  0  0  0  0  0  0  0  0  0
    7.3618    1.7065    1.9509 H   0  0  0  0  0  0  0  0  0  0  0  0
  1  2  1  0  0  0  0
  1 17  1  0  0  0  0
  2  3  2  0  0  0  0
  4  6  1  0  0  0  0
  4 13  1  0  0  0  0
  4  5  1  6  0  0  0
  4  2  1  0  0  0  0
  6  7  1  0  0  0  0
  6 18  1  0  0  0  0
  6 19  1  0  0  0  0
  7  8  2  0  0  0  0
  7 12  1  0  0  0  0
  8  9  1  0  0  0  0
  8 20  1  0  0  0  0
  9 10  2  0  0  0  0
  9 21  1  0  0  0  0
 10 11  1  0  0  0  0
 10 22  1  0  0  0  0
 11 12  2  0  0  0  0
 11 23  1  0  0  0  0
 12 24  1  0  0  0  0
 13 14  1  0  0  0  0
 13 25  1  0  0  0  0
 14 15  2  0  0  0  0
 14 16  1  0  0  0  0
 16 26  1  0  0  0  0
 16 27  1  0  0  0  0
M  END
$$$$
