INN
 OpenBabel04121316133D

 66 65  0  0  1  0  0  0  0  0999 V2000
    9.4123    8.8571    0.3261 N   0  0  0  0  0  0  0  0  0  0  0  0
    8.4340    7.7793    0.4817 C   0  0  0  0  0  0  0  0  0  0  0  0
    8.3782    7.3009    1.9347 C   0  0  0  0  0  0  0  0  0  0  0  0
    7.3928    6.2695    2.1506 N   0  0  0  0  0  0  0  0  0  0  0  0
    7.2419    5.6656    3.3790 C   0  0  0  0  0  0  0  0  0  0  0  0
    7.8858    6.0293    4.3635 O   0  0  0  0  0  0  0  0  0  0  0  0
    6.1827    4.5265    3.4494 C   0  0  1  0  0  0  0  0  0  0  0  0
    5.2126    4.9316    3.1348 H   0  0  0  0  0  0  0  0  0  0  0  0
    6.5511    3.4315    2.5576 N   0  0  0  0  0  0  0  0  0  0  0  0
    6.4722    3.6162    1.2067 C   0  0  0  0  0  0  0  0  0  0  0  0
    5.8546    4.5924    0.7736 O   0  0  0  0  0  0  0  0  0  0  0  0
    7.2170    2.5897    0.3174 C   0  0  2  0  0  0  0  0  0  0  0  0
    6.8019    1.6110    0.6065 H   0  0  0  0  0  0  0  0  0  0  0  0
    8.7717    2.5102    0.3689 C   0  0  0  0  0  0  0  0  0  0  0  0
    9.2360    1.3477   -0.5418 C   0  0  0  0  0  0  0  0  0  0  0  0
    9.4649    3.7837   -0.1361 C   0  0  0  0  0  0  0  0  0  0  0  0
    9.2681    2.2625    1.7926 C   0  0  0  0  0  0  0  0  0  0  0  0
    6.7768    2.8134   -1.0415 N   0  0  0  0  0  0  0  0  0  0  0  0
    6.9389    4.0012   -1.7092 C   0  0  0  0  0  0  0  0  0  0  0  0
    7.4002    5.0302   -1.2062 O   0  0  0  0  0  0  0  0  0  0  0  0
    6.4318    4.0117   -3.1208 C   0  0  1  0  0  0  0  0  0  0  0  0
    6.8718    3.1718   -3.6732 H   0  0  0  0  0  0  0  0  0  0  0  0
    4.9189    3.8925   -2.9885 C   0  0  0  0  0  0  0  0  0  0  0  0
    4.3971    2.5616   -2.5238 C   0  0  0  0  0  0  0  0  0  0  0  0
    5.0715    1.5496   -2.3997 O   0  0  0  0  0  0  0  0  0  0  0  0
    3.0417    2.5608   -2.3050 N   0  0  0  0  0  0  0  0  0  0  0  0
    2.5272    1.2786   -2.0059 O   0  0  0  0  0  0  0  0  0  0  0  0
    6.9180    5.3488   -3.7414 C   0  0  0  0  0  0  0  0  0  0  0  0
    6.4794    5.6353   -5.1789 C   0  0  0  0  0  0  0  0  0  0  0  0
    4.9719    5.7866   -5.3508 C   0  0  0  0  0  0  0  0  0  0  0  0
    7.0907    6.9550   -5.6466 C   0  0  0  0  0  0  0  0  0  0  0  0
    6.0947    4.0132    4.8760 C   0  0  0  0  0  0  0  0  0  0  0  0
    9.4618    9.1168   -0.6572 H   0  0  0  0  0  0  0  0  0  0  0  0
   10.3346    8.5005    0.5754 H   0  0  0  0  0  0  0  0  0  0  0  0
    8.7115    6.9525   -0.1790 H   0  0  0  0  0  0  0  0  0  0  0  0
    7.4465    8.1304    0.1623 H   0  0  0  0  0  0  0  0  0  0  0  0
    8.1334    8.1323    2.6047 H   0  0  0  0  0  0  0  0  0  0  0  0
    9.3516    6.8990    2.2412 H   0  0  0  0  0  0  0  0  0  0  0  0
    6.8655    5.9144    1.3483 H   0  0  0  0  0  0  0  0  0  0  0  0
    6.8048    2.5304    2.9410 H   0  0  0  0  0  0  0  0  0  0  0  0
    8.8930    1.4785   -1.5765 H   0  0  0  0  0  0  0  0  0  0  0  0
    8.8518    0.3847   -0.1899 H   0  0  0  0  0  0  0  0  0  0  0  0
   10.3284    1.2927   -0.5768 H   0  0  0  0  0  0  0  0  0  0  0  0
    9.3479    3.8967   -1.2189 H   0  0  0  0  0  0  0  0  0  0  0  0
   10.5445    3.7716    0.0179 H   0  0  0  0  0  0  0  0  0  0  0  0
    9.0685    4.6601    0.3834 H   0  0  0  0  0  0  0  0  0  0  0  0
    8.8645    1.3307    2.1985 H   0  0  0  0  0  0  0  0  0  0  0  0
    8.9902    3.0864    2.4552 H   0  0  0  0  0  0  0  0  0  0  0  0
   10.3606    2.2080    1.8155 H   0  0  0  0  0  0  0  0  0  0  0  0
    6.3582    2.0145   -1.5165 H   0  0  0  0  0  0  0  0  0  0  0  0
    4.4657    3.8984   -3.9587 H   0  0  0  0  0  0  0  0  0  0  0  0
    4.5136    4.7155   -2.3876 H   0  0  0  0  0  0  0  0  0  0  0  0
    2.4149    3.2254   -2.7480 H   0  0  0  0  0  0  0  0  0  0  0  0
    3.3519    0.7604   -1.8661 H   0  0  0  0  0  0  0  0  0  0  0  0
    8.0225    5.3576   -3.7042 H   0  0  0  0  0  0  0  0  0  0  0  0
    6.6147    6.1934   -3.1036 H   0  0  0  0  0  0  0  0  0  0  0  0
    6.8461    4.8215   -5.8143 H   0  0  0  0  0  0  0  0  0  0  0  0
    4.5485    6.4179   -4.5599 H   0  0  0  0  0  0  0  0  0  0  0  0
    4.4619    4.8318   -5.3816 H   0  0  0  0  0  0  0  0  0  0  0  0
    4.7155    6.2059   -6.3229 H   0  0  0  0  0  0  0  0  0  0  0  0
    6.7440    7.7848   -5.0185 H   0  0  0  0  0  0  0  0  0  0  0  0
    6.7758    7.1601   -6.6748 H   0  0  0  0  0  0  0  0  0  0  0  0
    8.1825    6.9329   -5.6195 H   0  0  0  0  0  0  0  0  0  0  0  0
    5.8126    4.8226    5.5559 H   0  0  0  0  0  0  0  0  0  0  0  0
    7.0657    3.6214    5.2017 H   0  0  0  0  0  0  0  0  0  0  0  0
    5.3616    3.2064    4.9639 H   0  0  0  0  0  0  0  0  0  0  0  0
  1  2  1  0  0  0  0
  1 33  1  0  0  0  0
  1 34  1  0  0  0  0
  2  3  1  0  0  0  0
  2 35  1  0  0  0  0
  2 36  1  0  0  0  0
  3  4  1  0  0  0  0
  3 37  1  0  0  0  0
  3 38  1  0  0  0  0
  4  5  1  0  0  0  0
  4 39  1  0  0  0  0
  5  6  2  0  0  0  0
  5  7  1  0  0  0  0
  7  8  1  6  0  0  0
  7  9  1  0  0  0  0
  7 32  1  0  0  0  0
  9 10  1  0  0  0  0
  9 40  1  0  0  0  0
 10 11  2  0  0  0  0
 12 14  1  0  0  0  0
 12 18  1  0  0  0  0
 12 13  1  1  0  0  0
 12 10  1  0  0  0  0
 14 15  1  0  0  0  0
 14 16  1  0  0  0  0
 14 17  1  0  0  0  0
 15 41  1  0  0  0  0
 15 42  1  0  0  0  0
 15 43  1  0  0  0  0
 16 44  1  0  0  0  0
 16 45  1  0  0  0  0
 16 46  1  0  0  0  0
 17 47  1  0  0  0  0
 17 48  1  0  0  0  0
 17 49  1  0  0  0  0
 18 19  1  0  0  0  0
 18 50  1  0  0  0  0
 19 20  2  0  0  0  0
 19 21  1  0  0  0  0
 21 22  1  6  0  0  0
 21 23  1  0  0  0  0
 21 28  1  0  0  0  0
 23 24  1  0  0  0  0
 23 51  1  0  0  0  0
 23 52  1  0  0  0  0
 24 25  2  0  0  0  0
 24 26  1  0  0  0  0
 26 27  1  0  0  0  0
 26 53  1  0  0  0  0
 27 54  1  0  0  0  0
 28 29  1  0  0  0  0
 28 55  1  0  0  0  0
 28 56  1  0  0  0  0
 29 30  1  0  0  0  0
 29 31  1  0  0  0  0
 29 57  1  0  0  0  0
 30 58  1  0  0  0  0
 30 59  1  0  0  0  0
 30 60  1  0  0  0  0
 31 61  1  0  0  0  0
 31 62  1  0  0  0  0
 31 63  1  0  0  0  0
 32 64  1  0  0  0  0
 32 65  1  0  0  0  0
 32 66  1  0  0  0  0
M  END
$$$$
