INS
 OpenBabel04121316133D

 24 24  0  0  1  0  0  0  0  0999 V2000
    2.9175    0.3596    1.2492 O   0  0  0  0  0  0  0  0  0  0  0  0
    2.4772    0.0308   -0.0700 C   0  0  2  0  0  0  0  0  0  0  0  0
    1.3812    0.0300   -0.0340 H   0  0  0  0  0  0  0  0  0  0  0  0
    2.9794   -1.3715   -0.4423 C   0  0  2  0  0  0  0  0  0  0  0  0
    2.6008   -2.1045    0.2791 H   0  0  0  0  0  0  0  0  0  0  0  0
    4.4076   -1.4292   -0.2995 O   0  0  0  0  0  0  0  0  0  0  0  0
    2.5041   -1.7455   -1.8605 C   0  0  2  0  0  0  0  0  0  0  0  0
    1.4077   -1.7807   -1.8790 H   0  0  0  0  0  0  0  0  0  0  0  0
    2.9495   -3.0508   -2.2278 O   0  0  0  0  0  0  0  0  0  0  0  0
    2.9870   -0.7137   -2.8970 C   0  0  2  0  0  0  0  0  0  0  0  0
    4.0790   -0.7456   -2.9923 H   0  0  0  0  0  0  0  0  0  0  0  0
    2.5185    0.6975   -2.5120 C   0  0  1  0  0  0  0  0  0  0  0  0
    1.4265    0.7597   -2.5977 H   0  0  0  0  0  0  0  0  0  0  0  0
    2.9514    1.0877   -1.0876 C   0  0  1  0  0  0  0  0  0  0  0  0
    4.0396    1.2027   -1.0425 H   0  0  0  0  0  0  0  0  0  0  0  0
    2.4215    2.3742   -0.7370 O   0  0  0  0  0  0  0  0  0  0  0  0
    3.0329    1.6307   -3.4670 O   0  0  0  0  0  0  0  0  0  0  0  0
    2.4895   -0.9822   -4.2194 O   0  0  0  0  0  0  0  0  0  0  0  0
    3.8894    0.2729    1.2570 H   0  0  0  0  0  0  0  0  0  0  0  0
    4.8500   -0.9282   -1.0063 H   0  0  0  0  0  0  0  0  0  0  0  0
    2.7549   -3.6596   -1.4942 H   0  0  0  0  0  0  0  0  0  0  0  0
    1.4566    2.3416   -0.7744 H   0  0  0  0  0  0  0  0  0  0  0  0
    2.8532    1.2450   -4.3476 H   0  0  0  0  0  0  0  0  0  0  0  0
    1.5828   -1.3230   -4.1511 H   0  0  0  0  0  0  0  0  0  0  0  0
  1 19  1  0  0  0  0
  2  4  1  0  0  0  0
  2 14  1  0  0  0  0
  2  3  1  6  0  0  0
  2  1  1  0  0  0  0
  4  7  1  0  0  0  0
  4  6  1  0  0  0  0
  4  5  1  1  0  0  0
  6 20  1  0  0  0  0
  7  8  1  6  0  0  0
  7  9  1  0  0  0  0
  7 10  1  0  0  0  0
  9 21  1  0  0  0  0
 10 12  1  0  0  0  0
 10 18  1  0  0  0  0
 10 11  1  6  0  0  0
 12 13  1  6  0  0  0
 12 14  1  0  0  0  0
 12 17  1  0  0  0  0
 14 16  1  0  0  0  0
 14 15  1  1  0  0  0
 16 22  1  0  0  0  0
 17 23  1  0  0  0  0
 18 24  1  0  0  0  0
M  END
$$$$
