INZ
 OpenBabel04121316133D

 72 73  0  0  1  0  0  0  0  0999 V2000
    9.1916   -1.7356   -4.1943 C   0  0  0  0  0  0  0  0  0  0  0  0
    9.9216   -0.8830   -3.1775 C   0  0  0  0  0  0  0  0  0  0  0  0
   10.4011   -1.7491   -2.0274 C   0  0  0  0  0  0  0  0  0  0  0  0
   11.0845   -0.9017   -0.9737 C   0  0  0  0  0  0  0  0  0  0  0  0
   11.4438   -1.7890    0.1985 C   0  0  0  0  0  0  0  0  0  0  0  0
   11.8116   -1.0048    1.3547 N   0  0  0  0  0  0  0  0  0  0  0  0
   12.6324   -1.6725    2.2628 C   0  0  0  0  0  0  0  0  0  0  0  0
   12.6814   -2.8959    2.2970 O   0  0  0  0  0  0  0  0  0  0  0  0
   13.4679   -0.7370    3.1416 C   0  0  2  0  0  0  0  0  0  0  0  0
   13.1087    0.2951    3.0012 H   0  0  0  0  0  0  0  0  0  0  0  0
   14.9954   -0.7032    2.9715 C   0  0  0  0  0  0  0  0  0  0  0  0
   15.4640   -0.3354    1.5944 C   0  0  0  0  0  0  0  0  0  0  0  0
   14.6730   -0.5570    0.4773 C   0  0  0  0  0  0  0  0  0  0  0  0
   15.0962   -0.5430   -0.8168 C   0  0  0  0  0  0  0  0  0  0  0  0
   16.3379   -0.0500   -1.0282 C   0  0  0  0  0  0  0  0  0  0  0  0
   17.0429    0.5167    0.0346 C   0  0  0  0  0  0  0  0  0  0  0  0
   16.7079    0.1984    1.3521 C   0  0  0  0  0  0  0  0  0  0  0  0
   16.7612   -0.2336   -2.2906 O   0  0  0  0  0  0  0  0  0  0  0  0
   18.1372   -0.0676   -2.5232 C   0  0  0  0  0  0  0  0  0  0  0  0
   19.1629   -1.0297   -1.8782 C   0  0  0  0  0  0  0  0  0  0  0  0
   20.0025   -1.6140   -2.5553 O   0  0  0  0  0  0  0  0  0  0  0  0
   19.2759   -1.1371   -0.5407 O   0  0  0  0  0  0  0  0  0  0  0  0
   18.2521   -0.1807   -4.0521 C   0  0  0  0  0  0  0  0  0  0  0  0
   17.3521   -0.5270   -4.8078 O   0  0  0  0  0  0  0  0  0  0  0  0
   19.4515    0.2239   -4.5458 O   0  0  0  0  0  0  0  0  0  0  0  0
   13.0994   -1.0740    4.4836 N   0  0  0  0  0  0  0  0  0  0  0  0
   13.4215   -2.2347    5.1019 C   0  0  0  0  0  0  0  0  0  0  0  0
   14.0253   -3.1802    4.6296 O   0  0  0  0  0  0  0  0  0  0  0  0
   13.0959   -2.1948    6.4134 N   0  0  0  0  0  0  0  0  0  0  0  0
   12.4262   -1.1244    7.1994 C   0  0  2  0  0  0  0  0  0  0  0  0
   11.3510   -1.1978    6.9866 H   0  0  0  0  0  0  0  0  0  0  0  0
   12.8220    0.3885    6.9226 C   0  0  0  0  0  0  0  0  0  0  0  0
   13.4185    1.1491    7.6839 O   0  0  0  0  0  0  0  0  0  0  0  0
   12.4830    0.9183    5.7202 O   0  0  0  0  0  0  0  0  0  0  0  0
   12.6603   -1.4551    8.7071 C   0  0  0  0  0  0  0  0  0  0  0  0
   14.1365   -1.5531    9.0709 C   0  0  0  0  0  0  0  0  0  0  0  0
   14.8896   -0.3930    9.2870 C   0  0  0  0  0  0  0  0  0  0  0  0
   16.2770   -0.4097    9.2196 C   0  0  0  0  0  0  0  0  0  0  0  0
   16.9375   -1.6262    9.1992 C   0  0  0  0  0  0  0  0  0  0  0  0
   16.2006   -2.8095    9.2203 C   0  0  0  0  0  0  0  0  0  0  0  0
   14.8104   -2.7772    9.0788 C   0  0  0  0  0  0  0  0  0  0  0  0
    8.8362   -1.1166   -5.0210 H   0  0  0  0  0  0  0  0  0  0  0  0
    8.3294   -2.2295   -3.7341 H   0  0  0  0  0  0  0  0  0  0  0  0
    9.8545   -2.5086   -4.5959 H   0  0  0  0  0  0  0  0  0  0  0  0
    9.2508   -0.1029   -2.7991 H   0  0  0  0  0  0  0  0  0  0  0  0
   10.7736   -0.3818   -3.6509 H   0  0  0  0  0  0  0  0  0  0  0  0
   11.0896   -2.5220   -2.3931 H   0  0  0  0  0  0  0  0  0  0  0  0
    9.5487   -2.2663   -1.5702 H   0  0  0  0  0  0  0  0  0  0  0  0
   10.4272   -0.0929   -0.6387 H   0  0  0  0  0  0  0  0  0  0  0  0
   11.9789   -0.4222   -1.3963 H   0  0  0  0  0  0  0  0  0  0  0  0
   12.2754   -2.4501   -0.0963 H   0  0  0  0  0  0  0  0  0  0  0  0
   10.6166   -2.4216    0.5205 H   0  0  0  0  0  0  0  0  0  0  0  0
   11.9866   -0.0154    1.1967 H   0  0  0  0  0  0  0  0  0  0  0  0
   15.4434   -1.6619    3.2535 H   0  0  0  0  0  0  0  0  0  0  0  0
   15.4018    0.0341    3.6864 H   0  0  0  0  0  0  0  0  0  0  0  0
   13.6544   -0.7810    0.5252 H   0  0  0  0  0  0  0  0  0  0  0  0
   14.4427   -0.9071   -1.6054 H   0  0  0  0  0  0  0  0  0  0  0  0
   17.9487    1.0829   -0.1392 H   0  0  0  0  0  0  0  0  0  0  0  0
   17.4138    0.3649    2.1627 H   0  0  0  0  0  0  0  0  0  0  0  0
   18.3843    0.9788   -2.3017 H   0  0  0  0  0  0  0  0  0  0  0  0
   18.6002   -0.8323    0.0838 H   0  0  0  0  0  0  0  0  0  0  0  0
   20.1602    0.3165   -3.8779 H   0  0  0  0  0  0  0  0  0  0  0  0
   13.4631   -0.3562    5.0758 H   0  0  0  0  0  0  0  0  0  0  0  0
   13.2138   -3.1134    6.8296 H   0  0  0  0  0  0  0  0  0  0  0  0
   11.8951    0.4079    5.1219 H   0  0  0  0  0  0  0  0  0  0  0  0
   12.1805   -2.4153    8.9458 H   0  0  0  0  0  0  0  0  0  0  0  0
   12.1747   -0.7015    9.3346 H   0  0  0  0  0  0  0  0  0  0  0  0
   14.4068    0.5670    9.4415 H   0  0  0  0  0  0  0  0  0  0  0  0
   16.8232    0.5293    9.1858 H   0  0  0  0  0  0  0  0  0  0  0  0
   18.0223   -1.6481    9.1888 H   0  0  0  0  0  0  0  0  0  0  0  0
   16.7148   -3.7609    9.3141 H   0  0  0  0  0  0  0  0  0  0  0  0
   14.2707   -3.7128    8.9575 H   0  0  0  0  0  0  0  0  0  0  0  0
  1  2  1  0  0  0  0
  1 42  1  0  0  0  0
  1 43  1  0  0  0  0
  1 44  1  0  0  0  0
  2  3  1  0  0  0  0
  2 45  1  0  0  0  0
  2 46  1  0  0  0  0
  3  4  1  0  0  0  0
  3 47  1  0  0  0  0
  3 48  1  0  0  0  0
  4  5  1  0  0  0  0
  4 49  1  0  0  0  0
  4 50  1  0  0  0  0
  5  6  1  0  0  0  0
  5 51  1  0  0  0  0
  5 52  1  0  0  0  0
  6  7  1  0  0  0  0
  6 53  1  0  0  0  0
  7  8  2  0  0  0  0
  9 11  1  0  0  0  0
  9 26  1  0  0  0  0
  9 10  1  6  0  0  0
  9  7  1  0  0  0  0
 11 12  1  0  0  0  0
 11 54  1  0  0  0  0
 11 55  1  0  0  0  0
 12 13  2  0  0  0  0
 12 17  1  0  0  0  0
 13 14  1  0  0  0  0
 13 56  1  0  0  0  0
 14 15  2  0  0  0  0
 14 57  1  0  0  0  0
 15 16  1  0  0  0  0
 15 18  1  0  0  0  0
 16 17  2  0  0  0  0
 16 58  1  0  0  0  0
 17 59  1  0  0  0  0
 18 19  1  0  0  0  0
 19 20  1  0  0  0  0
 19 23  1  0  0  0  0
 19 60  1  0  0  0  0
 20 21  2  0  0  0  0
 20 22  1  0  0  0  0
 22 61  1  0  0  0  0
 23 24  2  0  0  0  0
 23 25  1  0  0  0  0
 25 62  1  0  0  0  0
 26 27  1  0  0  0  0
 26 63  1  0  0  0  0
 27 28  2  0  0  0  0
 27 29  1  0  0  0  0
 29 64  1  0  0  0  0
 30 32  1  0  0  0  0
 30 35  1  0  0  0  0
 30 31  1  6  0  0  0
 30 29  1  0  0  0  0
 32 33  2  0  0  0  0
 32 34  1  0  0  0  0
 34 65  1  0  0  0  0
 35 36  1  0  0  0  0
 35 66  1  0  0  0  0
 35 67  1  0  0  0  0
 36 37  2  0  0  0  0
 36 41  1  0  0  0  0
 37 38  1  0  0  0  0
 37 68  1  0  0  0  0
 38 39  2  0  0  0  0
 38 69  1  0  0  0  0
 39 40  1  0  0  0  0
 39 70  1  0  0  0  0
 40 41  2  0  0  0  0
 40 71  1  0  0  0  0
 41 72  1  0  0  0  0
M  END
$$$$
