IOG
 OpenBabel04121316133D

 78 82  0  0  1  0  0  0  0  0999 V2000
    0.9262    0.0389    0.1021 C   0  0  0  0  0  0  0  0  0  0  0  0
    2.4381    0.2200    0.1957 C   0  0  1  0  0  0  0  0  0  0  0  0
    2.9068   -0.1616   -0.7104 H   0  0  0  0  0  0  0  0  0  0  0  0
    2.8666    1.6147    0.3516 N   0  0  0  0  0  0  0  0  0  0  0  0
    2.2146    2.6865   -0.2421 C   0  0  0  0  0  0  0  0  0  0  0  0
    1.0317    2.6836   -0.5246 O   0  0  0  0  0  0  0  0  0  0  0  0
    3.1068    3.8729   -0.5573 C   0  0  0  0  0  0  0  0  0  0  0  0
    2.7415    4.5699   -1.8498 C   0  0  0  0  0  0  0  0  0  0  0  0
    2.2628    4.0682   -3.0712 C   0  0  0  0  0  0  0  0  0  0  0  0
    2.0216    5.1801   -3.8649 N   0  0  0  0  0  0  0  0  0  0  0  0
    1.6248    5.1500   -4.7919 H   0  0  0  0  0  0  0  0  0  0  0  0
    2.4503    6.3390   -3.2605 C   0  0  0  0  0  0  0  0  0  0  0  0
    2.8900    5.9826   -1.9938 C   0  0  0  0  0  0  0  0  0  0  0  0
    3.3811    6.9758   -1.1323 C   0  0  0  0  0  0  0  0  0  0  0  0
    3.4321    8.2919   -1.5706 C   0  0  0  0  0  0  0  0  0  0  0  0
    2.9761    8.6384   -2.8439 C   0  0  0  0  0  0  0  0  0  0  0  0
    2.4815    7.6635   -3.7189 C   0  0  0  0  0  0  0  0  0  0  0  0
    2.9539    9.9203   -3.3328 O   0  0  0  0  0  0  0  0  0  0  0  0
    3.4819   10.8866   -2.4261 C   0  0  0  0  0  0  0  0  0  0  0  0
    3.4428   12.2624   -3.0742 C   0  0  0  0  0  0  0  0  0  0  0  0
    4.1560   13.2696   -2.2572 N   0  0  0  0  0  0  0  0  0  0  0  0
    5.5998   12.9659   -2.1743 C   0  0  0  0  0  0  0  0  0  0  0  0
    6.2703   12.9990   -3.5481 C   0  0  0  0  0  0  0  0  0  0  0  0
    6.0739   14.3756   -4.1734 C   0  0  0  0  0  0  0  0  0  0  0  0
    4.5978   14.7779   -4.1987 C   0  0  0  0  0  0  0  0  0  0  0  0
    3.9699   14.6231   -2.8109 C   0  0  0  0  0  0  0  0  0  0  0  0
    1.9709    2.6825   -3.5231 C   0  0  0  0  0  0  0  0  0  0  0  0
    2.5897    1.5873   -2.9097 C   0  0  0  0  0  0  0  0  0  0  0  0
    2.2281    0.2642   -3.1783 C   0  0  0  0  0  0  0  0  0  0  0  0
    1.3002   -0.0120   -4.1550 C   0  0  0  0  0  0  0  0  0  0  0  0
    0.7307    1.0470   -4.8507 C   0  0  0  0  0  0  0  0  0  0  0  0
    1.0601    2.3817   -4.5415 C   0  0  0  0  0  0  0  0  0  0  0  0
    2.9989   -0.6590    1.2988 C   0  0  0  0  0  0  0  0  0  0  0  0
    4.5282   -0.7125    1.2544 C   0  0  0  0  0  0  0  0  0  0  0  0
    5.0218   -1.5388    2.4021 C   0  0  0  0  0  0  0  0  0  0  0  0
    5.7696   -0.9656    3.4356 C   0  0  0  0  0  0  0  0  0  0  0  0
    6.2594   -1.7715    4.4607 C   0  0  0  0  0  0  0  0  0  0  0  0
    5.8940   -3.1144    4.5060 C   0  0  0  0  0  0  0  0  0  0  0  0
    5.0532   -3.6628    3.5492 C   0  0  0  0  0  0  0  0  0  0  0  0
    4.6760   -2.8941    2.4598 C   0  0  0  0  0  0  0  0  0  0  0  0
    6.3540   -3.9453    5.4824 O   0  0  0  0  0  0  0  0  0  0  0  0
    0.5127    0.5130   -0.7926 H   0  0  0  0  0  0  0  0  0  0  0  0
    0.4484    0.4836    0.9794 H   0  0  0  0  0  0  0  0  0  0  0  0
    0.6400   -1.0137    0.0324 H   0  0  0  0  0  0  0  0  0  0  0  0
    3.7087    1.8087    0.8736 H   0  0  0  0  0  0  0  0  0  0  0  0
    4.1711    3.6082   -0.6013 H   0  0  0  0  0  0  0  0  0  0  0  0
    2.9689    4.5501    0.2928 H   0  0  0  0  0  0  0  0  0  0  0  0
    3.7301    6.7319   -0.1346 H   0  0  0  0  0  0  0  0  0  0  0  0
    3.8368    9.0173   -0.8726 H   0  0  0  0  0  0  0  0  0  0  0  0
    2.1419    7.9383   -4.7125 H   0  0  0  0  0  0  0  0  0  0  0  0
    4.5152   10.5992   -2.2086 H   0  0  0  0  0  0  0  0  0  0  0  0
    2.8961   10.9191   -1.4996 H   0  0  0  0  0  0  0  0  0  0  0  0
    2.3953   12.5506   -3.2237 H   0  0  0  0  0  0  0  0  0  0  0  0
    3.8445   12.1692   -4.0882 H   0  0  0  0  0  0  0  0  0  0  0  0
    5.7809   12.0006   -1.6928 H   0  0  0  0  0  0  0  0  0  0  0  0
    6.0852   13.6859   -1.5029 H   0  0  0  0  0  0  0  0  0  0  0  0
    5.8603   12.2288   -4.2128 H   0  0  0  0  0  0  0  0  0  0  0  0
    7.3330   12.7601   -3.4523 H   0  0  0  0  0  0  0  0  0  0  0  0
    6.4866   14.3881   -5.1854 H   0  0  0  0  0  0  0  0  0  0  0  0
    6.6301   15.1069   -3.5752 H   0  0  0  0  0  0  0  0  0  0  0  0
    4.0537   14.1612   -4.9243 H   0  0  0  0  0  0  0  0  0  0  0  0
    4.4976   15.8122   -4.5432 H   0  0  0  0  0  0  0  0  0  0  0  0
    2.9034   14.8794   -2.8426 H   0  0  0  0  0  0  0  0  0  0  0  0
    4.4227   15.3540   -2.1262 H   0  0  0  0  0  0  0  0  0  0  0  0
    3.3525    1.7403   -2.1596 H   0  0  0  0  0  0  0  0  0  0  0  0
    2.6557   -0.5561   -2.6141 H   0  0  0  0  0  0  0  0  0  0  0  0
    1.0552   -1.0473   -4.3698 H   0  0  0  0  0  0  0  0  0  0  0  0
    0.0126    0.8299   -5.6341 H   0  0  0  0  0  0  0  0  0  0  0  0
    0.5778    3.1683   -5.1112 H   0  0  0  0  0  0  0  0  0  0  0  0
    2.6000   -1.6749    1.1658 H   0  0  0  0  0  0  0  0  0  0  0  0
    2.6492   -0.3016    2.2728 H   0  0  0  0  0  0  0  0  0  0  0  0
    4.9690    0.2885    1.3029 H   0  0  0  0  0  0  0  0  0  0  0  0
    4.8827   -1.1527    0.3120 H   0  0  0  0  0  0  0  0  0  0  0  0
    5.9730    0.1030    3.4476 H   0  0  0  0  0  0  0  0  0  0  0  0
    6.9049   -1.3356    5.2154 H   0  0  0  0  0  0  0  0  0  0  0  0
    4.7015   -4.6847    3.6389 H   0  0  0  0  0  0  0  0  0  0  0  0
    4.0862   -3.3463    1.6660 H   0  0  0  0  0  0  0  0  0  0  0  0
    7.0349   -3.4729    5.9871 H   0  0  0  0  0  0  0  0  0  0  0  0
  1  2  1  0  0  0  0
  1 42  1  0  0  0  0
  1 43  1  0  0  0  0
  1 44  1  0  0  0  0
  2  3  1  6  0  0  0
  2  4  1  0  0  0  0
  2 33  1  0  0  0  0
  4  5  1  0  0  0  0
  4 45  1  0  0  0  0
  5  6  2  0  0  0  0
  5  7  1  0  0  0  0
  7  8  1  0  0  0  0
  7 46  1  0  0  0  0
  7 47  1  0  0  0  0
  8  9  2  0  0  0  0
  8 13  1  0  0  0  0
  9 10  1  0  0  0  0
  9 27  1  0  0  0  0
 10 11  1  0  0  0  0
 10 12  1  0  0  0  0
 12 13  2  0  0  0  0
 12 17  1  0  0  0  0
 13 14  1  0  0  0  0
 14 15  2  0  0  0  0
 14 48  1  0  0  0  0
 15 16  1  0  0  0  0
 15 49  1  0  0  0  0
 16 17  2  0  0  0  0
 16 18  1  0  0  0  0
 17 50  1  0  0  0  0
 18 19  1  0  0  0  0
 19 20  1  0  0  0  0
 19 51  1  0  0  0  0
 19 52  1  0  0  0  0
 20 21  1  0  0  0  0
 20 53  1  0  0  0  0
 20 54  1  0  0  0  0
 21 22  1  0  0  0  0
 21 26  1  0  0  0  0
 22 23  1  0  0  0  0
 22 55  1  0  0  0  0
 22 56  1  0  0  0  0
 23 24  1  0  0  0  0
 23 57  1  0  0  0  0
 23 58  1  0  0  0  0
 24 25  1  0  0  0  0
 24 59  1  0  0  0  0
 24 60  1  0  0  0  0
 25 26  1  0  0  0  0
 25 61  1  0  0  0  0
 25 62  1  0  0  0  0
 26 63  1  0  0  0  0
 26 64  1  0  0  0  0
 27 28  2  0  0  0  0
 27 32  1  0  0  0  0
 28 29  1  0  0  0  0
 28 65  1  0  0  0  0
 29 30  2  0  0  0  0
 29 66  1  0  0  0  0
 30 31  1  0  0  0  0
 30 67  1  0  0  0  0
 31 32  2  0  0  0  0
 31 68  1  0  0  0  0
 32 69  1  0  0  0  0
 33 34  1  0  0  0  0
 33 70  1  0  0  0  0
 33 71  1  0  0  0  0
 34 35  1  0  0  0  0
 34 72  1  0  0  0  0
 34 73  1  0  0  0  0
 35 36  2  0  0  0  0
 35 40  1  0  0  0  0
 36 37  1  0  0  0  0
 36 74  1  0  0  0  0
 37 38  2  0  0  0  0
 37 75  1  0  0  0  0
 38 39  1  0  0  0  0
 38 41  1  0  0  0  0
 39 40  2  0  0  0  0
 39 76  1  0  0  0  0
 40 77  1  0  0  0  0
 41 78  1  0  0  0  0
M  END
$$$$
