IOK
 OpenBabel04121316133D

 56 59  0  0  1  0  0  0  0  0999 V2000
    1.0140   -0.1627    0.1021 C   0  0  0  0  0  0  0  0  0  0  0  0
    2.5421   -0.0410    0.0509 C   0  0  1  0  0  0  0  0  0  0  0  0
    2.9164   -0.6707   -0.7666 H   0  0  0  0  0  0  0  0  0  0  0  0
    3.0333    1.3166   -0.2018 N   0  0  0  0  0  0  0  0  0  0  0  0
    2.4454    2.1213   -1.1395 C   0  0  0  0  0  0  0  0  0  0  0  0
    1.3253    1.8670   -1.5879 O   0  0  0  0  0  0  0  0  0  0  0  0
    3.1997    3.3592   -1.5655 C   0  0  0  0  0  0  0  0  0  0  0  0
    2.8169    3.8130   -2.9553 C   0  0  0  0  0  0  0  0  0  0  0  0
    2.3888    3.0393   -4.0376 C   0  0  0  0  0  0  0  0  0  0  0  0
    2.0586    3.9059   -5.0511 N   0  0  0  0  0  0  0  0  0  0  0  0
    1.6809    3.6196   -5.9427 H   0  0  0  0  0  0  0  0  0  0  0  0
    2.3713    5.1981   -4.7095 C   0  0  0  0  0  0  0  0  0  0  0  0
    2.8292    5.1729   -3.3947 C   0  0  0  0  0  0  0  0  0  0  0  0
    3.2041    6.3851   -2.7842 C   0  0  0  0  0  0  0  0  0  0  0  0
    3.1422    7.5701   -3.5212 C   0  0  0  0  0  0  0  0  0  0  0  0
    2.6926    7.5621   -4.8396 C   0  0  0  0  0  0  0  0  0  0  0  0
    2.2868    6.3760   -5.4584 C   0  0  0  0  0  0  0  0  0  0  0  0
    2.1855    1.5906   -4.1586 C   0  0  0  0  0  0  0  0  0  0  0  0
    3.1763    0.7015   -3.7145 C   0  0  0  0  0  0  0  0  0  0  0  0
    2.9483   -0.6740   -3.6963 C   0  0  0  0  0  0  0  0  0  0  0  0
    1.7084   -1.1741   -4.0819 C   0  0  0  0  0  0  0  0  0  0  0  0
    0.6858   -0.2968   -4.4418 C   0  0  0  0  0  0  0  0  0  0  0  0
    0.9306    1.0771   -4.5149 C   0  0  0  0  0  0  0  0  0  0  0  0
    3.0985   -0.5648    1.3692 C   0  0  0  0  0  0  0  0  0  0  0  0
    4.6222   -0.5856    1.3782 C   0  0  0  0  0  0  0  0  0  0  0  0
    5.1145   -1.0671    2.7096 C   0  0  0  0  0  0  0  0  0  0  0  0
    5.7042   -0.1829    3.6206 C   0  0  0  0  0  0  0  0  0  0  0  0
    6.2500   -0.6718    4.8051 C   0  0  0  0  0  0  0  0  0  0  0  0
    6.0873   -2.0165    5.1246 C   0  0  0  0  0  0  0  0  0  0  0  0
    5.3816   -2.8721    4.2897 C   0  0  0  0  0  0  0  0  0  0  0  0
    4.9477   -2.4124    3.0542 C   0  0  0  0  0  0  0  0  0  0  0  0
    6.6212   -2.5464    6.2606 O   0  0  0  0  0  0  0  0  0  0  0  0
    0.5353    0.0440   -0.8575 H   0  0  0  0  0  0  0  0  0  0  0  0
    0.6036    0.5312    0.8428 H   0  0  0  0  0  0  0  0  0  0  0  0
    0.7030   -1.1812    0.3447 H   0  0  0  0  0  0  0  0  0  0  0  0
    3.6798    1.7489    0.4475 H   0  0  0  0  0  0  0  0  0  0  0  0
    4.2856    3.2107   -1.5284 H   0  0  0  0  0  0  0  0  0  0  0  0
    2.9298    4.1209   -0.8258 H   0  0  0  0  0  0  0  0  0  0  0  0
    3.5589    6.3979   -1.7586 H   0  0  0  0  0  0  0  0  0  0  0  0
    3.4561    8.5020   -3.0594 H   0  0  0  0  0  0  0  0  0  0  0  0
    2.6583    8.4935   -5.3987 H   0  0  0  0  0  0  0  0  0  0  0  0
    1.9380    6.3722   -6.4856 H   0  0  0  0  0  0  0  0  0  0  0  0
    4.0925    1.0840   -3.2718 H   0  0  0  0  0  0  0  0  0  0  0  0
    3.7157   -1.3424   -3.3169 H   0  0  0  0  0  0  0  0  0  0  0  0
    1.5243   -2.2437   -4.0549 H   0  0  0  0  0  0  0  0  0  0  0  0
   -0.3184   -0.6757   -4.6123 H   0  0  0  0  0  0  0  0  0  0  0  0
    0.1049    1.7491   -4.7376 H   0  0  0  0  0  0  0  0  0  0  0  0
    2.7100   -1.5779    1.5424 H   0  0  0  0  0  0  0  0  0  0  0  0
    2.7284    0.0566    2.1954 H   0  0  0  0  0  0  0  0  0  0  0  0
    5.0414    0.4068    1.1809 H   0  0  0  0  0  0  0  0  0  0  0  0
    5.0048   -1.2384    0.5837 H   0  0  0  0  0  0  0  0  0  0  0  0
    5.7508    0.8829    3.4082 H   0  0  0  0  0  0  0  0  0  0  0  0
    6.7856    0.0053    5.4618 H   0  0  0  0  0  0  0  0  0  0  0  0
    5.1851   -3.8964    4.5875 H   0  0  0  0  0  0  0  0  0  0  0  0
    4.4679   -3.1001    2.3618 H   0  0  0  0  0  0  0  0  0  0  0  0
    7.1976   -1.8789    6.6659 H   0  0  0  0  0  0  0  0  0  0  0  0
  1  2  1  0  0  0  0
  1 33  1  0  0  0  0
  1 34  1  0  0  0  0
  1 35  1  0  0  0  0
  2  3  1  6  0  0  0
  2  4  1  0  0  0  0
  2 24  1  0  0  0  0
  4  5  1  0  0  0  0
  4 36  1  0  0  0  0
  5  6  2  0  0  0  0
  5  7  1  0  0  0  0
  7  8  1  0  0  0  0
  7 37  1  0  0  0  0
  7 38  1  0  0  0  0
  8  9  2  0  0  0  0
  8 13  1  0  0  0  0
  9 10  1  0  0  0  0
  9 18  1  0  0  0  0
 10 11  1  0  0  0  0
 10 12  1  0  0  0  0
 12 13  2  0  0  0  0
 12 17  1  0  0  0  0
 13 14  1  0  0  0  0
 14 15  2  0  0  0  0
 14 39  1  0  0  0  0
 15 16  1  0  0  0  0
 15 40  1  0  0  0  0
 16 17  2  0  0  0  0
 16 41  1  0  0  0  0
 17 42  1  0  0  0  0
 18 19  2  0  0  0  0
 18 23  1  0  0  0  0
 19 20  1  0  0  0  0
 19 43  1  0  0  0  0
 20 21  2  0  0  0  0
 20 44  1  0  0  0  0
 21 22  1  0  0  0  0
 21 45  1  0  0  0  0
 22 23  2  0  0  0  0
 22 46  1  0  0  0  0
 23 47  1  0  0  0  0
 24 25  1  0  0  0  0
 24 48  1  0  0  0  0
 24 49  1  0  0  0  0
 25 26  1  0  0  0  0
 25 50  1  0  0  0  0
 25 51  1  0  0  0  0
 26 27  2  0  0  0  0
 26 31  1  0  0  0  0
 27 28  1  0  0  0  0
 27 52  1  0  0  0  0
 28 29  2  0  0  0  0
 28 53  1  0  0  0  0
 29 30  1  0  0  0  0
 29 32  1  0  0  0  0
 30 31  2  0  0  0  0
 30 54  1  0  0  0  0
 31 55  1  0  0  0  0
 32 56  1  0  0  0  0
M  END
$$$$
