IOL
 OpenBabel04121316133D

 13 13  0  0  0  0  0  0  0  0999 V2000
    1.0374    0.0518    0.0875 O   0  0  0  0  0  0  0  0  0  0  0  0
    2.3968    0.1174    0.0052 C   0  0  0  0  0  0  0  0  0  0  0  0
    3.0630    1.3412   -0.0246 C   0  0  0  0  0  0  0  0  0  0  0  0
    4.4475    1.3596   -0.2142 C   0  0  0  0  0  0  0  0  0  0  0  0
    5.1537    0.1599   -0.3007 C   0  0  0  0  0  0  0  0  0  0  0  0
    4.4898   -1.0625   -0.1770 C   0  0  0  0  0  0  0  0  0  0  0  0
    3.0993   -1.0784   -0.0599 C   0  0  0  0  0  0  0  0  0  0  0  0
    7.1988    0.1863   -0.6728 I   0  0  0  0  0  0  0  0  0  0  0  0
    0.6761    0.9504    0.0278 H   0  0  0  0  0  0  0  0  0  0  0  0
    2.5275    2.2773    0.0846 H   0  0  0  0  0  0  0  0  0  0  0  0
    4.9588    2.3158   -0.3012 H   0  0  0  0  0  0  0  0  0  0  0  0
    5.0341   -2.0015   -0.1884 H   0  0  0  0  0  0  0  0  0  0  0  0
    2.5649   -2.0252   -0.0305 H   0  0  0  0  0  0  0  0  0  0  0  0
  1  2  1  0  0  0  0
  1  9  1  0  0  0  0
  2  3  2  0  0  0  0
  2  7  1  0  0  0  0
  3  4  1  0  0  0  0
  3 10  1  0  0  0  0
  4  5  2  0  0  0  0
  4 11  1  0  0  0  0
  5  6  1  0  0  0  0
  5  8  1  0  0  0  0
  6  7  2  0  0  0  0
  6 12  1  0  0  0  0
  7 13  1  0  0  0  0
M  END
$$$$
