IP5
 OpenBabel04121316133D

 49 49  0  0  1  0  0  0  0  0999 V2000
    3.4768    0.7198    1.3798 O   0  0  0  0  0  0  0  0  0  0  0  0
    2.7425    0.0372    0.3507 C   0  0  2  0  0  0  0  0  0  0  0  0
    1.6463    0.0596    0.4922 H   0  0  0  0  0  0  0  0  0  0  0  0
    3.2807   -1.4292   -0.1002 C   0  0  1  0  0  0  0  0  0  0  0  0
    4.3474   -1.5629    0.0905 H   0  0  0  0  0  0  0  0  0  0  0  0
    2.4658   -2.4289    0.5352 O   0  0  0  0  0  0  0  0  0  0  0  0
    2.9867   -2.0751    2.1466 P   0  0  0  0  0  0  0  0  0  0  0  0
    1.9457   -0.9829    2.3548 O   0  0  0  0  0  0  0  0  0  0  0  0
    2.0585   -3.3222    2.6180 O   0  0  0  0  0  0  0  0  0  0  0  0
    3.5077   -1.7214    3.7579 O   0  0  0  0  0  0  0  0  0  0  0  0
    2.8767   -1.7991   -1.4658 C   0  0  2  0  0  0  0  0  0  0  0  0
    1.8157   -1.7728   -1.1945 H   0  0  0  0  0  0  0  0  0  0  0  0
    3.0036   -3.0454   -2.0248 O   0  0  0  0  0  0  0  0  0  0  0  0
    2.4982   -3.4305   -3.6339 P   0  0  0  0  0  0  0  0  0  0  0  0
    3.9134   -3.8842   -3.9768 O   0  0  0  0  0  0  0  0  0  0  0  0
    1.7784   -4.7399   -2.9843 O   0  0  0  0  0  0  0  0  0  0  0  0
    1.9928   -3.8157   -5.2430 O   0  0  0  0  0  0  0  0  0  0  0  0
    3.2646   -0.8479   -2.5283 C   0  0  2  0  0  0  0  0  0  0  0  0
    4.3497   -0.8288   -2.6677 H   0  0  0  0  0  0  0  0  0  0  0  0
    2.5175    0.3714   -1.8877 C   0  0  2  0  0  0  0  0  0  0  0  0
    2.9534    1.2927   -2.1973 H   0  0  0  0  0  0  0  0  0  0  0  0
    3.0510    0.9761   -0.6901 C   0  0  1  0  0  0  0  0  0  0  0  0
    4.1473    1.1186   -0.7563 H   0  0  0  0  0  0  0  0  0  0  0  0
    2.4619    2.2532   -0.6148 O   0  0  0  0  0  0  0  0  0  0  0  0
    1.1411    2.4566   -1.7135 P   0  0  0  0  0  0  0  0  0  0  0  0
    0.2530    3.0215   -0.6073 O   0  0  0  0  0  0  0  0  0  0  0  0
    1.9651    3.7485   -2.2882 O   0  0  0  0  0  0  0  0  0  0  0  0
   -0.1797    2.6600   -2.8122 O   0  0  0  0  0  0  0  0  0  0  0  0
    1.1114    0.6008   -2.4235 O   0  0  0  0  0  0  0  0  0  0  0  0
    1.9421    0.9088   -3.9095 P   0  0  0  0  0  0  0  0  0  0  0  0
    1.4893    2.3096   -4.2277 O   0  0  0  0  0  0  0  0  0  0  0  0
    3.6441    1.0095   -3.6623 O   0  0  0  0  0  0  0  0  0  0  0  0
    2.7728    1.2167   -5.3954 O   0  0  0  0  0  0  0  0  0  0  0  0
    2.5772   -1.2232   -3.9533 O   0  0  0  0  0  0  0  0  0  0  0  0
    1.1816   -1.7162   -3.0577 P   0  0  0  0  0  0  0  0  0  0  0  0
    0.2633   -0.6984   -3.7596 O   0  0  0  0  0  0  0  0  0  0  0  0
    0.5579   -2.6260   -4.2396 O   0  0  0  0  0  0  0  0  0  0  0  0
   -0.2140   -2.2093   -2.1621 O   0  0  0  0  0  0  0  0  0  0  0  0
    3.7307    0.2028    2.1031 H   0  0  0  0  0  0  0  0  0  0  0  0
    1.1382   -2.9854    2.5178 H   0  0  0  0  0  0  0  0  0  0  0  0
    3.9792   -0.8775    3.8471 H   0  0  0  0  0  0  0  0  0  0  0  0
    1.1154   -4.5211   -2.2995 H   0  0  0  0  0  0  0  0  0  0  0  0
    2.8224   -3.8952   -5.7530 H   0  0  0  0  0  0  0  0  0  0  0  0
    2.6698    3.4893   -2.9054 H   0  0  0  0  0  0  0  0  0  0  0  0
   -0.9154    2.9550   -2.2408 H   0  0  0  0  0  0  0  0  0  0  0  0
    4.1530    1.8301   -3.5362 H   0  0  0  0  0  0  0  0  0  0  0  0
    2.2239    1.9275   -5.7934 H   0  0  0  0  0  0  0  0  0  0  0  0
    0.3180   -2.0822   -5.0217 H   0  0  0  0  0  0  0  0  0  0  0  0
   -0.5796   -1.4836   -1.6180 H   0  0  0  0  0  0  0  0  0  0  0  0
  1 39  1  0  0  0  0
  2  4  1  0  0  0  0
  2 22  1  0  0  0  0
  2  3  1  1  0  0  0
  2  1  1  0  0  0  0
  4  5  1  1  0  0  0
  4  6  1  0  0  0  0
  4 11  1  0  0  0  0
  6  7  1  0  0  0  0
  7  8  2  0  0  0  0
  7  9  1  0  0  0  0
  7 10  1  0  0  0  0
  9 40  1  0  0  0  0
 10 41  1  0  0  0  0
 11 12  1  1  0  0  0
 11 13  1  0  0  0  0
 11 18  1  0  0  0  0
 13 14  1  0  0  0  0
 14 15  2  0  0  0  0
 14 16  1  0  0  0  0
 14 17  1  0  0  0  0
 16 42  1  0  0  0  0
 17 43  1  0  0  0  0
 18 20  1  0  0  0  0
 18 34  1  0  0  0  0
 18 19  1  6  0  0  0
 20 22  1  0  0  0  0
 20 29  1  0  0  0  0
 20 21  1  6  0  0  0
 22 24  1  0  0  0  0
 22 23  1  6  0  0  0
 24 25  1  0  0  0  0
 25 26  2  0  0  0  0
 25 27  1  0  0  0  0
 25 28  1  0  0  0  0
 27 44  1  0  0  0  0
 28 45  1  0  0  0  0
 29 30  1  0  0  0  0
 30 31  2  0  0  0  0
 30 32  1  0  0  0  0
 30 33  1  0  0  0  0
 32 46  1  0  0  0  0
 33 47  1  0  0  0  0
 34 35  1  0  0  0  0
 35 36  2  0  0  0  0
 35 37  1  0  0  0  0
 35 38  1  0  0  0  0
 37 48  1  0  0  0  0
 38 49  1  0  0  0  0
M  END
$$$$
