IPE
 OpenBabel04121316133D

 26 25  0  0  0  0  0  0  0  0999 V2000
    9.4960    6.5717   -1.5481 C   0  0  0  0  0  0  0  0  0  0  0  0
    9.3715    5.4852   -0.5218 C   0  0  0  0  0  0  0  0  0  0  0  0
   10.2217    5.4326    0.5077 C   0  0  0  0  0  0  0  0  0  0  0  0
    8.2401    4.4902   -0.7460 C   0  0  0  0  0  0  0  0  0  0  0  0
    8.2501    3.4683    0.3742 C   0  0  0  0  0  0  0  0  0  0  0  0
    7.2480    2.5039    0.2527 O   0  0  0  0  0  0  0  0  0  0  0  0
    7.1899    1.2680    1.3344 P   0  0  2  0  0  0  0  0  0  0  0  0
    5.6716    1.4630    1.5384 O   0  0  0  0  0  0  0  0  0  0  0  0
    7.4916    1.9754    2.7913 O   0  0  0  0  0  0  0  0  0  0  0  0
    6.3893    2.7513    3.6895 P   0  0  0  0  0  0  0  0  0  0  0  0
    6.9302    3.4844    4.8729 O   0  0  0  0  0  0  0  0  0  0  0  0
    5.6035    3.6864    2.6557 O   0  0  0  0  0  0  0  0  0  0  0  0
    5.2276    1.7566    4.1878 O   0  0  0  0  0  0  0  0  0  0  0  0
    8.8907    1.0495    1.1060 O   0  0  0  0  0  0  0  0  0  0  0  0
   10.3225    7.2453   -1.2982 H   0  0  0  0  0  0  0  0  0  0  0  0
    8.5793    7.1652   -1.5890 H   0  0  0  0  0  0  0  0  0  0  0  0
    9.6965    6.1469   -2.5353 H   0  0  0  0  0  0  0  0  0  0  0  0
   11.0161    6.1601    0.6476 H   0  0  0  0  0  0  0  0  0  0  0  0
   10.1874    4.6667    1.2846 H   0  0  0  0  0  0  0  0  0  0  0  0
    8.3618    3.9765   -1.7102 H   0  0  0  0  0  0  0  0  0  0  0  0
    7.2656    4.9909   -0.7934 H   0  0  0  0  0  0  0  0  0  0  0  0
    8.1209    3.9593    1.3419 H   0  0  0  0  0  0  0  0  0  0  0  0
    9.2220    2.9762    0.3229 H   0  0  0  0  0  0  0  0  0  0  0  0
    5.2897    3.1030    1.9199 H   0  0  0  0  0  0  0  0  0  0  0  0
    4.7378    2.1667    4.9335 H   0  0  0  0  0  0  0  0  0  0  0  0
    9.2274    0.3861    1.7367 H   0  0  0  0  0  0  0  0  0  0  0  0
  1  2  1  0  0  0  0
  1 15  1  0  0  0  0
  1 16  1  0  0  0  0
  1 17  1  0  0  0  0
  2  3  2  0  0  0  0
  2  4  1  0  0  0  0
  3 18  1  0  0  0  0
  3 19  1  0  0  0  0
  4  5  1  0  0  0  0
  4 20  1  0  0  0  0
  4 21  1  0  0  0  0
  5  6  1  0  0  0  0
  5 22  1  0  0  0  0
  5 23  1  0  0  0  0
  7  9  1  1  0  0  0
  7 14  1  0  0  0  0
  7  8  2  0  0  0  0
  7  6  1  0  0  0  0
  9 10  1  0  0  0  0
 10 11  2  0  0  0  0
 10 12  1  0  0  0  0
 10 13  1  0  0  0  0
 12 24  1  0  0  0  0
 13 25  1  0  0  0  0
 14 26  1  0  0  0  0
M  END
$$$$
