IPR
 OpenBabel04121316133D

 28 27  0  0  0  0  0  0  0  0999 V2000
    7.2056    6.7475   -1.2247 C   0  0  0  0  0  0  0  0  0  0  0  0
    6.2209    7.9234   -1.2474 C   0  0  0  0  0  0  0  0  0  0  0  0
    4.8442    7.5294   -0.6983 C   0  0  0  0  0  0  0  0  0  0  0  0
    4.3094    6.3851   -1.5363 C   0  0  0  0  0  0  0  0  0  0  0  0
    3.0502    5.9890   -1.1114 O   0  0  0  0  0  0  0  0  0  0  0  0
    2.3733    4.6500   -1.7445 P   0  0  2  0  0  0  0  0  0  0  0  0
    2.8880    3.6949   -0.6457 O   0  0  0  0  0  0  0  0  0  0  0  0
    3.4079    3.8806   -2.8980 O   0  0  0  0  0  0  0  0  0  0  0  0
    4.2965    2.6153   -2.1219 P   0  0  0  0  0  0  0  0  0  0  0  0
    4.3805    1.8278   -3.4295 O   0  0  0  0  0  0  0  0  0  0  0  0
    5.6096    3.5872   -2.1082 O   0  0  0  0  0  0  0  0  0  0  0  0
    5.1850    1.3500   -1.3457 O   0  0  0  0  0  0  0  0  0  0  0  0
    1.7966    5.7200   -2.9756 O   0  0  0  0  0  0  0  0  0  0  0  0
    6.7983    9.0953   -0.4702 C   0  0  0  0  0  0  0  0  0  0  0  0
    6.8744    5.9232   -1.8625 H   0  0  0  0  0  0  0  0  0  0  0  0
    7.3295    6.3579   -0.2085 H   0  0  0  0  0  0  0  0  0  0  0  0
    8.1823    7.0476   -1.6104 H   0  0  0  0  0  0  0  0  0  0  0  0
    6.0887    8.2363   -2.2914 H   0  0  0  0  0  0  0  0  0  0  0  0
    4.1467    8.3775   -0.7178 H   0  0  0  0  0  0  0  0  0  0  0  0
    4.9063    7.2252    0.3561 H   0  0  0  0  0  0  0  0  0  0  0  0
    4.9500    5.5340   -1.3786 H   0  0  0  0  0  0  0  0  0  0  0  0
    4.2696    6.6542   -2.5944 H   0  0  0  0  0  0  0  0  0  0  0  0
    5.8189    3.8640   -2.9861 H   0  0  0  0  0  0  0  0  0  0  0  0
    4.8345    0.5134   -1.7008 H   0  0  0  0  0  0  0  0  0  0  0  0
    1.2578    5.2308   -3.6234 H   0  0  0  0  0  0  0  0  0  0  0  0
    6.9618    8.8294    0.5789 H   0  0  0  0  0  0  0  0  0  0  0  0
    6.1256    9.9574   -0.5084 H   0  0  0  0  0  0  0  0  0  0  0  0
    7.7582    9.3947   -0.9025 H   0  0  0  0  0  0  0  0  0  0  0  0
  1  2  1  0  0  0  0
  1 15  1  0  0  0  0
  1 16  1  0  0  0  0
  1 17  1  0  0  0  0
  2  3  1  0  0  0  0
  2 14  1  0  0  0  0
  2 18  1  0  0  0  0
  3  4  1  0  0  0  0
  3 19  1  0  0  0  0
  3 20  1  0  0  0  0
  4  5  1  0  0  0  0
  4 21  1  0  0  0  0
  4 22  1  0  0  0  0
  6  8  1  6  0  0  0
  6 13  1  0  0  0  0
  6  7  2  0  0  0  0
  6  5  1  0  0  0  0
  8  9  1  0  0  0  0
  9 10  2  0  0  0  0
  9 11  1  0  0  0  0
  9 12  1  0  0  0  0
 11 23  1  0  0  0  0
 12 24  1  0  0  0  0
 13 25  1  0  0  0  0
 14 26  1  0  0  0  0
 14 27  1  0  0  0  0
 14 28  1  0  0  0  0
M  END
$$$$
