IPU
 OpenBabel04121316133D

 17 16  0  0  0  0  0  0  0  0999 V2000
    0.9909    0.0557   -0.0097 C   0  0  0  0  0  0  0  0  0  0  0  0
    2.5162    0.1215    0.0424 C   0  0  0  0  0  0  0  0  0  0  0  0
    3.1531    0.1440    1.7509 S   0  0  0  0  0  0  0  0  0  0  0  0
    2.5630    1.5985    2.4947 C   0  0  0  0  0  0  0  0  0  0  0  0
    1.8996    2.5260    1.9109 N   0  0  0  0  0  0  0  0  0  0  0  0
    2.8526    1.7276    3.8043 N   0  0  0  0  0  0  0  0  0  0  0  0
    3.0707   -1.1199   -0.6719 C   0  0  0  0  0  0  0  0  0  0  0  0
    0.5011    0.9147    0.4511 H   0  0  0  0  0  0  0  0  0  0  0  0
    0.6129   -0.8438    0.4863 H   0  0  0  0  0  0  0  0  0  0  0  0
    0.6535    0.0324   -1.0521 H   0  0  0  0  0  0  0  0  0  0  0  0
    2.8826    1.0105   -0.4834 H   0  0  0  0  0  0  0  0  0  0  0  0
    1.7608    2.3087    0.9281 H   0  0  0  0  0  0  0  0  0  0  0  0
    3.4923    1.1007    4.2653 H   0  0  0  0  0  0  0  0  0  0  0  0
    2.5912    2.5960    4.2492 H   0  0  0  0  0  0  0  0  0  0  0  0
    2.7280   -2.0473   -0.1962 H   0  0  0  0  0  0  0  0  0  0  0  0
    4.1655   -1.1311   -0.6984 H   0  0  0  0  0  0  0  0  0  0  0  0
    2.7222   -1.1480   -1.7119 H   0  0  0  0  0  0  0  0  0  0  0  0
  1  2  1  0  0  0  0
  1  8  1  0  0  0  0
  1  9  1  0  0  0  0
  1 10  1  0  0  0  0
  2  3  1  0  0  0  0
  2  7  1  0  0  0  0
  2 11  1  0  0  0  0
  3  4  1  0  0  0  0
  4  5  2  0  0  0  0
  4  6  1  0  0  0  0
  5 12  1  0  0  0  0
  6 13  1  0  0  0  0
  6 14  1  0  0  0  0
  7 15  1  0  0  0  0
  7 16  1  0  0  0  0
  7 17  1  0  0  0  0
M  END
$$$$
