IPZ
 OpenBabel04121316133D

 23 23  0  0  0  0  0  0  0  0999 V2000
    0.9217    0.1399    0.1017 C   0  0  0  0  0  0  0  0  0  0  0  0
    2.3319    0.1120    0.2059 O   0  0  0  0  0  0  0  0  0  0  0  0
    2.9852    1.2025   -0.3018 C   0  0  0  0  0  0  0  0  0  0  0  0
    2.3459    2.3960   -0.3016 N   0  0  0  0  0  0  0  0  0  0  0  0
    3.1348    3.4694   -0.4963 C   0  0  0  0  0  0  0  0  0  0  0  0
    4.5124    3.3697   -0.6179 C   0  0  0  0  0  0  0  0  0  0  0  0
    5.1374    2.1753   -0.7251 N   0  0  0  0  0  0  0  0  0  0  0  0
    4.3534    1.0684   -0.5997 C   0  0  0  0  0  0  0  0  0  0  0  0
    5.0129   -0.2645   -0.9282 C   0  0  0  0  0  0  0  0  0  0  0  0
    6.2492   -0.4942   -0.0605 C   0  0  0  0  0  0  0  0  0  0  0  0
    4.1150   -1.5059   -0.8565 C   0  0  0  0  0  0  0  0  0  0  0  0
    0.5692   -0.8562    0.3910 H   0  0  0  0  0  0  0  0  0  0  0  0
    0.6043    0.3186   -0.9292 H   0  0  0  0  0  0  0  0  0  0  0  0
    0.4883    0.8642    0.7951 H   0  0  0  0  0  0  0  0  0  0  0  0
    2.6355    4.4300   -0.5347 H   0  0  0  0  0  0  0  0  0  0  0  0
    5.1448    4.2467   -0.6321 H   0  0  0  0  0  0  0  0  0  0  0  0
    5.3443   -0.1872   -1.9748 H   0  0  0  0  0  0  0  0  0  0  0  0
    5.9825   -0.5008    1.0013 H   0  0  0  0  0  0  0  0  0  0  0  0
    7.0000    0.2872   -0.2171 H   0  0  0  0  0  0  0  0  0  0  0  0
    6.7190   -1.4541   -0.3024 H   0  0  0  0  0  0  0  0  0  0  0  0
    3.7858   -1.6897    0.1729 H   0  0  0  0  0  0  0  0  0  0  0  0
    4.6375   -2.4083   -1.1834 H   0  0  0  0  0  0  0  0  0  0  0  0
    3.2338   -1.3931   -1.4998 H   0  0  0  0  0  0  0  0  0  0  0  0
  1  2  1  0  0  0  0
  1 12  1  0  0  0  0
  1 13  1  0  0  0  0
  1 14  1  0  0  0  0
  2  3  1  0  0  0  0
  3  4  2  0  0  0  0
  3  8  1  0  0  0  0
  4  5  1  0  0  0  0
  5  6  2  0  0  0  0
  5 15  1  0  0  0  0
  6  7  1  0  0  0  0
  6 16  1  0  0  0  0
  7  8  2  0  0  0  0
  8  9  1  0  0  0  0
  9 10  1  0  0  0  0
  9 11  1  0  0  0  0
  9 17  1  0  0  0  0
 10 18  1  0  0  0  0
 10 19  1  0  0  0  0
 10 20  1  0  0  0  0
 11 21  1  0  0  0  0
 11 22  1  0  0  0  0
 11 23  1  0  0  0  0
M  END
$$$$
