IQP
 OpenBabel04121316133D

 37 39  0  0  1  0  0  0  0  0999 V2000
    1.0726    0.1285    0.0636 C   0  0  0  0  0  0  0  0  0  0  0  0
    2.6099    0.0295   -0.0236 C   0  0  1  0  0  0  0  0  0  0  0  0
    2.9792    0.2637    0.9804 H   0  0  0  0  0  0  0  0  0  0  0  0
    2.9876   -1.4082   -0.4471 C   0  0  0  0  0  0  0  0  0  0  0  0
    2.5603   -1.7527   -1.8154 N   0  0  0  0  0  0  0  0  0  0  0  0
    3.0776   -0.7472   -2.7726 C   0  0  0  0  0  0  0  0  0  0  0  0
    2.7092    0.7066   -2.3992 C   0  0  0  0  0  0  0  0  0  0  0  0
    3.1858    1.0340   -1.0049 N   0  0  0  0  0  0  0  0  0  0  0  0
    4.9223    1.2477   -0.9975 S   0  0  0  0  0  0  0  0  0  0  0  0
    5.5821    0.0163   -1.3385 O   0  0  0  0  0  0  0  0  0  0  0  0
    5.2042    2.4204   -1.8131 O   0  0  0  0  0  0  0  0  0  0  0  0
    5.3035    1.6496    0.6949 C   0  0  0  0  0  0  0  0  0  0  0  0
    5.3150    3.0087    1.0250 C   0  0  0  0  0  0  0  0  0  0  0  0
    5.6406    3.4062    2.3157 C   0  0  0  0  0  0  0  0  0  0  0  0
    5.9436    2.4512    3.2845 C   0  0  0  0  0  0  0  0  0  0  0  0
    5.9881    1.0868    2.9574 C   0  0  0  0  0  0  0  0  0  0  0  0
    5.6995    0.6619    1.6455 C   0  0  0  0  0  0  0  0  0  0  0  0
    5.8898   -0.7097    1.3925 C   0  0  0  0  0  0  0  0  0  0  0  0
    6.4578   -1.5369    2.3369 C   0  0  0  0  0  0  0  0  0  0  0  0
    6.6560   -1.1670    3.6054 N   0  0  0  0  0  0  0  0  0  0  0  0
    6.3708    0.1211    3.8962 C   0  0  0  0  0  0  0  0  0  0  0  0
    0.6941   -0.5960    0.7953 H   0  0  0  0  0  0  0  0  0  0  0  0
    0.5754   -0.1127   -0.8811 H   0  0  0  0  0  0  0  0  0  0  0  0
    0.7356    1.1253    0.3593 H   0  0  0  0  0  0  0  0  0  0  0  0
    2.5794   -2.1231    0.2763 H   0  0  0  0  0  0  0  0  0  0  0  0
    4.0565   -1.5652   -0.4187 H   0  0  0  0  0  0  0  0  0  0  0  0
    1.5437   -1.7315   -1.8483 H   0  0  0  0  0  0  0  0  0  0  0  0
    2.6881   -0.9797   -3.7663 H   0  0  0  0  0  0  0  0  0  0  0  0
    4.1606   -0.8590   -2.8652 H   0  0  0  0  0  0  0  0  0  0  0  0
    1.6222    0.8371   -2.4484 H   0  0  0  0  0  0  0  0  0  0  0  0
    3.1140    1.4266   -3.1176 H   0  0  0  0  0  0  0  0  0  0  0  0
    5.0968    3.7615    0.2688 H   0  0  0  0  0  0  0  0  0  0  0  0
    5.6743    4.4639    2.5620 H   0  0  0  0  0  0  0  0  0  0  0  0
    6.2133    2.7823    4.2856 H   0  0  0  0  0  0  0  0  0  0  0  0
    5.6990   -1.1736    0.4427 H   0  0  0  0  0  0  0  0  0  0  0  0
    6.7980   -2.5256    2.0436 H   0  0  0  0  0  0  0  0  0  0  0  0
    6.4935    0.3706    4.9461 H   0  0  0  0  0  0  0  0  0  0  0  0
  1  2  1  0  0  0  0
  1 22  1  0  0  0  0
  1 23  1  0  0  0  0
  1 24  1  0  0  0  0
  2  3  1  1  0  0  0
  2  4  1  0  0  0  0
  2  8  1  0  0  0  0
  4  5  1  0  0  0  0
  4 25  1  0  0  0  0
  4 26  1  0  0  0  0
  5  6  1  0  0  0  0
  5 27  1  0  0  0  0
  6  7  1  0  0  0  0
  6 28  1  0  0  0  0
  6 29  1  0  0  0  0
  7  8  1  0  0  0  0
  7 30  1  0  0  0  0
  7 31  1  0  0  0  0
  8  9  1  0  0  0  0
  9 10  2  0  0  0  0
  9 11  2  0  0  0  0
  9 12  1  0  0  0  0
 12 13  2  0  0  0  0
 12 17  1  0  0  0  0
 13 14  1  0  0  0  0
 13 32  1  0  0  0  0
 14 15  2  0  0  0  0
 14 33  1  0  0  0  0
 15 16  1  0  0  0  0
 15 34  1  0  0  0  0
 16 17  2  0  0  0  0
 16 21  1  0  0  0  0
 17 18  1  0  0  0  0
 18 19  2  0  0  0  0
 18 35  1  0  0  0  0
 19 20  1  0  0  0  0
 19 36  1  0  0  0  0
 20 21  2  0  0  0  0
 21 37  1  0  0  0  0
M  END
$$$$
