IRE
 OpenBabel04121316133D

 55 58  0  0  0  0  0  0  0  0999 V2000
    0.9523    0.0477   -0.0726 C   0  0  0  0  0  0  0  0  0  0  0  0
    2.3602   -0.0700   -0.2766 O   0  0  0  0  0  0  0  0  0  0  0  0
    2.9378   -0.7918    0.7335 C   0  0  0  0  0  0  0  0  0  0  0  0
    2.6081   -2.1286    0.7789 C   0  0  0  0  0  0  0  0  0  0  0  0
    3.1947   -2.9258    1.7261 C   0  0  0  0  0  0  0  0  0  0  0  0
    2.9319   -4.2876    1.7573 N   0  0  0  0  0  0  0  0  0  0  0  0
    2.1424   -4.6546    1.2387 H   0  0  0  0  0  0  0  0  0  0  0  0
    3.8807   -5.0733    2.2995 C   0  0  0  0  0  0  0  0  0  0  0  0
    4.8680   -4.6662    3.0515 N   0  0  0  0  0  0  0  0  0  0  0  0
    4.8408   -3.3507    3.4552 C   0  0  0  0  0  0  0  0  0  0  0  0
    5.3421   -2.9405    4.6016 N   0  0  0  0  0  0  0  0  0  0  0  0
    5.8454   -3.8665    5.5210 C   0  0  0  0  0  0  0  0  0  0  0  0
    6.8277   -3.4838    6.4395 C   0  0  0  0  0  0  0  0  0  0  0  0
    7.3180   -4.4186    7.3587 C   0  0  0  0  0  0  0  0  0  0  0  0
    6.9410   -5.7579    7.2554 C   0  0  0  0  0  0  0  0  0  0  0  0
    5.9692   -6.1415    6.3523 C   0  0  0  0  0  0  0  0  0  0  0  0
    5.3428   -5.1690    5.6061 C   0  0  0  0  0  0  0  0  0  0  0  0
    5.5166   -7.7812    6.1065 Cl  0  0  0  0  0  0  0  0  0  0  0  0
    7.5051   -6.6654    8.0614 F   0  0  0  0  0  0  0  0  0  0  0  0
    4.1810   -2.3882    2.5723 C   0  0  0  0  0  0  0  0  0  0  0  0
    4.5174   -1.0497    2.5591 C   0  0  0  0  0  0  0  0  0  0  0  0
    3.8784   -0.2448    1.6286 C   0  0  0  0  0  0  0  0  0  0  0  0
    4.2354    1.0618    1.7041 O   0  0  0  0  0  0  0  0  0  0  0  0
    3.5340    1.9004    0.7903 C   0  0  0  0  0  0  0  0  0  0  0  0
    3.9804    3.2801    1.0986 C   0  0  0  0  0  0  0  0  0  0  0  0
    3.4264    4.3989    0.1537 C   0  0  0  0  0  0  0  0  0  0  0  0
    4.5062    5.4198   -0.0229 N   0  0  0  0  0  0  0  0  0  0  0  0
    5.7352    4.6545   -0.3591 C   0  0  0  0  0  0  0  0  0  0  0  0
    5.4324    3.7576   -1.5935 C   0  0  0  0  0  0  0  0  0  0  0  0
    5.3398    4.6229   -2.7371 O   0  0  0  0  0  0  0  0  0  0  0  0
    4.3711    5.6853   -2.5476 C   0  0  0  0  0  0  0  0  0  0  0  0
    4.4371    6.3663   -1.1613 C   0  0  0  0  0  0  0  0  0  0  0  0
    0.5899    0.8146   -0.7598 H   0  0  0  0  0  0  0  0  0  0  0  0
    0.7137    0.3600    0.9522 H   0  0  0  0  0  0  0  0  0  0  0  0
    0.4577   -0.8955   -0.3101 H   0  0  0  0  0  0  0  0  0  0  0  0
    1.9338   -2.5407    0.0391 H   0  0  0  0  0  0  0  0  0  0  0  0
    3.7888   -6.1309    2.0259 H   0  0  0  0  0  0  0  0  0  0  0  0
    7.1941   -2.4595    6.4540 H   0  0  0  0  0  0  0  0  0  0  0  0
    8.0001   -4.1183    8.1465 H   0  0  0  0  0  0  0  0  0  0  0  0
    4.4680   -5.4530    5.0359 H   0  0  0  0  0  0  0  0  0  0  0  0
    5.2713   -0.6561    3.2405 H   0  0  0  0  0  0  0  0  0  0  0  0
    2.4631    1.8631    0.9508 H   0  0  0  0  0  0  0  0  0  0  0  0
    3.8624    1.6301   -0.2244 H   0  0  0  0  0  0  0  0  0  0  0  0
    5.0406    3.0487    1.0258 H   0  0  0  0  0  0  0  0  0  0  0  0
    3.8773    3.5527    2.1497 H   0  0  0  0  0  0  0  0  0  0  0  0
    2.4792    4.7728    0.5642 H   0  0  0  0  0  0  0  0  0  0  0  0
    3.0845    4.0014   -0.8114 H   0  0  0  0  0  0  0  0  0  0  0  0
    6.0942    4.2368    0.5780 H   0  0  0  0  0  0  0  0  0  0  0  0
    6.5973    5.2853   -0.5812 H   0  0  0  0  0  0  0  0  0  0  0  0
    4.5096    3.1617   -1.6099 H   0  0  0  0  0  0  0  0  0  0  0  0
    6.1955    2.9880   -1.7125 H   0  0  0  0  0  0  0  0  0  0  0  0
    3.3592    5.3073   -2.7240 H   0  0  0  0  0  0  0  0  0  0  0  0
    4.5877    6.4266   -3.3244 H   0  0  0  0  0  0  0  0  0  0  0  0
    3.6803    7.1493   -1.0436 H   0  0  0  0  0  0  0  0  0  0  0  0
    5.3898    6.9261   -1.1342 H   0  0  0  0  0  0  0  0  0  0  0  0
  1  2  1  0  0  0  0
  1 33  1  0  0  0  0
  1 34  1  0  0  0  0
  1 35  1  0  0  0  0
  2  3  1  0  0  0  0
  3  4  2  0  0  0  0
  3 22  1  0  0  0  0
  4  5  1  0  0  0  0
  4 36  1  0  0  0  0
  5  6  1  0  0  0  0
  5 20  2  0  0  0  0
  6  7  1  0  0  0  0
  6  8  1  0  0  0  0
  8  9  2  0  0  0  0
  8 37  1  0  0  0  0
  9 10  1  0  0  0  0
 10 11  2  0  0  0  0
 10 20  1  0  0  0  0
 11 12  1  0  0  0  0
 12 13  2  0  0  0  0
 12 17  1  0  0  0  0
 13 14  1  0  0  0  0
 13 38  1  0  0  0  0
 14 15  2  0  0  0  0
 14 39  1  0  0  0  0
 15 16  1  0  0  0  0
 15 19  1  0  0  0  0
 16 17  2  0  0  0  0
 16 18  1  0  0  0  0
 17 40  1  0  0  0  0
 20 21  1  0  0  0  0
 21 22  2  0  0  0  0
 21 41  1  0  0  0  0
 22 23  1  0  0  0  0
 23 24  1  0  0  0  0
 24 25  1  0  0  0  0
 24 42  1  0  0  0  0
 24 43  1  0  0  0  0
 25 26  1  0  0  0  0
 25 44  1  0  0  0  0
 25 45  1  0  0  0  0
 26 27  1  0  0  0  0
 26 46  1  0  0  0  0
 26 47  1  0  0  0  0
 27 28  1  0  0  0  0
 27 32  1  0  0  0  0
 28 29  1  0  0  0  0
 28 48  1  0  0  0  0
 28 49  1  0  0  0  0
 29 30  1  0  0  0  0
 29 50  1  0  0  0  0
 29 51  1  0  0  0  0
 30 31  1  0  0  0  0
 31 32  1  0  0  0  0
 31 52  1  0  0  0  0
 31 53  1  0  0  0  0
 32 54  1  0  0  0  0
 32 55  1  0  0  0  0
M  END
$$$$
