IRF
 OpenBabel04121316133D

 44 46  0  0  1  0  0  0  0  0999 V2000
   -0.0688   -0.5666    3.9203 O   0  0  0  0  0  0  0  0  0  0  0  0
    0.1056   -1.3678    5.0849 C   0  0  0  0  0  0  0  0  0  0  0  0
    1.3156   -2.2452    4.9004 C   0  0  2  0  0  0  0  0  0  0  0  0
    1.6240   -2.7841    5.8045 H   0  0  0  0  0  0  0  0  0  0  0  0
    2.4932   -1.8315    4.0252 C   0  0  2  0  0  0  0  0  0  0  0  0
    2.2995   -0.8349    3.6126 H   0  0  0  0  0  0  0  0  0  0  0  0
    2.9063   -2.7594    2.7828 C   0  0  2  0  0  0  0  0  0  0  0  0
    2.5606   -2.1974    1.9128 H   0  0  0  0  0  0  0  0  0  0  0  0
    2.4895   -4.3303    2.6193 C   0  0  0  0  0  0  0  0  0  0  0  0
    1.0091   -4.7539    2.4251 N   0  0  0  0  0  0  0  0  0  0  0  0
    0.2818   -3.9525    1.4857 C   0  0  0  0  0  0  0  0  0  0  0  0
    0.9269   -3.2989    0.4267 C   0  0  0  0  0  0  0  0  0  0  0  0
    0.2316   -2.5905   -0.5497 C   0  0  0  0  0  0  0  0  0  0  0  0
    1.4233   -1.7384   -2.0598 I   0  0  0  0  0  0  0  0  0  0  0  0
   -1.1597   -2.5428   -0.5118 C   0  0  0  0  0  0  0  0  0  0  0  0
   -1.8200   -3.1118    0.5960 C   0  0  0  0  0  0  0  0  0  0  0  0
   -1.1209   -3.8009    1.5985 C   0  0  0  0  0  0  0  0  0  0  0  0
   -1.8740   -4.2862    2.6856 N   0  0  0  0  0  0  0  0  0  0  0  0
   -1.2630   -4.9770    3.5992 C   0  0  0  0  0  0  0  0  0  0  0  0
    0.2298   -5.3159    3.5102 C   0  0  0  0  0  0  0  0  0  0  0  0
    0.8196   -5.7523    4.5945 N   0  0  0  0  0  0  0  0  0  0  0  0
    0.1701   -5.9046    5.8071 C   0  0  0  0  0  0  0  0  0  0  0  0
    0.7695   -6.1433    6.8374 O   0  0  0  0  0  0  0  0  0  0  0  0
   -1.1877   -5.7514    5.8801 N   0  0  0  0  0  0  0  0  0  0  0  0
   -1.6112   -5.9612    6.7731 H   0  0  0  0  0  0  0  0  0  0  0  0
   -2.0080   -5.3288    4.8757 C   0  0  0  0  0  0  0  0  0  0  0  0
   -3.2098   -5.2330    4.9986 O   0  0  0  0  0  0  0  0  0  0  0  0
   -1.9902   -1.9944   -1.6303 C   0  0  0  0  0  0  0  0  0  0  0  0
    4.3607   -2.6593    2.6718 O   0  0  0  0  0  0  0  0  0  0  0  0
    3.6060   -1.6561    4.9181 O   0  0  0  0  0  0  0  0  0  0  0  0
    0.6596   -3.1876    4.1565 O   0  0  0  0  0  0  0  0  0  0  0  0
   -0.9504   -0.1697    3.9794 H   0  0  0  0  0  0  0  0  0  0  0  0
   -0.7974   -2.0089    5.1704 H   0  0  0  0  0  0  0  0  0  0  0  0
    0.1809   -0.7660    5.9809 H   0  0  0  0  0  0  0  0  0  0  0  0
    2.9184   -4.8529    3.4826 H   0  0  0  0  0  0  0  0  0  0  0  0
    3.0434   -4.7447    1.7633 H   0  0  0  0  0  0  0  0  0  0  0  0
    2.0036   -3.3403    0.3280 H   0  0  0  0  0  0  0  0  0  0  0  0
   -2.9070   -3.0571    0.6683 H   0  0  0  0  0  0  0  0  0  0  0  0
   -1.3899   -1.6106   -2.4553 H   0  0  0  0  0  0  0  0  0  0  0  0
   -2.6229   -1.1780   -1.2768 H   0  0  0  0  0  0  0  0  0  0  0  0
   -2.6050   -2.7997   -2.0459 H   0  0  0  0  0  0  0  0  0  0  0  0
    4.6541   -3.1738    1.8991 H   0  0  0  0  0  0  0  0  0  0  0  0
    4.3381   -1.3540    4.3474 H   0  0  0  0  0  0  0  0  0  0  0  0
    1.2851   -3.9180    4.2638 H   0  0  0  0  0  0  0  0  0  0  0  0
  1  2  1  0  0  0  0
  1 32  1  0  0  0  0
  2 33  1  0  0  0  0
  2 34  1  0  0  0  0
  3 31  1  0  0  0  0
  3  4  1  1  0  0  0
  3  2  1  0  0  0  0
  5 30  1  0  0  0  0
  5  6  1  6  0  0  0
  5  3  1  0  0  0  0
  7  9  1  0  0  0  0
  7 29  1  0  0  0  0
  7  8  1  6  0  0  0
  7  5  1  0  0  0  0
  9 10  1  0  0  0  0
  9 35  1  0  0  0  0
  9 36  1  0  0  0  0
 10 11  1  0  0  0  0
 10 20  1  0  0  0  0
 11 12  2  0  0  0  0
 11 17  1  0  0  0  0
 12 13  1  0  0  0  0
 12 37  1  0  0  0  0
 13 14  1  0  0  0  0
 13 15  2  0  0  0  0
 15 16  1  0  0  0  0
 15 28  1  0  0  0  0
 16 17  2  0  0  0  0
 16 38  1  0  0  0  0
 17 18  1  0  0  0  0
 18 19  2  0  0  0  0
 19 20  1  0  0  0  0
 19 26  1  0  0  0  0
 20 21  2  0  0  0  0
 21 22  1  0  0  0  0
 22 23  2  0  0  0  0
 22 24  1  0  0  0  0
 24 25  1  0  0  0  0
 24 26  1  0  0  0  0
 26 27  2  0  0  0  0
 28 39  1  0  0  0  0
 28 40  1  0  0  0  0
 28 41  1  0  0  0  0
 29 42  1  0  0  0  0
 30 43  1  0  0  0  0
 31 44  1  0  0  0  0
M  END
$$$$
