ISA
 OpenBabel04121316133D

 22 22  0  0  1  0  0  0  0  0999 V2000
    3.2476    0.6790   -1.6369 S   0  0  0  0  0  0  0  0  0  0  0  0
    2.7930    0.1366    0.0737 C   0  0  2  0  0  0  0  0  0  0  0  0
    1.7042    0.0300    0.0603 H   0  0  0  0  0  0  0  0  0  0  0  0
    3.0918    1.1997    1.1389 C   0  0  0  0  0  0  0  0  0  0  0  0
    3.5070    0.9503    2.2576 O   0  0  0  0  0  0  0  0  0  0  0  0
    2.8564    2.4767    0.7586 O   0  0  0  0  0  0  0  0  0  0  0  0
    3.4308   -1.2139    0.4672 C   0  0  0  0  0  0  0  0  0  0  0  0
    4.9517   -1.2519    0.4637 C   0  0  0  0  0  0  0  0  0  0  0  0
    5.7303   -0.0808    0.4776 C   0  0  0  0  0  0  0  0  0  0  0  0
    7.0965   -0.0954    0.2690 C   0  0  0  0  0  0  0  0  0  0  0  0
    7.7440   -1.3111    0.1889 C   0  0  0  0  0  0  0  0  0  0  0  0
    7.0252   -2.4987    0.3411 C   0  0  0  0  0  0  0  0  0  0  0  0
    5.6264   -2.4746    0.4320 C   0  0  0  0  0  0  0  0  0  0  0  0
    9.7735   -1.3143   -0.2080 I   0  0  0  0  0  0  0  0  0  0  0  0
    4.5742    0.4385   -1.5821 H   0  0  0  0  0  0  0  0  0  0  0  0
    2.5057    2.5517   -0.1497 H   0  0  0  0  0  0  0  0  0  0  0  0
    3.0503   -1.9900   -0.2149 H   0  0  0  0  0  0  0  0  0  0  0  0
    3.0773   -1.4996    1.4682 H   0  0  0  0  0  0  0  0  0  0  0  0
    5.3163    0.9120    0.5922 H   0  0  0  0  0  0  0  0  0  0  0  0
    7.6076    0.8578    0.1677 H   0  0  0  0  0  0  0  0  0  0  0  0
    7.5419   -3.4526    0.3686 H   0  0  0  0  0  0  0  0  0  0  0  0
    5.0762   -3.4139    0.4592 H   0  0  0  0  0  0  0  0  0  0  0  0
  1 15  1  0  0  0  0
  2  4  1  0  0  0  0
  2  7  1  0  0  0  0
  2  3  1  1  0  0  0
  2  1  1  0  0  0  0
  4  5  2  0  0  0  0
  4  6  1  0  0  0  0
  6 16  1  0  0  0  0
  7  8  1  0  0  0  0
  7 17  1  0  0  0  0
  7 18  1  0  0  0  0
  8  9  2  0  0  0  0
  8 13  1  0  0  0  0
  9 10  1  0  0  0  0
  9 19  1  0  0  0  0
 10 11  2  0  0  0  0
 10 20  1  0  0  0  0
 11 12  1  0  0  0  0
 11 14  1  0  0  0  0
 12 13  2  0  0  0  0
 12 21  1  0  0  0  0
 13 22  1  0  0  0  0
M  END
$$$$
