ISN
 OpenBabel04121316133D

 16 17  0  0  0  0  0  0  0  0999 V2000
    1.3603    0.0955    0.0451 O   0  0  0  0  0  0  0  0  0  0  0  0
    2.5684    0.1001    0.0455 C   0  0  0  0  0  0  0  0  0  0  0  0
    3.5134   -1.1469    0.0469 C   0  0  0  0  0  0  0  0  0  0  0  0
    3.1928   -2.3117    0.0476 O   0  0  0  0  0  0  0  0  0  0  0  0
    4.7904   -0.6281    0.0473 N   0  0  0  0  0  0  0  0  0  0  0  0
    4.7689    0.7587    0.0462 C   0  0  0  0  0  0  0  0  0  0  0  0
    3.4717    1.2659    0.0455 C   0  0  0  0  0  0  0  0  0  0  0  0
    3.2310    2.6281    0.0457 C   0  0  0  0  0  0  0  0  0  0  0  0
    4.3483    3.4777    0.0480 C   0  0  0  0  0  0  0  0  0  0  0  0
    5.6576    2.9569    0.0467 C   0  0  0  0  0  0  0  0  0  0  0  0
    5.8758    1.5793    0.0460 C   0  0  0  0  0  0  0  0  0  0  0  0
    5.6199   -1.2015    0.0486 H   0  0  0  0  0  0  0  0  0  0  0  0
    2.2243    3.0339    0.0445 H   0  0  0  0  0  0  0  0  0  0  0  0
    4.2133    4.5586    0.0510 H   0  0  0  0  0  0  0  0  0  0  0  0
    6.5115    3.6327    0.0461 H   0  0  0  0  0  0  0  0  0  0  0  0
    6.8805    1.1735    0.0457 H   0  0  0  0  0  0  0  0  0  0  0  0
  1  2  2  0  0  0  0
  2  3  1  0  0  0  0
  2  7  1  0  0  0  0
  3  4  2  0  0  0  0
  3  5  1  0  0  0  0
  5  6  1  0  0  0  0
  5 12  1  0  0  0  0
  6  7  2  0  0  0  0
  6 11  1  0  0  0  0
  7  8  1  0  0  0  0
  8  9  2  0  0  0  0
  8 13  1  0  0  0  0
  9 10  1  0  0  0  0
  9 14  1  0  0  0  0
 10 11  2  0  0  0  0
 10 15  1  0  0  0  0
 11 16  1  0  0  0  0
M  END
$$$$
