ITA
 OpenBabel04121316133D

 38 40  0  0  0  0  0  0  0  0999 V2000
    0.9452    0.1449   -0.0816 O   0  0  0  0  0  0  0  0  0  0  0  0
    2.2672   -0.1024    0.0538 C   0  0  0  0  0  0  0  0  0  0  0  0
    2.7028   -1.0402    0.7041 O   0  0  0  0  0  0  0  0  0  0  0  0
    3.0996    0.8746   -0.7340 C   0  0  0  0  0  0  0  0  0  0  0  0
    4.4546    0.3837   -0.4435 O   0  0  0  0  0  0  0  0  0  0  0  0
    5.4617    1.0175   -1.0501 C   0  0  0  0  0  0  0  0  0  0  0  0
    5.2200    1.9596   -1.8104 O   0  0  0  0  0  0  0  0  0  0  0  0
    6.9627    0.6322   -0.5356 C   0  0  0  0  0  0  0  0  0  0  0  0
    7.5415    2.0268   -0.7434 C   0  0  0  0  0  0  0  0  0  0  0  0
    8.8766    2.2243   -0.8202 C   0  0  0  0  0  0  0  0  0  0  0  0
    9.6650    3.4309   -0.7692 C   0  0  0  0  0  0  0  0  0  0  0  0
   11.0480    3.3483   -0.9399 C   0  0  0  0  0  0  0  0  0  0  0  0
   11.5729    2.1211   -1.1782 C   0  0  0  0  0  0  0  0  0  0  0  0
   10.7892    1.1186   -0.7000 C   0  0  0  0  0  0  0  0  0  0  0  0
    9.4558    1.0143   -0.9630 C   0  0  0  0  0  0  0  0  0  0  0  0
    8.7545   -0.2786   -0.9359 C   0  0  0  0  0  0  0  0  0  0  0  0
    7.5825   -0.7537   -0.3519 C   0  0  0  0  0  0  0  0  0  0  0  0
    9.0603   -2.3851    0.0474 S   0  0  0  0  0  0  0  0  0  0  0  0
    9.8587   -2.2237    1.2874 O   0  0  0  0  0  0  0  0  0  0  0  0
    8.5930   -3.6629   -0.3715 O   0  0  0  0  0  0  0  0  0  0  0  0
   10.1927   -2.0079   -1.2499 N   0  0  0  0  0  0  0  0  0  0  0  0
    9.1317   -1.3449   -1.8935 C   0  0  0  0  0  0  0  0  0  0  0  0
    8.2262   -1.9067   -2.4889 O   0  0  0  0  0  0  0  0  0  0  0  0
   11.4420   -1.3090   -0.8351 C   0  0  0  0  0  0  0  0  0  0  0  0
   12.8381   -1.6704   -0.5268 C   0  0  0  0  0  0  0  0  0  0  0  0
   13.2529   -2.8204   -0.4436 O   0  0  0  0  0  0  0  0  0  0  0  0
   13.6712   -0.6071   -0.2869 O   0  0  0  0  0  0  0  0  0  0  0  0
    0.5485   -0.5638   -0.6275 H   0  0  0  0  0  0  0  0  0  0  0  0
    2.9067    1.8945   -0.3642 H   0  0  0  0  0  0  0  0  0  0  0  0
    2.8369    0.8003   -1.8023 H   0  0  0  0  0  0  0  0  0  0  0  0
    6.9324    2.9169   -0.9514 H   0  0  0  0  0  0  0  0  0  0  0  0
    9.2198    4.3993   -0.5705 H   0  0  0  0  0  0  0  0  0  0  0  0
   11.7279    4.1839   -0.8492 H   0  0  0  0  0  0  0  0  0  0  0  0
   12.6087    1.9132   -1.3960 H   0  0  0  0  0  0  0  0  0  0  0  0
   10.9837    0.9242    0.3809 H   0  0  0  0  0  0  0  0  0  0  0  0
   11.2081   -0.8716    0.1386 H   0  0  0  0  0  0  0  0  0  0  0  0
   11.6097   -0.6089   -1.6662 H   0  0  0  0  0  0  0  0  0  0  0  0
   13.3502    0.3176   -0.2884 H   0  0  0  0  0  0  0  0  0  0  0  0
  1  2  1  0  0  0  0
  1 28  1  0  0  0  0
  2  3  2  0  0  0  0
  2  4  1  0  0  0  0
  4  5  1  0  0  0  0
  4 29  1  0  0  0  0
  4 30  1  0  0  0  0
  5  6  1  0  0  0  0
  6  7  2  0  0  0  0
  6  8  1  0  0  0  0
  8  9  2  0  0  0  0
  8 17  1  0  0  0  0
  9 10  1  0  0  0  0
  9 31  1  0  0  0  0
 10 11  2  0  0  0  0
 10 15  1  0  0  0  0
 11 12  1  0  0  0  0
 11 32  1  0  0  0  0
 12 13  2  0  0  0  0
 12 33  1  0  0  0  0
 13 14  1  0  0  0  0
 13 34  1  0  0  0  0
 14 15  2  0  0  0  0
 14 35  1  0  0  0  0
 15 16  1  0  0  0  0
 16 17  2  0  0  0  0
 16 22  1  0  0  0  0
 17 18  1  0  0  0  0
 18 19  2  0  0  0  0
 18 20  2  0  0  0  0
 18 21  1  0  0  0  0
 21 22  1  0  0  0  0
 21 24  1  0  0  0  0
 22 23  2  0  0  0  0
 24 25  1  0  0  0  0
 24 36  1  0  0  0  0
 24 37  1  0  0  0  0
 25 26  2  0  0  0  0
 25 27  1  0  0  0  0
 27 38  1  0  0  0  0
M  END
$$$$
