IUM
 OpenBabel04121316143D

  3  2  0  0  0  0  0  0  0  0999 V2000
    0.9552   -0.0404    0.0798 O   0  5  0  0  0  0  0  0  0  0  0  0
    3.5752   -0.0404    0.0798 U   0  0  0  0  0  0  0  0  0  0  0  0
      -nan      -nan      -nan O   0  5  0  0  0  0  0  0  0  0  0  0
  1  2  1  0  0  0  0
  2  3  1  0  0  0  0
M  CHG  3   1  -1   2   4   3  -1
M  END
$$$$
