IVA
 OpenBabel04121316143D

 17 16  0  0  0  0  0  0  0  0999 V2000
    1.0131   -0.0040    0.0334 C   0  0  0  0  0  0  0  0  0  0  0  0
    2.5445   -0.0670    0.0567 C   0  0  0  0  0  0  0  0  0  0  0  0
    3.0546   -1.5084   -0.1403 C   0  0  0  0  0  0  0  0  0  0  0  0
    2.6029   -2.4250    0.9832 C   0  0  0  0  0  0  0  0  0  0  0  0
    1.9857   -2.0691    1.9785 O   0  0  0  0  0  0  0  0  0  0  0  0
    2.9590   -3.7153    0.8100 O   0  0  0  0  0  0  0  0  0  0  0  0
    3.0897    0.8671   -1.0259 C   0  0  0  0  0  0  0  0  0  0  0  0
    0.5568   -0.6202    0.8115 H   0  0  0  0  0  0  0  0  0  0  0  0
    0.6247   -0.3516   -0.9291 H   0  0  0  0  0  0  0  0  0  0  0  0
    0.6654    1.0197    0.2017 H   0  0  0  0  0  0  0  0  0  0  0  0
    2.8974    0.2996    1.0298 H   0  0  0  0  0  0  0  0  0  0  0  0
    4.1518   -1.5109   -0.1548 H   0  0  0  0  0  0  0  0  0  0  0  0
    2.6960   -1.9016   -1.0993 H   0  0  0  0  0  0  0  0  0  0  0  0
    3.4867   -3.8944    0.0114 H   0  0  0  0  0  0  0  0  0  0  0  0
    2.7475    0.5603   -2.0203 H   0  0  0  0  0  0  0  0  0  0  0  0
    4.1838    0.8811   -1.0287 H   0  0  0  0  0  0  0  0  0  0  0  0
    2.7429    1.8933   -0.8560 H   0  0  0  0  0  0  0  0  0  0  0  0
  1  2  1  0  0  0  0
  1  8  1  0  0  0  0
  1  9  1  0  0  0  0
  1 10  1  0  0  0  0
  2  3  1  0  0  0  0
  2  7  1  0  0  0  0
  2 11  1  0  0  0  0
  3  4  1  0  0  0  0
  3 12  1  0  0  0  0
  3 13  1  0  0  0  0
  4  5  2  0  0  0  0
  4  6  1  0  0  0  0
  6 14  1  0  0  0  0
  7 15  1  0  0  0  0
  7 16  1  0  0  0  0
  7 17  1  0  0  0  0
M  END
$$$$
