IVH
 OpenBabel04121316143D

 45 47  0  0  1  0  0  0  0  0999 V2000
   12.1511   13.7093   -0.5073 C   0  0  0  0  0  0  0  0  0  0  0  0
   12.1240   12.2052   -0.7378 C   0  0  0  0  0  0  0  0  0  0  0  0
   10.7617   11.5965   -0.3891 C   0  0  0  0  0  0  0  0  0  0  0  0
   10.7558   10.0798   -0.6418 C   0  0  0  0  0  0  0  0  0  0  0  0
    9.1157    9.3920   -0.3024 S   0  0  0  0  0  0  0  0  0  0  0  0
    9.3630    7.6558   -0.6806 C   0  0  0  0  0  0  0  0  0  0  0  0
    8.8760    7.2646   -1.8721 N   0  0  0  0  0  0  0  0  0  0  0  0
    8.7442    5.9445   -2.1308 C   0  0  0  0  0  0  0  0  0  0  0  0
    8.2731    5.5642   -3.3652 N   0  0  0  0  0  0  0  0  0  0  0  0
    9.0403    5.0182   -1.1191 C   0  0  0  0  0  0  0  0  0  0  0  0
    9.5186    5.5352    0.0596 C   0  0  0  0  0  0  0  0  0  0  0  0
    9.7852    6.8385    0.3135 N   0  0  0  0  0  0  0  0  0  0  0  0
    9.5511    4.4573    0.9236 N   0  0  0  0  0  0  0  0  0  0  0  0
    9.2862    3.3378    0.1753 C   0  0  0  0  0  0  0  0  0  0  0  0
    8.9522    3.6414   -1.0597 N   0  0  0  0  0  0  0  0  0  0  0  0
    9.9426    4.4322    2.3260 C   0  0  2  0  0  0  0  0  0  0  0  0
   10.1471    3.3867    2.5890 H   0  0  0  0  0  0  0  0  0  0  0  0
    8.8622    4.8450    3.1965 O   0  0  0  0  0  0  0  0  0  0  0  0
    8.9966    6.2622    3.4278 C   0  0  1  0  0  0  0  0  0  0  0  0
    8.7175    6.4907    4.4641 H   0  0  0  0  0  0  0  0  0  0  0  0
   10.4931    6.5942    3.2253 C   0  0  2  0  0  0  0  0  0  0  0  0
   10.6373    7.4681    2.5861 H   0  0  0  0  0  0  0  0  0  0  0  0
   11.1289    5.3399    2.6041 C   0  0  1  0  0  0  0  0  0  0  0  0
   11.6673    5.5759    1.6819 H   0  0  0  0  0  0  0  0  0  0  0  0
   12.0966    4.6752    3.4288 O   0  0  0  0  0  0  0  0  0  0  0  0
   11.1223    6.9133    4.4757 O   0  0  0  0  0  0  0  0  0  0  0  0
    7.9468    6.9586    2.5466 C   0  0  0  0  0  0  0  0  0  0  0  0
    8.1544    8.3469    2.4302 O   0  0  0  0  0  0  0  0  0  0  0  0
   13.1340   14.1158   -0.7679 H   0  0  0  0  0  0  0  0  0  0  0  0
   11.9528   13.9508    0.5418 H   0  0  0  0  0  0  0  0  0  0  0  0
   11.4021   14.2158   -1.1245 H   0  0  0  0  0  0  0  0  0  0  0  0
   12.9064   11.7359   -0.1305 H   0  0  0  0  0  0  0  0  0  0  0  0
   12.3611   12.0019   -1.7885 H   0  0  0  0  0  0  0  0  0  0  0  0
    9.9889   12.0901   -0.9934 H   0  0  0  0  0  0  0  0  0  0  0  0
   10.5329   11.8125    0.6633 H   0  0  0  0  0  0  0  0  0  0  0  0
   11.4953    9.5930    0.0009 H   0  0  0  0  0  0  0  0  0  0  0  0
   11.0038    9.8779   -1.6872 H   0  0  0  0  0  0  0  0  0  0  0  0
    8.2623    6.2848   -4.0716 H   0  0  0  0  0  0  0  0  0  0  0  0
    8.3889    4.5889   -3.6103 H   0  0  0  0  0  0  0  0  0  0  0  0
    9.3547    2.3317    0.5767 H   0  0  0  0  0  0  0  0  0  0  0  0
   11.7161    4.4925    4.3005 H   0  0  0  0  0  0  0  0  0  0  0  0
   10.9960    6.1764    5.0927 H   0  0  0  0  0  0  0  0  0  0  0  0
    6.9355    6.7753    2.9231 H   0  0  0  0  0  0  0  0  0  0  0  0
    7.8804    6.5187    1.5553 H   0  0  0  0  0  0  0  0  0  0  0  0
    7.9307    8.7774    3.2673 H   0  0  0  0  0  0  0  0  0  0  0  0
  1  2  1  0  0  0  0
  1 29  1  0  0  0  0
  1 30  1  0  0  0  0
  1 31  1  0  0  0  0
  2  3  1  0  0  0  0
  2 32  1  0  0  0  0
  2 33  1  0  0  0  0
  3  4  1  0  0  0  0
  3 34  1  0  0  0  0
  3 35  1  0  0  0  0
  4  5  1  0  0  0  0
  4 36  1  0  0  0  0
  4 37  1  0  0  0  0
  5  6  1  0  0  0  0
  6  7  2  0  0  0  0
  6 12  1  0  0  0  0
  7  8  1  0  0  0  0
  8  9  1  0  0  0  0
  8 10  2  0  0  0  0
  9 38  1  0  0  0  0
  9 39  1  0  0  0  0
 10 11  1  0  0  0  0
 10 15  1  0  0  0  0
 11 12  2  0  0  0  0
 11 13  1  0  0  0  0
 13 14  1  0  0  0  0
 14 15  2  0  0  0  0
 14 40  1  0  0  0  0
 16 18  1  0  0  0  0
 16 23  1  0  0  0  0
 16 17  1  1  0  0  0
 16 13  1  0  0  0  0
 18 19  1  0  0  0  0
 19 20  1  1  0  0  0
 19 21  1  0  0  0  0
 19 27  1  0  0  0  0
 21 23  1  0  0  0  0
 21 26  1  0  0  0  0
 21 22  1  6  0  0  0
 23 25  1  0  0  0  0
 23 24  1  6  0  0  0
 25 41  1  0  0  0  0
 26 42  1  0  0  0  0
 27 28  1  0  0  0  0
 27 43  1  0  0  0  0
 27 44  1  0  0  0  0
 28 45  1  0  0  0  0
M  END
$$$$
