IW2
 OpenBabel04121316143D

 29 30  0  0  0  0  0  0  0  0999 V2000
    1.0968    0.6500   -0.1458 Cl  0  0  0  0  0  0  0  0  0  0  0  0
    2.7832    0.2899    0.0333 C   0  0  0  0  0  0  0  0  0  0  0  0
    3.5670    1.4393    0.0712 C   0  0  0  0  0  0  0  0  0  0  0  0
    4.9254    1.3596    0.3308 C   0  0  0  0  0  0  0  0  0  0  0  0
    5.5482    0.1209    0.3603 C   0  0  0  0  0  0  0  0  0  0  0  0
    4.7900   -1.0395    0.2358 C   0  0  0  0  0  0  0  0  0  0  0  0
    3.3777   -0.9829    0.1704 C   0  0  0  0  0  0  0  0  0  0  0  0
    2.6486   -2.2949    0.3072 C   0  0  0  0  0  0  0  0  0  0  0  0
    1.1328   -2.2424    0.3525 C   0  0  0  0  0  0  0  0  0  0  0  0
    0.4370   -3.5542    0.5247 C   0  0  0  0  0  0  0  0  0  0  0  0
    1.1102   -4.7634    0.3672 C   0  0  0  0  0  0  0  0  0  0  0  0
    0.4205   -5.9577    0.5091 C   0  0  0  0  0  0  0  0  0  0  0  0
    1.3942   -7.5667    0.2952 Br  0  0  0  0  0  0  0  0  0  0  0  0
   -0.9419   -5.9458    0.8008 C   0  0  0  0  0  0  0  0  0  0  0  0
   -1.6252   -4.7388    0.9450 C   0  0  0  0  0  0  0  0  0  0  0  0
   -0.9357   -3.5358    0.8017 C   0  0  0  0  0  0  0  0  0  0  0  0
   -3.4763   -4.6674    1.3359 Br  0  0  0  0  0  0  0  0  0  0  0  0
   -1.6121   -7.1323    0.9468 O   0  0  0  0  0  0  0  0  0  0  0  0
    5.6650   -2.5388    0.1710 Cl  0  0  0  0  0  0  0  0  0  0  0  0
    3.0998    2.4101   -0.0732 H   0  0  0  0  0  0  0  0  0  0  0  0
    5.4894    2.2695    0.4976 H   0  0  0  0  0  0  0  0  0  0  0  0
    6.6255    0.0623    0.4843 H   0  0  0  0  0  0  0  0  0  0  0  0
    2.9900   -2.7726    1.2408 H   0  0  0  0  0  0  0  0  0  0  0  0
    2.9601   -2.9362   -0.5269 H   0  0  0  0  0  0  0  0  0  0  0  0
    0.7681   -1.8403   -0.5973 H   0  0  0  0  0  0  0  0  0  0  0  0
    0.8298   -1.6083    1.1948 H   0  0  0  0  0  0  0  0  0  0  0  0
    2.1686   -4.7950    0.1344 H   0  0  0  0  0  0  0  0  0  0  0  0
   -1.4564   -2.5843    0.9025 H   0  0  0  0  0  0  0  0  0  0  0  0
   -0.9571   -7.8385    0.8123 H   0  0  0  0  0  0  0  0  0  0  0  0
  1  2  1  0  0  0  0
  2  3  2  0  0  0  0
  2  7  1  0  0  0  0
  3  4  1  0  0  0  0
  3 20  1  0  0  0  0
  4  5  2  0  0  0  0
  4 21  1  0  0  0  0
  5  6  1  0  0  0  0
  5 22  1  0  0  0  0
  6  7  2  0  0  0  0
  6 19  1  0  0  0  0
  7  8  1  0  0  0  0
  8  9  1  0  0  0  0
  8 23  1  0  0  0  0
  8 24  1  0  0  0  0
  9 10  1  0  0  0  0
  9 25  1  0  0  0  0
  9 26  1  0  0  0  0
 10 11  2  0  0  0  0
 10 16  1  0  0  0  0
 11 12  1  0  0  0  0
 11 27  1  0  0  0  0
 12 13  1  0  0  0  0
 12 14  2  0  0  0  0
 14 15  1  0  0  0  0
 14 18  1  0  0  0  0
 15 16  2  0  0  0  0
 15 17  1  0  0  0  0
 16 28  1  0  0  0  0
 18 29  1  0  0  0  0
M  END
$$$$
