IW4
 OpenBabel04121316143D

 30 31  0  0  0  0  0  0  0  0999 V2000
    0.9126    0.0726    0.1657 N   0  0  0  0  0  0  0  0  0  0  0  0
    2.2901    0.0628   -0.0757 C   0  0  0  0  0  0  0  0  0  0  0  0
    3.0322    1.2409   -0.1265 C   0  0  0  0  0  0  0  0  0  0  0  0
    4.4270    1.2108   -0.2236 C   0  0  0  0  0  0  0  0  0  0  0  0
    5.0858   -0.0063   -0.3441 C   0  0  0  0  0  0  0  0  0  0  0  0
    4.3577   -1.1938   -0.2643 C   0  0  0  0  0  0  0  0  0  0  0  0
    2.9780   -1.1419   -0.0385 C   0  0  0  0  0  0  0  0  0  0  0  0
    5.0606   -2.4594   -0.4625 C   0  0  0  0  0  0  0  0  0  0  0  0
    4.4650   -3.6533   -0.4659 C   0  0  0  0  0  0  0  0  0  0  0  0
    5.1570   -4.9129   -0.7213 C   0  0  0  0  0  0  0  0  0  0  0  0
    6.4689   -4.9456   -1.1960 C   0  0  0  0  0  0  0  0  0  0  0  0
    7.1007   -6.1594   -1.4231 C   0  0  0  0  0  0  0  0  0  0  0  0
    8.8960   -6.1011   -2.0476 Br  0  0  0  0  0  0  0  0  0  0  0  0
    6.4371   -7.3720   -1.1947 C   0  0  0  0  0  0  0  0  0  0  0  0
    5.1081   -7.3251   -0.7383 C   0  0  0  0  0  0  0  0  0  0  0  0
    4.4697   -6.1084   -0.5036 C   0  0  0  0  0  0  0  0  0  0  0  0
    4.1222   -8.9177   -0.4114 Br  0  0  0  0  0  0  0  0  0  0  0  0
    7.0774   -8.5771   -1.4469 N   0  0  0  0  0  0  0  0  0  0  0  0
    0.4371    0.8878   -0.2047 H   0  0  0  0  0  0  0  0  0  0  0  0
    0.4472   -0.7934   -0.0946 H   0  0  0  0  0  0  0  0  0  0  0  0
    2.5284    2.2002   -0.0876 H   0  0  0  0  0  0  0  0  0  0  0  0
    4.9992    2.1333   -0.2113 H   0  0  0  0  0  0  0  0  0  0  0  0
    6.1641   -0.0195   -0.4939 H   0  0  0  0  0  0  0  0  0  0  0  0
    2.4079   -2.0456    0.1426 H   0  0  0  0  0  0  0  0  0  0  0  0
    6.1241   -2.3504   -0.6607 H   0  0  0  0  0  0  0  0  0  0  0  0
    3.3998   -3.7597   -0.2781 H   0  0  0  0  0  0  0  0  0  0  0  0
    7.0180   -4.0325   -1.3986 H   0  0  0  0  0  0  0  0  0  0  0  0
    3.4402   -6.0934   -0.1476 H   0  0  0  0  0  0  0  0  0  0  0  0
    8.0422   -8.5647   -1.7522 H   0  0  0  0  0  0  0  0  0  0  0  0
    6.6062   -9.4510   -1.2612 H   0  0  0  0  0  0  0  0  0  0  0  0
  1  2  1  0  0  0  0
  1 19  1  0  0  0  0
  1 20  1  0  0  0  0
  2  3  2  0  0  0  0
  2  7  1  0  0  0  0
  3  4  1  0  0  0  0
  3 21  1  0  0  0  0
  4  5  2  0  0  0  0
  4 22  1  0  0  0  0
  5  6  1  0  0  0  0
  5 23  1  0  0  0  0
  6  7  2  0  0  0  0
  6  8  1  0  0  0  0
  7 24  1  0  0  0  0
  8  9  2  0  0  0  0
  8 25  1  0  0  0  0
  9 10  1  0  0  0  0
  9 26  1  0  0  0  0
 10 11  2  0  0  0  0
 10 16  1  0  0  0  0
 11 12  1  0  0  0  0
 11 27  1  0  0  0  0
 12 13  1  0  0  0  0
 12 14  2  0  0  0  0
 14 15  1  0  0  0  0
 14 18  1  0  0  0  0
 15 16  2  0  0  0  0
 15 17  1  0  0  0  0
 16 28  1  0  0  0  0
 18 29  1  0  0  0  0
 18 30  1  0  0  0  0
M  END
$$$$
