IW6
 OpenBabel04121316143D

 36 37  0  0  0  0  0  0  0  0999 V2000
    0.8914    0.4100   -0.3504 C   0  0  0  0  0  0  0  0  0  0  0  0
    2.3232    0.3945   -0.2812 O   0  0  0  0  0  0  0  0  0  0  0  0
    2.9479   -0.6691   -0.8884 C   0  0  0  0  0  0  0  0  0  0  0  0
    4.0235   -0.3261   -1.7057 C   0  0  0  0  0  0  0  0  0  0  0  0
    4.7753   -1.3182   -2.3228 C   0  0  0  0  0  0  0  0  0  0  0  0
    4.3182   -2.6325   -2.2998 C   0  0  0  0  0  0  0  0  0  0  0  0
    3.2199   -2.9974   -1.5077 C   0  0  0  0  0  0  0  0  0  0  0  0
    2.6516   -2.0247   -0.6515 C   0  0  0  0  0  0  0  0  0  0  0  0
    1.7753   -2.3595    0.4749 C   0  0  0  0  0  0  0  0  0  0  0  0
    1.5100   -1.6836    1.5864 C   0  0  0  0  0  0  0  0  0  0  0  0
    0.3853   -2.1412    2.3952 C   0  0  0  0  0  0  0  0  0  0  0  0
    0.2154   -3.5112    2.6130 C   0  0  0  0  0  0  0  0  0  0  0  0
   -0.7435   -3.9578    3.4979 C   0  0  0  0  0  0  0  0  0  0  0  0
   -0.8225   -5.8307    3.8032 Br  0  0  0  0  0  0  0  0  0  0  0  0
   -1.5388   -3.0462    4.2019 C   0  0  0  0  0  0  0  0  0  0  0  0
   -1.4373   -1.6773    3.8774 C   0  0  0  0  0  0  0  0  0  0  0  0
   -0.4875   -1.2213    2.9663 C   0  0  0  0  0  0  0  0  0  0  0  0
   -2.5019   -0.3766    4.7650 Br  0  0  0  0  0  0  0  0  0  0  0  0
   -2.5094   -3.5201    5.0867 N   0  0  0  0  0  0  0  0  0  0  0  0
    2.8737   -4.3159   -1.7053 O   0  0  0  0  0  0  0  0  0  0  0  0
    1.7079   -4.8316   -1.0863 C   0  0  0  0  0  0  0  0  0  0  0  0
    0.5398    1.0533    0.4645 H   0  0  0  0  0  0  0  0  0  0  0  0
    0.3839   -0.5491   -0.2224 H   0  0  0  0  0  0  0  0  0  0  0  0
    0.5651    0.8062   -1.3090 H   0  0  0  0  0  0  0  0  0  0  0  0
    4.2776    0.7197   -1.8469 H   0  0  0  0  0  0  0  0  0  0  0  0
    5.6905   -1.0642   -2.8491 H   0  0  0  0  0  0  0  0  0  0  0  0
    4.8260   -3.3852   -2.9002 H   0  0  0  0  0  0  0  0  0  0  0  0
    1.1725   -3.2292    0.3324 H   0  0  0  0  0  0  0  0  0  0  0  0
    1.9618   -0.7267    1.8459 H   0  0  0  0  0  0  0  0  0  0  0  0
    0.8539   -4.2402    2.1219 H   0  0  0  0  0  0  0  0  0  0  0  0
   -0.4109   -0.1616    2.7248 H   0  0  0  0  0  0  0  0  0  0  0  0
   -2.3811   -4.4753    5.4085 H   0  0  0  0  0  0  0  0  0  0  0  0
   -2.9111   -2.8527    5.7347 H   0  0  0  0  0  0  0  0  0  0  0  0
    1.4481   -5.8139   -1.4843 H   0  0  0  0  0  0  0  0  0  0  0  0
    0.8332   -4.1946   -1.2757 H   0  0  0  0  0  0  0  0  0  0  0  0
    1.9248   -4.9896   -0.0244 H   0  0  0  0  0  0  0  0  0  0  0  0
  1  2  1  0  0  0  0
  1 22  1  0  0  0  0
  1 23  1  0  0  0  0
  1 24  1  0  0  0  0
  2  3  1  0  0  0  0
  3  4  2  0  0  0  0
  3  8  1  0  0  0  0
  4  5  1  0  0  0  0
  4 25  1  0  0  0  0
  5  6  2  0  0  0  0
  5 26  1  0  0  0  0
  6  7  1  0  0  0  0
  6 27  1  0  0  0  0
  7  8  2  0  0  0  0
  7 20  1  0  0  0  0
  8  9  1  0  0  0  0
  9 10  2  0  0  0  0
  9 28  1  0  0  0  0
 10 11  1  0  0  0  0
 10 29  1  0  0  0  0
 11 12  2  0  0  0  0
 11 17  1  0  0  0  0
 12 13  1  0  0  0  0
 12 30  1  0  0  0  0
 13 14  1  0  0  0  0
 13 15  2  0  0  0  0
 15 16  1  0  0  0  0
 15 19  1  0  0  0  0
 16 17  2  0  0  0  0
 16 18  1  0  0  0  0
 17 31  1  0  0  0  0
 19 32  1  0  0  0  0
 19 33  1  0  0  0  0
 20 21  1  0  0  0  0
 21 34  1  0  0  0  0
 21 35  1  0  0  0  0
 21 36  1  0  0  0  0
M  END
$$$$
