IXH
 OpenBabel04121316143D

 69 74  0  0  1  0  0  0  0  0999 V2000
    2.9972    0.4064    1.4507 C   0  0  0  0  0  0  0  0  0  0  0  0
    2.5069    0.0447    0.0546 C   0  0  2  0  0  0  0  0  0  0  0  0
    1.4078    0.0371    0.0698 H   0  0  0  0  0  0  0  0  0  0  0  0
    2.9789   -1.3203   -0.2879 N   0  0  0  0  0  0  0  0  0  0  0  0
    2.5352   -1.6622   -1.6616 C   0  0  2  0  0  0  0  0  0  0  0  0
    1.4365   -1.6731   -1.6784 H   0  0  0  0  0  0  0  0  0  0  0  0
    3.0425   -3.0448   -2.0312 C   0  0  0  0  0  0  0  0  0  0  0  0
    3.0273   -0.6361   -2.7037 C   0  0  0  0  0  0  0  0  0  0  0  0
    2.5149    0.6754   -2.3109 N   0  0  0  0  0  0  0  0  0  0  0  0
    2.9665    1.1069   -0.9803 C   0  0  0  0  0  0  0  0  0  0  0  0
    1.8432    1.4775   -3.1948 C   0  0  0  0  0  0  0  0  0  0  0  0
    1.0267    0.9600   -4.2160 C   0  0  0  0  0  0  0  0  0  0  0  0
    0.5311    1.7699   -5.2473 C   0  0  0  0  0  0  0  0  0  0  0  0
    0.7326    3.1445   -5.2004 C   0  0  0  0  0  0  0  0  0  0  0  0
    1.3508    3.6707   -4.0635 C   0  0  0  0  0  0  0  0  0  0  0  0
    1.9525    2.8573   -3.1204 C   0  0  0  0  0  0  0  0  0  0  0  0
    0.4362    3.9700   -6.2919 N   0  0  0  0  0  0  0  0  0  0  0  0
    0.7049    5.3339   -6.3495 C   0  0  0  0  0  0  0  0  0  0  0  0
    1.9076    5.7859   -5.9936 N   0  0  0  0  0  0  0  0  0  0  0  0
    2.0569    7.1107   -5.9065 C   0  0  0  0  0  0  0  0  0  0  0  0
    1.0375    7.9977   -6.1533 C   0  0  0  0  0  0  0  0  0  0  0  0
   -0.1881    7.4909   -6.5207 C   0  0  0  0  0  0  0  0  0  0  0  0
   -0.2994    6.1528   -6.6528 N   0  0  0  0  0  0  0  0  0  0  0  0
   -1.3129    8.3963   -6.7578 N   0  0  0  0  0  0  0  0  0  0  0  0
   -1.0180    9.7651   -6.6612 C   0  0  0  0  0  0  0  0  0  0  0  0
    0.1644   10.3269   -6.3498 C   0  0  0  0  0  0  0  0  0  0  0  0
    1.2862    9.4190   -6.0595 C   0  0  0  0  0  0  0  0  0  0  0  0
    2.4116    9.8185   -5.7629 O   0  0  0  0  0  0  0  0  0  0  0  0
    0.3033   11.8077   -6.3168 C   0  0  0  0  0  0  0  0  0  0  0  0
   -0.6160   12.5690   -6.5563 O   0  0  0  0  0  0  0  0  0  0  0  0
    1.5492   12.2623   -5.9988 N   0  0  0  0  0  0  0  0  0  0  0  0
   -2.6480    7.9232   -7.0907 C   0  0  0  0  0  0  0  0  0  0  0  0
   -3.7678    8.7459   -7.3658 C   0  0  0  0  0  0  0  0  0  0  0  0
   -5.0475    8.2133   -7.7070 C   0  0  0  0  0  0  0  0  0  0  0  0
   -5.2245    6.8394   -7.7731 C   0  0  0  0  0  0  0  0  0  0  0  0
   -4.1445    6.0402   -7.5016 C   0  0  0  0  0  0  0  0  0  0  0  0
   -2.9153    6.5555   -7.1647 C   0  0  0  0  0  0  0  0  0  0  0  0
   -4.3913    4.5840   -7.6058 C   0  0  0  0  0  0  0  0  0  0  0  0
   -5.8680    4.5297   -7.9606 C   0  0  0  0  0  0  0  0  0  0  0  0
   -6.4115    5.9815   -8.0813 C   0  0  0  0  0  0  0  0  0  0  0  0
    4.0911    0.4244    1.4965 H   0  0  0  0  0  0  0  0  0  0  0  0
    2.6344   -0.3168    2.1888 H   0  0  0  0  0  0  0  0  0  0  0  0
    2.6287    1.3949    1.7459 H   0  0  0  0  0  0  0  0  0  0  0  0
    2.5835   -1.9884    0.3701 H   0  0  0  0  0  0  0  0  0  0  0  0
    2.6909   -3.7924   -1.3146 H   0  0  0  0  0  0  0  0  0  0  0  0
    4.1370   -3.0702   -2.0551 H   0  0  0  0  0  0  0  0  0  0  0  0
    2.6756   -3.3280   -3.0237 H   0  0  0  0  0  0  0  0  0  0  0  0
    2.7196   -0.9395   -3.7103 H   0  0  0  0  0  0  0  0  0  0  0  0
    4.1260   -0.6046   -2.7230 H   0  0  0  0  0  0  0  0  0  0  0  0
    2.5527    2.0765   -0.6830 H   0  0  0  0  0  0  0  0  0  0  0  0
    4.0608    1.2022   -0.9751 H   0  0  0  0  0  0  0  0  0  0  0  0
    0.7728   -0.0970   -4.2292 H   0  0  0  0  0  0  0  0  0  0  0  0
    0.0077    1.3072   -6.0791 H   0  0  0  0  0  0  0  0  0  0  0  0
    1.4370    4.7404   -3.9120 H   0  0  0  0  0  0  0  0  0  0  0  0
    2.5649    3.3419   -2.3689 H   0  0  0  0  0  0  0  0  0  0  0  0
   -0.2310    3.6473   -6.9720 H   0  0  0  0  0  0  0  0  0  0  0  0
    3.0489    7.4382   -5.6135 H   0  0  0  0  0  0  0  0  0  0  0  0
   -1.8476   10.4292   -6.8749 H   0  0  0  0  0  0  0  0  0  0  0  0
    2.3181   11.6211   -5.8012 H   0  0  0  0  0  0  0  0  0  0  0  0
    1.7273   13.2538   -5.9543 H   0  0  0  0  0  0  0  0  0  0  0  0
   -3.6991    9.8288   -7.3269 H   0  0  0  0  0  0  0  0  0  0  0  0
   -5.8669    8.8978   -7.9115 H   0  0  0  0  0  0  0  0  0  0  0  0
   -2.2060    5.7762   -6.9696 H   0  0  0  0  0  0  0  0  0  0  0  0
   -4.1709    4.0976   -6.6499 H   0  0  0  0  0  0  0  0  0  0  0  0
   -3.7566    4.1601   -8.3913 H   0  0  0  0  0  0  0  0  0  0  0  0
   -6.4032    3.9659   -7.1871 H   0  0  0  0  0  0  0  0  0  0  0  0
   -5.9969    3.9647   -8.8915 H   0  0  0  0  0  0  0  0  0  0  0  0
   -7.2134    6.1362   -7.3533 H   0  0  0  0  0  0  0  0  0  0  0  0
   -6.7930    6.1599   -9.0909 H   0  0  0  0  0  0  0  0  0  0  0  0
  1 41  1  0  0  0  0
  1 42  1  0  0  0  0
  1 43  1  0  0  0  0
  2  4  1  0  0  0  0
  2 10  1  0  0  0  0
  2  3  1  1  0  0  0
  2  1  1  0  0  0  0
  4  5  1  0  0  0  0
  4 44  1  0  0  0  0
  5  6  1  6  0  0  0
  5  7  1  0  0  0  0
  5  8  1  0  0  0  0
  7 45  1  0  0  0  0
  7 46  1  0  0  0  0
  7 47  1  0  0  0  0
  8  9  1  0  0  0  0
  8 48  1  0  0  0  0
  8 49  1  0  0  0  0
  9 10  1  0  0  0  0
  9 11  1  0  0  0  0
 10 50  1  0  0  0  0
 10 51  1  0  0  0  0
 11 12  2  0  0  0  0
 11 16  1  0  0  0  0
 12 13  1  0  0  0  0
 12 52  1  0  0  0  0
 13 14  2  0  0  0  0
 13 53  1  0  0  0  0
 14 15  1  0  0  0  0
 14 17  1  0  0  0  0
 15 16  2  0  0  0  0
 15 54  1  0  0  0  0
 16 55  1  0  0  0  0
 17 18  1  0  0  0  0
 17 56  1  0  0  0  0
 18 19  2  0  0  0  0
 18 23  1  0  0  0  0
 19 20  1  0  0  0  0
 20 21  2  0  0  0  0
 20 57  1  0  0  0  0
 21 22  1  0  0  0  0
 21 27  1  0  0  0  0
 22 23  2  0  0  0  0
 22 24  1  0  0  0  0
 24 25  1  0  0  0  0
 24 32  1  0  0  0  0
 25 26  2  0  0  0  0
 25 58  1  0  0  0  0
 26 27  1  0  0  0  0
 26 29  1  0  0  0  0
 27 28  2  0  0  0  0
 29 30  2  0  0  0  0
 29 31  1  0  0  0  0
 31 59  1  0  0  0  0
 31 60  1  0  0  0  0
 32 33  2  0  0  0  0
 32 37  1  0  0  0  0
 33 34  1  0  0  0  0
 33 61  1  0  0  0  0
 34 35  2  0  0  0  0
 34 62  1  0  0  0  0
 35 36  1  0  0  0  0
 35 40  1  0  0  0  0
 36 37  2  0  0  0  0
 36 38  1  0  0  0  0
 37 63  1  0  0  0  0
 38 39  1  0  0  0  0
 38 64  1  0  0  0  0
 38 65  1  0  0  0  0
 39 40  1  0  0  0  0
 39 66  1  0  0  0  0
 39 67  1  0  0  0  0
 40 68  1  0  0  0  0
 40 69  1  0  0  0  0
M  END
$$$$
