IZA
 OpenBabel04121316143D

 39 42  0  0  0  0  0  0  0  0999 V2000
    0.9930   -0.0147   -0.0561 F   0  0  0  0  0  0  0  0  0  0  0  0
    2.3322   -0.0053   -0.0567 C   0  0  0  0  0  0  0  0  0  0  0  0
    3.0337   -1.1966   -0.0577 C   0  0  0  0  0  0  0  0  0  0  0  0
    4.4278   -1.1669   -0.0587 C   0  0  0  0  0  0  0  0  0  0  0  0
    5.1165    0.0685   -0.0584 C   0  0  0  0  0  0  0  0  0  0  0  0
    4.4048    1.2983   -0.0575 C   0  0  0  0  0  0  0  0  0  0  0  0
    2.9944    1.2134   -0.0565 C   0  0  0  0  0  0  0  0  0  0  0  0
    5.1418    2.5109   -0.0578 C   0  0  0  0  0  0  0  0  0  0  0  0
    4.4670    3.8530   -0.0569 C   0  0  0  0  0  0  0  0  0  0  0  0
    3.2526    4.0292   -0.0549 O   0  0  0  0  0  0  0  0  0  0  0  0
    5.2819    4.9571   -0.0581 N   0  0  0  0  0  0  0  0  0  0  0  0
    4.7805    5.8379   -0.0577 H   0  0  0  0  0  0  0  0  0  0  0  0
    6.6445    4.9268   -0.0601 C   0  0  0  0  0  0  0  0  0  0  0  0
    7.3150    3.7710   -0.0608 C   0  0  0  0  0  0  0  0  0  0  0  0
    6.5586    2.5212   -0.0592 C   0  0  0  0  0  0  0  0  0  0  0  0
    7.2234    1.2885   -0.0592 C   0  0  0  0  0  0  0  0  0  0  0  0
    6.5383    0.0770   -0.0590 C   0  0  0  0  0  0  0  0  0  0  0  0
    7.4269   -0.9743   -0.0596 N   0  0  0  0  0  0  0  0  0  0  0  0
    8.6349   -0.4475   -0.0600 C   0  0  0  0  0  0  0  0  0  0  0  0
    8.5518    0.9260   -0.0593 N   0  0  0  0  0  0  0  0  0  0  0  0
    9.3402    1.5568   -0.0590 H   0  0  0  0  0  0  0  0  0  0  0  0
    9.9424   -1.2121   -0.0614 C   0  0  0  0  0  0  0  0  0  0  0  0
   10.7645   -0.8746   -1.3155 C   0  0  0  0  0  0  0  0  0  0  0  0
   10.7663   -0.8763    1.1920 C   0  0  0  0  0  0  0  0  0  0  0  0
    9.6442   -2.7241   -0.0622 C   0  0  0  0  0  0  0  0  0  0  0  0
    2.4877   -2.1329   -0.0576 H   0  0  0  0  0  0  0  0  0  0  0  0
    4.9810   -2.1046   -0.0597 H   0  0  0  0  0  0  0  0  0  0  0  0
    2.3592    2.0910   -0.0555 H   0  0  0  0  0  0  0  0  0  0  0  0
    7.1393    5.8918   -0.0612 H   0  0  0  0  0  0  0  0  0  0  0  0
    8.3968    3.7633   -0.0629 H   0  0  0  0  0  0  0  0  0  0  0  0
   11.0300    0.1882   -1.3508 H   0  0  0  0  0  0  0  0  0  0  0  0
   10.2077   -1.1069   -2.2305 H   0  0  0  0  0  0  0  0  0  0  0  0
   11.6995   -1.4472   -1.3387 H   0  0  0  0  0  0  0  0  0  0  0  0
   11.0319    0.1864    1.2284 H   0  0  0  0  0  0  0  0  0  0  0  0
   11.7013   -1.4490    1.2131 H   0  0  0  0  0  0  0  0  0  0  0  0
   10.2110   -1.1100    2.1075 H   0  0  0  0  0  0  0  0  0  0  0  0
    9.0611   -3.0110   -0.9459 H   0  0  0  0  0  0  0  0  0  0  0  0
    9.0624   -3.0122    0.8218 H   0  0  0  0  0  0  0  0  0  0  0  0
   10.5657   -3.3159   -0.0633 H   0  0  0  0  0  0  0  0  0  0  0  0
  1  2  1  0  0  0  0
  2  3  2  0  0  0  0
  2  7  1  0  0  0  0
  3  4  1  0  0  0  0
  3 26  1  0  0  0  0
  4  5  2  0  0  0  0
  4 27  1  0  0  0  0
  5  6  1  0  0  0  0
  5 17  1  0  0  0  0
  6  7  2  0  0  0  0
  6  8  1  0  0  0  0
  7 28  1  0  0  0  0
  8  9  1  0  0  0  0
  8 15  2  0  0  0  0
  9 10  2  0  0  0  0
  9 11  1  0  0  0  0
 11 12  1  0  0  0  0
 11 13  1  0  0  0  0
 13 14  2  0  0  0  0
 13 29  1  0  0  0  0
 14 15  1  0  0  0  0
 14 30  1  0  0  0  0
 15 16  1  0  0  0  0
 16 17  2  0  0  0  0
 16 20  1  0  0  0  0
 17 18  1  0  0  0  0
 18 19  2  0  0  0  0
 19 20  1  0  0  0  0
 19 22  1  0  0  0  0
 20 21  1  0  0  0  0
 22 23  1  0  0  0  0
 22 24  1  0  0  0  0
 22 25  1  0  0  0  0
 23 31  1  0  0  0  0
 23 32  1  0  0  0  0
 23 33  1  0  0  0  0
 24 34  1  0  0  0  0
 24 35  1  0  0  0  0
 24 36  1  0  0  0  0
 25 37  1  0  0  0  0
 25 38  1  0  0  0  0
 25 39  1  0  0  0  0
M  END
$$$$
