IZG
 OpenBabel04121316143D

 43 45  0  0  1  0  0  0  0  0999 V2000
    1.0371   -0.0192   -0.4650 O   0  0  0  0  0  0  0  0  0  0  0  0
    2.4318   -0.0519   -0.1870 C   0  0  0  0  0  0  0  0  0  0  0  0
    2.8988    1.2297    0.5264 C   0  0  1  0  0  0  0  0  0  0  0  0
    2.5576    2.1027   -0.0411 H   0  0  0  0  0  0  0  0  0  0  0  0
    2.3893    1.3633    1.9809 C   0  0  0  0  0  0  0  0  0  0  0  0
    0.9361    1.3603    2.0930 N   0  0  0  0  0  0  0  0  0  0  0  0
    0.1994    2.5082    1.9943 C   0  0  0  0  0  0  0  0  0  0  0  0
   -1.0908    2.5591    1.9518 N   0  0  0  0  0  0  0  0  0  0  0  0
   -1.7758    1.3682    1.9773 C   0  0  0  0  0  0  0  0  0  0  0  0
   -1.1743    0.1573    2.0279 C   0  0  0  0  0  0  0  0  0  0  0  0
    0.3046    0.1411    2.1376 C   0  0  0  0  0  0  0  0  0  0  0  0
    0.9150   -0.9293    2.2311 O   0  0  0  0  0  0  0  0  0  0  0  0
   -1.9350   -1.0909    2.1320 C   0  0  0  0  0  0  0  0  0  0  0  0
   -1.2671   -2.3213    2.0883 N   0  0  0  0  0  0  0  0  0  0  0  0
   -1.8490   -3.5866    1.8674 C   0  0  0  0  0  0  0  0  0  0  0  0
   -1.1797   -4.7564    2.2308 C   0  0  0  0  0  0  0  0  0  0  0  0
   -1.8156   -5.9979    2.0666 C   0  0  0  0  0  0  0  0  0  0  0  0
   -3.1806   -6.0556    1.7709 C   0  0  0  0  0  0  0  0  0  0  0  0
   -3.8920   -4.8963    1.5602 C   0  0  0  0  0  0  0  0  0  0  0  0
   -3.1680   -3.7355    1.4074 C   0  0  0  0  0  0  0  0  0  0  0  0
   -3.7670   -2.7505    0.7194 F   0  0  0  0  0  0  0  0  0  0  0  0
   -4.1387   -7.8542    1.4074 I   0  0  0  0  0  0  0  0  0  0  0  0
   -3.2435   -0.9319    2.3840 C   0  0  0  0  0  0  0  0  0  0  0  0
   -3.9708    0.3102    2.0988 C   0  0  0  0  0  0  0  0  0  0  0  0
   -5.1888    0.2917    2.0122 O   0  0  0  0  0  0  0  0  0  0  0  0
   -3.1710    1.4377    1.9784 N   0  0  0  0  0  0  0  0  0  0  0  0
   -3.8803    2.7000    1.9635 C   0  0  0  0  0  0  0  0  0  0  0  0
   -4.0366   -1.9142    2.8570 F   0  0  0  0  0  0  0  0  0  0  0  0
    4.3311    1.2574    0.5580 O   0  0  0  0  0  0  0  0  0  0  0  0
    0.7332   -0.9453   -0.5105 H   0  0  0  0  0  0  0  0  0  0  0  0
    2.9384   -0.1612   -1.1490 H   0  0  0  0  0  0  0  0  0  0  0  0
    2.6872   -0.9368    0.4086 H   0  0  0  0  0  0  0  0  0  0  0  0
    2.7817    2.2886    2.4217 H   0  0  0  0  0  0  0  0  0  0  0  0
    2.8040    0.5459    2.5862 H   0  0  0  0  0  0  0  0  0  0  0  0
    0.7932    3.4367    1.9668 H   0  0  0  0  0  0  0  0  0  0  0  0
   -0.2439   -2.2742    2.0643 H   0  0  0  0  0  0  0  0  0  0  0  0
   -0.1582   -4.7243    2.6030 H   0  0  0  0  0  0  0  0  0  0  0  0
   -1.2383   -6.9118    2.1683 H   0  0  0  0  0  0  0  0  0  0  0  0
   -4.9647   -4.8577    1.4088 H   0  0  0  0  0  0  0  0  0  0  0  0
   -4.9662    2.5467    1.9721 H   0  0  0  0  0  0  0  0  0  0  0  0
   -3.6310    3.2619    1.0625 H   0  0  0  0  0  0  0  0  0  0  0  0
   -3.6319    3.2541    2.8722 H   0  0  0  0  0  0  0  0  0  0  0  0
    4.6487    1.1790   -0.3594 H   0  0  0  0  0  0  0  0  0  0  0  0
  1  2  1  0  0  0  0
  1 30  1  0  0  0  0
  2  3  1  0  0  0  0
  2 31  1  0  0  0  0
  2 32  1  0  0  0  0
  3  4  1  6  0  0  0
  3  5  1  0  0  0  0
  3 29  1  0  0  0  0
  5  6  1  0  0  0  0
  5 33  1  0  0  0  0
  5 34  1  0  0  0  0
  6  7  1  0  0  0  0
  6 11  1  0  0  0  0
  7  8  2  0  0  0  0
  7 35  1  0  0  0  0
  8  9  1  0  0  0  0
  9 10  2  0  0  0  0
  9 26  1  0  0  0  0
 10 11  1  0  0  0  0
 10 13  1  0  0  0  0
 11 12  2  0  0  0  0
 13 14  1  0  0  0  0
 13 23  2  0  0  0  0
 14 15  1  0  0  0  0
 14 36  1  0  0  0  0
 15 16  2  0  0  0  0
 15 20  1  0  0  0  0
 16 17  1  0  0  0  0
 16 37  1  0  0  0  0
 17 18  2  0  0  0  0
 17 38  1  0  0  0  0
 18 19  1  0  0  0  0
 18 22  1  0  0  0  0
 19 20  2  0  0  0  0
 19 39  1  0  0  0  0
 20 21  1  0  0  0  0
 23 24  1  0  0  0  0
 23 28  1  0  0  0  0
 24 25  2  0  0  0  0
 24 26  1  0  0  0  0
 26 27  1  0  0  0  0
 27 40  1  0  0  0  0
 27 41  1  0  0  0  0
 27 42  1  0  0  0  0
 29 43  1  0  0  0  0
M  END
$$$$
