IZP
 OpenBabel04121316143D

 33 33  0  0  1  0  0  0  0  0999 V2000
    1.2525  -11.4299   -1.6191 C   0  0  0  0  0  0  0  0  0  0  0  0
   -0.1561  -10.9293   -1.9871 C   0  0  0  0  0  0  0  0  0  0  0  0
   -0.2299   -9.4088   -2.2137 C   0  0  0  0  0  0  0  0  0  0  0  0
   -0.0384   -8.5612   -0.9804 C   0  0  0  0  0  0  0  0  0  0  0  0
   -0.2481   -7.1813   -1.0644 C   0  0  0  0  0  0  0  0  0  0  0  0
    0.1387   -6.3494   -0.0142 C   0  0  0  0  0  0  0  0  0  0  0  0
    0.6942   -6.9009    1.1466 C   0  0  0  0  0  0  0  0  0  0  0  0
    0.7080   -8.2823    1.3025 C   0  0  0  0  0  0  0  0  0  0  0  0
    0.3674   -9.0932    0.2449 C   0  0  0  0  0  0  0  0  0  0  0  0
    1.2565   -6.0417    2.2512 C   0  0  2  0  0  0  0  0  0  0  0  0
    1.6765   -5.1241    1.8204 H   0  0  0  0  0  0  0  0  0  0  0  0
    2.4020   -6.7410    2.9939 C   0  0  0  0  0  0  0  0  0  0  0  0
    2.3978   -6.9959    4.1950 O   0  0  0  0  0  0  0  0  0  0  0  0
    3.4383   -7.1158    2.2030 O   0  0  0  0  0  0  0  0  0  0  0  0
    0.1282   -5.6869    3.2131 C   0  0  0  0  0  0  0  0  0  0  0  0
   -0.5709  -11.6591   -3.2617 C   0  0  0  0  0  0  0  0  0  0  0  0
    1.7076  -10.9698   -0.7422 H   0  0  0  0  0  0  0  0  0  0  0  0
    1.9547  -11.2421   -2.4346 H   0  0  0  0  0  0  0  0  0  0  0  0
    1.2178  -12.5025   -1.4062 H   0  0  0  0  0  0  0  0  0  0  0  0
   -0.8704  -11.1939   -1.1949 H   0  0  0  0  0  0  0  0  0  0  0  0
   -1.2108   -9.1526   -2.6364 H   0  0  0  0  0  0  0  0  0  0  0  0
    0.5222   -9.1176   -2.9614 H   0  0  0  0  0  0  0  0  0  0  0  0
   -0.7045   -6.7518   -1.9542 H   0  0  0  0  0  0  0  0  0  0  0  0
    0.0110   -5.2746   -0.1160 H   0  0  0  0  0  0  0  0  0  0  0  0
    1.0234   -8.7584    2.2298 H   0  0  0  0  0  0  0  0  0  0  0  0
    0.4544  -10.1543    0.4356 H   0  0  0  0  0  0  0  0  0  0  0  0
    3.2854   -6.9711    1.2475 H   0  0  0  0  0  0  0  0  0  0  0  0
    0.4997   -5.0495    4.0199 H   0  0  0  0  0  0  0  0  0  0  0  0
   -0.3002   -6.5884    3.6687 H   0  0  0  0  0  0  0  0  0  0  0  0
   -0.6834   -5.1594    2.7004 H   0  0  0  0  0  0  0  0  0  0  0  0
    0.1439  -11.4565   -4.0668 H   0  0  0  0  0  0  0  0  0  0  0  0
   -1.5644  -11.3507   -3.5984 H   0  0  0  0  0  0  0  0  0  0  0  0
   -0.5877  -12.7392   -3.0851 H   0  0  0  0  0  0  0  0  0  0  0  0
  1  2  1  0  0  0  0
  1 17  1  0  0  0  0
  1 18  1  0  0  0  0
  1 19  1  0  0  0  0
  2  3  1  0  0  0  0
  2 16  1  0  0  0  0
  2 20  1  0  0  0  0
  3  4  1  0  0  0  0
  3 21  1  0  0  0  0
  3 22  1  0  0  0  0
  4  5  2  0  0  0  0
  4  9  1  0  0  0  0
  5  6  1  0  0  0  0
  5 23  1  0  0  0  0
  6  7  2  0  0  0  0
  6 24  1  0  0  0  0
  7  8  1  0  0  0  0
  8  9  2  0  0  0  0
  8 25  1  0  0  0  0
  9 26  1  0  0  0  0
 10 12  1  0  0  0  0
 10 15  1  0  0  0  0
 10 11  1  6  0  0  0
 10  7  1  0  0  0  0
 12 13  2  0  0  0  0
 12 14  1  0  0  0  0
 14 27  1  0  0  0  0
 15 28  1  0  0  0  0
 15 29  1  0  0  0  0
 15 30  1  0  0  0  0
 16 31  1  0  0  0  0
 16 32  1  0  0  0  0
 16 33  1  0  0  0  0
M  END
$$$$
