IZX
 OpenBabel04121316143D

 51 55  0  0  1  0  0  0  0  0999 V2000
    1.0435    0.1719    0.0684 N   0  0  0  0  0  0  0  0  0  0  0  0
    2.4842    0.0991    0.0864 C   0  0  0  0  0  0  0  0  0  0  0  0
    2.9477   -1.2089   -0.4845 C   0  0  0  0  0  0  0  0  0  0  0  0
    2.3325   -2.6294    0.2417 S   0  0  0  0  0  0  0  0  0  0  0  0
    3.0918   -3.6400   -0.8993 C   0  0  0  0  0  0  0  0  0  0  0  0
    3.9048   -2.9362   -1.7874 C   0  0  0  0  0  0  0  0  0  0  0  0
    3.8134   -1.5158   -1.5233 C   0  0  0  0  0  0  0  0  0  0  0  0
    4.6334   -3.6907   -2.7524 C   0  0  0  0  0  0  0  0  0  0  0  0
    4.5268   -5.0884   -2.7424 C   0  0  0  0  0  0  0  0  0  0  0  0
    3.6668   -5.7452   -1.8838 C   0  0  0  0  0  0  0  0  0  0  0  0
    2.9388   -5.0307   -0.9518 C   0  0  0  0  0  0  0  0  0  0  0  0
    5.3930   -3.0089   -3.6631 O   0  0  0  0  0  0  0  0  0  0  0  0
    6.1040   -3.7338   -4.6977 C   0  0  1  0  0  0  0  0  0  0  0  0
    6.7840   -4.4558   -4.2303 H   0  0  0  0  0  0  0  0  0  0  0  0
    5.1015   -4.3682   -5.6374 C   0  0  0  0  0  0  0  0  0  0  0  0
    5.1647   -5.7256   -5.8379 O   0  0  0  0  0  0  0  0  0  0  0  0
    4.1132   -6.0451   -6.7154 N   0  0  0  0  0  0  0  0  0  0  0  0
    3.5551   -4.8525   -6.9857 C   0  0  0  0  0  0  0  0  0  0  0  0
    4.1410   -3.8047   -6.3102 N   0  0  0  0  0  0  0  0  0  0  0  0
    2.5079   -4.5785   -7.9620 C   0  0  0  0  0  0  0  0  0  0  0  0
    1.7586   -5.5734   -8.5991 C   0  0  0  0  0  0  0  0  0  0  0  0
    0.8829   -5.2291   -9.6388 C   0  0  0  0  0  0  0  0  0  0  0  0
    0.6894   -3.8911   -9.9899 C   0  0  0  0  0  0  0  0  0  0  0  0
    1.3511   -2.8895   -9.2911 C   0  0  0  0  0  0  0  0  0  0  0  0
    2.2759   -3.2351   -8.3107 C   0  0  0  0  0  0  0  0  0  0  0  0
    6.9427   -2.7197   -5.4725 C   0  0  0  0  0  0  0  0  0  0  0  0
    6.7792   -1.3374   -5.2734 C   0  0  0  0  0  0  0  0  0  0  0  0
    7.2873   -0.4256   -6.1921 C   0  0  0  0  0  0  0  0  0  0  0  0
    8.0609   -0.8758   -7.2563 C   0  0  0  0  0  0  0  0  0  0  0  0
    8.3628   -2.2313   -7.3773 C   0  0  0  0  0  0  0  0  0  0  0  0
    7.7866   -3.1555   -6.5069 C   0  0  0  0  0  0  0  0  0  0  0  0
    2.9078    1.2257   -0.6913 N   0  0  0  0  0  0  0  0  0  0  0  0
    0.6967   -0.6150    0.6183 H   0  0  0  0  0  0  0  0  0  0  0  0
    0.7223   -0.0134   -0.8771 H   0  0  0  0  0  0  0  0  0  0  0  0
    2.8461    0.2018    1.1159 H   0  0  0  0  0  0  0  0  0  0  0  0
    4.3493   -0.7668   -2.0975 H   0  0  0  0  0  0  0  0  0  0  0  0
    5.0926   -5.7183   -3.4148 H   0  0  0  0  0  0  0  0  0  0  0  0
    3.5681   -6.8240   -1.9420 H   0  0  0  0  0  0  0  0  0  0  0  0
    2.2722   -5.5359   -0.2621 H   0  0  0  0  0  0  0  0  0  0  0  0
    1.8528   -6.6175   -8.3094 H   0  0  0  0  0  0  0  0  0  0  0  0
    0.3513   -6.0052  -10.1845 H   0  0  0  0  0  0  0  0  0  0  0  0
    0.0216   -3.6263  -10.8055 H   0  0  0  0  0  0  0  0  0  0  0  0
    1.1700   -1.8418   -9.5138 H   0  0  0  0  0  0  0  0  0  0  0  0
    2.8398   -2.4409   -7.8226 H   0  0  0  0  0  0  0  0  0  0  0  0
    6.2004   -0.9566   -4.4344 H   0  0  0  0  0  0  0  0  0  0  0  0
    7.0503    0.6297   -6.0887 H   0  0  0  0  0  0  0  0  0  0  0  0
    8.4254   -0.1677   -7.9946 H   0  0  0  0  0  0  0  0  0  0  0  0
    9.0131   -2.5725   -8.1779 H   0  0  0  0  0  0  0  0  0  0  0  0
    7.9534   -4.2172   -6.6792 H   0  0  0  0  0  0  0  0  0  0  0  0
    2.5838    1.1041   -1.6439 H   0  0  0  0  0  0  0  0  0  0  0  0
    3.9225    1.2392   -0.7137 H   0  0  0  0  0  0  0  0  0  0  0  0
  1  2  1  0  0  0  0
  1 33  1  0  0  0  0
  1 34  1  0  0  0  0
  2  3  1  0  0  0  0
  2 32  1  0  0  0  0
  2 35  1  0  0  0  0
  3  4  1  0  0  0  0
  3  7  2  0  0  0  0
  4  5  1  0  0  0  0
  5  6  2  0  0  0  0
  5 11  1  0  0  0  0
  6  7  1  0  0  0  0
  6  8  1  0  0  0  0
  7 36  1  0  0  0  0
  8  9  2  0  0  0  0
  8 12  1  0  0  0  0
  9 10  1  0  0  0  0
  9 37  1  0  0  0  0
 10 11  2  0  0  0  0
 10 38  1  0  0  0  0
 11 39  1  0  0  0  0
 12 13  1  0  0  0  0
 13 14  1  1  0  0  0
 13 15  1  0  0  0  0
 13 26  1  0  0  0  0
 15 16  1  0  0  0  0
 15 19  2  0  0  0  0
 16 17  1  0  0  0  0
 17 18  2  0  0  0  0
 18 19  1  0  0  0  0
 18 20  1  0  0  0  0
 20 21  2  0  0  0  0
 20 25  1  0  0  0  0
 21 22  1  0  0  0  0
 21 40  1  0  0  0  0
 22 23  2  0  0  0  0
 22 41  1  0  0  0  0
 23 24  1  0  0  0  0
 23 42  1  0  0  0  0
 24 25  2  0  0  0  0
 24 43  1  0  0  0  0
 25 44  1  0  0  0  0
 26 27  2  0  0  0  0
 26 31  1  0  0  0  0
 27 28  1  0  0  0  0
 27 45  1  0  0  0  0
 28 29  2  0  0  0  0
 28 46  1  0  0  0  0
 29 30  1  0  0  0  0
 29 47  1  0  0  0  0
 30 31  2  0  0  0  0
 30 48  1  0  0  0  0
 31 49  1  0  0  0  0
 32 50  1  0  0  0  0
 32 51  1  0  0  0  0
M  END
$$$$
