J07
 OpenBabel04121316143D

 51 54  0  0  0  0  0  0  0  0999 V2000
    1.0351   -0.0597   -0.0855 C   0  0  0  0  0  0  0  0  0  0  0  0
    2.5554   -0.0795   -0.0802 C   0  0  0  0  0  0  0  0  0  0  0  0
    3.0845   -1.0745    0.8357 N   0  0  0  0  0  0  0  0  0  0  0  0
    4.4316   -1.1692    1.0907 C   0  0  0  0  0  0  0  0  0  0  0  0
    5.2526   -0.4560    0.5062 O   0  0  0  0  0  0  0  0  0  0  0  0
    4.7971   -2.1049    2.0465 N   0  0  0  0  0  0  0  0  0  0  0  0
    3.9517   -3.1962    2.5203 C   0  0  0  0  0  0  0  0  0  0  0  0
    4.6449   -4.5423    2.3121 C   0  0  0  0  0  0  0  0  0  0  0  0
    6.0146   -4.5897    3.0064 C   0  0  0  0  0  0  0  0  0  0  0  0
    6.8613   -3.4209    2.4735 C   0  0  0  0  0  0  0  0  0  0  0  0
    6.1491   -2.0772    2.6230 C   0  0  0  0  0  0  0  0  0  0  0  0
    5.8062   -4.6562    4.4646 N   0  0  0  0  0  0  0  0  0  0  0  0
    6.9372   -4.5404    5.2543 C   0  0  0  0  0  0  0  0  0  0  0  0
    7.3513   -3.3309    5.6402 N   0  0  0  0  0  0  0  0  0  0  0  0
    8.4395   -3.3043    6.4443 C   0  0  0  0  0  0  0  0  0  0  0  0
    9.0872   -4.4188    6.9350 C   0  0  0  0  0  0  0  0  0  0  0  0
    8.5552   -5.6287    6.5266 C   0  0  0  0  0  0  0  0  0  0  0  0
    7.5004   -5.6733    5.6710 N   0  0  0  0  0  0  0  0  0  0  0  0
    9.0068   -6.9669    6.9457 C   0  0  0  0  0  0  0  0  0  0  0  0
   10.0498   -7.2396    7.8102 C   0  0  0  0  0  0  0  0  0  0  0  0
   10.1522   -8.5913    7.9882 N   0  0  0  0  0  0  0  0  0  0  0  0
   10.8321   -9.0428    8.5836 H   0  0  0  0  0  0  0  0  0  0  0  0
    9.1980   -9.2380    7.2505 C   0  0  0  0  0  0  0  0  0  0  0  0
    8.4653   -8.2573    6.5775 C   0  0  0  0  0  0  0  0  0  0  0  0
    7.4130   -8.6892    5.7382 C   0  0  0  0  0  0  0  0  0  0  0  0
    7.1350  -10.0533    5.6089 C   0  0  0  0  0  0  0  0  0  0  0  0
    7.8858  -10.9963    6.3029 C   0  0  0  0  0  0  0  0  0  0  0  0
    8.9350  -10.6069    7.1373 C   0  0  0  0  0  0  0  0  0  0  0  0
   10.4324   -4.1361    7.9667 Cl  0  0  0  0  0  0  0  0  0  0  0  0
    0.6610    0.6632   -0.8180 H   0  0  0  0  0  0  0  0  0  0  0  0
    0.6412    0.2213    0.8977 H   0  0  0  0  0  0  0  0  0  0  0  0
    0.6286   -1.0444   -0.3376 H   0  0  0  0  0  0  0  0  0  0  0  0
    2.9421    0.9081    0.1966 H   0  0  0  0  0  0  0  0  0  0  0  0
    2.9318   -0.3202   -1.0796 H   0  0  0  0  0  0  0  0  0  0  0  0
    2.4481   -1.4471    1.5206 H   0  0  0  0  0  0  0  0  0  0  0  0
    2.9934   -3.2276    2.0007 H   0  0  0  0  0  0  0  0  0  0  0  0
    3.7439   -3.0100    3.5796 H   0  0  0  0  0  0  0  0  0  0  0  0
    4.7901   -4.6950    1.2335 H   0  0  0  0  0  0  0  0  0  0  0  0
    4.0006   -5.3503    2.6722 H   0  0  0  0  0  0  0  0  0  0  0  0
    6.5049   -5.5268    2.7138 H   0  0  0  0  0  0  0  0  0  0  0  0
    7.0477   -3.5918    1.4019 H   0  0  0  0  0  0  0  0  0  0  0  0
    7.8502   -3.3923    2.9434 H   0  0  0  0  0  0  0  0  0  0  0  0
    6.7557   -1.2782    2.1828 H   0  0  0  0  0  0  0  0  0  0  0  0
    6.0379   -1.8396    3.6868 H   0  0  0  0  0  0  0  0  0  0  0  0
    5.0963   -4.0323    4.8227 H   0  0  0  0  0  0  0  0  0  0  0  0
    8.8009   -2.3119    6.7059 H   0  0  0  0  0  0  0  0  0  0  0  0
   10.7489   -6.6175    8.3418 H   0  0  0  0  0  0  0  0  0  0  0  0
    6.8126   -7.9682    5.1901 H   0  0  0  0  0  0  0  0  0  0  0  0
    6.3226  -10.3704    4.9609 H   0  0  0  0  0  0  0  0  0  0  0  0
    7.6529  -12.0521    6.1950 H   0  0  0  0  0  0  0  0  0  0  0  0
    9.5212  -11.3425    7.6779 H   0  0  0  0  0  0  0  0  0  0  0  0
  1  2  1  0  0  0  0
  1 30  1  0  0  0  0
  1 31  1  0  0  0  0
  1 32  1  0  0  0  0
  2  3  1  0  0  0  0
  2 33  1  0  0  0  0
  2 34  1  0  0  0  0
  3  4  1  0  0  0  0
  3 35  1  0  0  0  0
  4  5  2  0  0  0  0
  4  6  1  0  0  0  0
  6  7  1  0  0  0  0
  6 11  1  0  0  0  0
  7  8  1  0  0  0  0
  7 36  1  0  0  0  0
  7 37  1  0  0  0  0
  8  9  1  0  0  0  0
  8 38  1  0  0  0  0
  8 39  1  0  0  0  0
  9 10  1  0  0  0  0
  9 12  1  0  0  0  0
  9 40  1  0  0  0  0
 10 11  1  0  0  0  0
 10 41  1  0  0  0  0
 10 42  1  0  0  0  0
 11 43  1  0  0  0  0
 11 44  1  0  0  0  0
 12 13  1  0  0  0  0
 12 45  1  0  0  0  0
 13 14  2  0  0  0  0
 13 18  1  0  0  0  0
 14 15  1  0  0  0  0
 15 16  2  0  0  0  0
 15 46  1  0  0  0  0
 16 17  1  0  0  0  0
 16 29  1  0  0  0  0
 17 18  2  0  0  0  0
 17 19  1  0  0  0  0
 19 20  2  0  0  0  0
 19 24  1  0  0  0  0
 20 21  1  0  0  0  0
 20 47  1  0  0  0  0
 21 22  1  0  0  0  0
 21 23  1  0  0  0  0
 23 24  2  0  0  0  0
 23 28  1  0  0  0  0
 24 25  1  0  0  0  0
 25 26  2  0  0  0  0
 25 48  1  0  0  0  0
 26 27  1  0  0  0  0
 26 49  1  0  0  0  0
 27 28  2  0  0  0  0
 27 50  1  0  0  0  0
 28 51  1  0  0  0  0
M  END
$$$$
