J11
 OpenBabel04121316143D

 57 59  0  0  1  0  0  0  0  0999 V2000
    0.9934    0.1555    0.1796 F   0  0  0  0  0  0  0  0  0  0  0  0
    2.3299    0.1344    0.0985 C   0  0  0  0  0  0  0  0  0  0  0  0
    3.0439    1.3166    0.0136 C   0  0  0  0  0  0  0  0  0  0  0  0
    4.4347    1.2739   -0.0841 C   0  0  0  0  0  0  0  0  0  0  0  0
    5.0920    0.0482   -0.2053 C   0  0  0  0  0  0  0  0  0  0  0  0
    4.3686   -1.1477   -0.1437 C   0  0  0  0  0  0  0  0  0  0  0  0
    2.9828   -1.0845    0.0797 C   0  0  0  0  0  0  0  0  0  0  0  0
    5.0913   -2.4537   -0.3787 C   0  0  0  0  0  0  0  0  0  0  0  0
    4.1488   -3.6462   -0.2735 C   0  0  0  0  0  0  0  0  0  0  0  0
    4.8200   -4.9081   -0.5153 N   0  0  0  0  0  0  0  0  0  0  0  0
    3.8331   -5.9762   -0.3191 C   0  0  0  0  0  0  0  0  0  0  0  0
    4.5217   -7.3026   -0.5847 C   0  0  0  0  0  0  0  0  0  0  0  0
    3.6059   -8.4322   -0.4001 N   0  0  0  0  0  0  0  0  0  0  0  0
    4.3644   -9.6687   -0.6391 C   0  0  1  0  0  0  0  0  0  0  0  0
    4.9576   -9.5669   -1.5600 H   0  0  0  0  0  0  0  0  0  0  0  0
    5.2885   -9.9592    0.5316 C   0  0  0  0  0  0  0  0  0  0  0  0
    5.6243  -11.3652    0.3621 N   0  0  0  0  0  0  0  0  0  0  0  0
    4.3847  -12.0166   -0.0660 C   0  0  0  0  0  0  0  0  0  0  0  0
    3.5222  -10.9485   -0.7644 C   0  0  2  0  0  0  0  0  0  0  0  0
    2.5715  -10.8509   -0.2204 H   0  0  0  0  0  0  0  0  0  0  0  0
    3.2348  -11.3325   -2.2286 C   0  0  0  0  0  0  0  0  0  0  0  0
    2.3872  -10.3283   -2.9756 C   0  0  0  0  0  0  0  0  0  0  0  0
    1.2997  -10.7529   -3.7226 C   0  0  0  0  0  0  0  0  0  0  0  0
    0.5451   -9.7905   -4.3867 C   0  0  0  0  0  0  0  0  0  0  0  0
   -0.6192  -10.1732   -5.2384 C   0  0  0  0  0  0  0  0  0  0  0  0
    0.8781   -8.4436   -4.2616 C   0  0  0  0  0  0  0  0  0  0  0  0
    1.9960   -8.0914   -3.5316 C   0  0  0  0  0  0  0  0  0  0  0  0
    2.7468   -9.0210   -2.9225 N   0  0  0  0  0  0  0  0  0  0  0  0
    2.2627   -6.7692   -3.2612 N   0  0  0  0  0  0  0  0  0  0  0  0
    2.5109    2.2594    0.0265 H   0  0  0  0  0  0  0  0  0  0  0  0
    5.0073    2.1963   -0.0885 H   0  0  0  0  0  0  0  0  0  0  0  0
    6.1691    0.0282   -0.3628 H   0  0  0  0  0  0  0  0  0  0  0  0
    2.3666   -1.9679    0.2131 H   0  0  0  0  0  0  0  0  0  0  0  0
    5.9103   -2.5567    0.3439 H   0  0  0  0  0  0  0  0  0  0  0  0
    5.5337   -2.4322   -1.3844 H   0  0  0  0  0  0  0  0  0  0  0  0
    3.3423   -3.5366   -1.0109 H   0  0  0  0  0  0  0  0  0  0  0  0
    3.7056   -3.6641    0.7305 H   0  0  0  0  0  0  0  0  0  0  0  0
    5.5748   -5.0274    0.1608 H   0  0  0  0  0  0  0  0  0  0  0  0
    2.9852   -5.8292   -0.9936 H   0  0  0  0  0  0  0  0  0  0  0  0
    3.4383   -5.9581    0.7035 H   0  0  0  0  0  0  0  0  0  0  0  0
    5.3639   -7.3770    0.1102 H   0  0  0  0  0  0  0  0  0  0  0  0
    4.9330   -7.3076   -1.6035 H   0  0  0  0  0  0  0  0  0  0  0  0
    2.9004   -8.3758   -1.1511 H   0  0  0  0  0  0  0  0  0  0  0  0
    4.7754   -9.7858    1.4858 H   0  0  0  0  0  0  0  0  0  0  0  0
    6.1864   -9.3361    0.4970 H   0  0  0  0  0  0  0  0  0  0  0  0
    5.9502  -11.7415    1.2494 H   0  0  0  0  0  0  0  0  0  0  0  0
    3.8544  -12.4115    0.8080 H   0  0  0  0  0  0  0  0  0  0  0  0
    4.6287  -12.8613   -0.7175 H   0  0  0  0  0  0  0  0  0  0  0  0
    2.7376  -12.3131   -2.2351 H   0  0  0  0  0  0  0  0  0  0  0  0
    4.1731  -11.4662   -2.7822 H   0  0  0  0  0  0  0  0  0  0  0  0
    1.0478  -11.8052   -3.7850 H   0  0  0  0  0  0  0  0  0  0  0  0
   -0.7663  -11.2564   -5.2446 H   0  0  0  0  0  0  0  0  0  0  0  0
   -0.4351   -9.8446   -6.2656 H   0  0  0  0  0  0  0  0  0  0  0  0
   -1.5273   -9.6994   -4.8559 H   0  0  0  0  0  0  0  0  0  0  0  0
    0.2888   -7.6736   -4.7404 H   0  0  0  0  0  0  0  0  0  0  0  0
    1.9197   -6.0604   -3.8901 H   0  0  0  0  0  0  0  0  0  0  0  0
    3.1953   -6.6181   -2.8877 H   0  0  0  0  0  0  0  0  0  0  0  0
  1  2  1  0  0  0  0
  2  3  2  0  0  0  0
  2  7  1  0  0  0  0
  3  4  1  0  0  0  0
  3 30  1  0  0  0  0
  4  5  2  0  0  0  0
  4 31  1  0  0  0  0
  5  6  1  0  0  0  0
  5 32  1  0  0  0  0
  6  7  2  0  0  0  0
  6  8  1  0  0  0  0
  7 33  1  0  0  0  0
  8  9  1  0  0  0  0
  8 34  1  0  0  0  0
  8 35  1  0  0  0  0
  9 10  1  0  0  0  0
  9 36  1  0  0  0  0
  9 37  1  0  0  0  0
 10 11  1  0  0  0  0
 10 38  1  0  0  0  0
 11 12  1  0  0  0  0
 11 39  1  0  0  0  0
 11 40  1  0  0  0  0
 12 13  1  0  0  0  0
 12 41  1  0  0  0  0
 12 42  1  0  0  0  0
 13 14  1  0  0  0  0
 13 43  1  0  0  0  0
 14 15  1  6  0  0  0
 14 16  1  0  0  0  0
 14 19  1  0  0  0  0
 16 17  1  0  0  0  0
 16 44  1  0  0  0  0
 16 45  1  0  0  0  0
 17 18  1  0  0  0  0
 17 46  1  0  0  0  0
 18 19  1  0  0  0  0
 18 47  1  0  0  0  0
 18 48  1  0  0  0  0
 19 20  1  1  0  0  0
 19 21  1  0  0  0  0
 21 22  1  0  0  0  0
 21 49  1  0  0  0  0
 21 50  1  0  0  0  0
 22 23  2  0  0  0  0
 22 28  1  0  0  0  0
 23 24  1  0  0  0  0
 23 51  1  0  0  0  0
 24 25  1  0  0  0  0
 24 26  2  0  0  0  0
 25 52  1  0  0  0  0
 25 53  1  0  0  0  0
 25 54  1  0  0  0  0
 26 27  1  0  0  0  0
 26 55  1  0  0  0  0
 27 28  2  0  0  0  0
 27 29  1  0  0  0  0
 29 56  1  0  0  0  0
 29 57  1  0  0  0  0
M  END
$$$$
