J14
 OpenBabel04121316143D

 57 59  0  0  1  0  0  0  0  0999 V2000
    7.1615  -10.5180  -10.8423 F   0  0  0  0  0  0  0  0  0  0  0  0
    7.0179  -11.7455  -10.3272 C   0  0  0  0  0  0  0  0  0  0  0  0
    7.1260  -12.8626  -11.1350 C   0  0  0  0  0  0  0  0  0  0  0  0
    6.9597  -14.1323  -10.5805 C   0  0  0  0  0  0  0  0  0  0  0  0
    6.5875  -14.2721   -9.2424 C   0  0  0  0  0  0  0  0  0  0  0  0
    6.4541  -13.1424   -8.4307 C   0  0  0  0  0  0  0  0  0  0  0  0
    6.7391  -11.8796   -8.9807 C   0  0  0  0  0  0  0  0  0  0  0  0
    5.9543  -13.3118   -7.0152 C   0  0  0  0  0  0  0  0  0  0  0  0
    5.8933  -11.9694   -6.3033 C   0  0  0  0  0  0  0  0  0  0  0  0
    5.4265  -12.0644   -4.9431 N   0  0  0  0  0  0  0  0  0  0  0  0
    5.4870  -10.7075   -4.3695 C   0  0  0  0  0  0  0  0  0  0  0  0
    4.9748  -10.8464   -2.9595 C   0  0  0  0  0  0  0  0  0  0  0  0
    4.8339   -9.5957   -2.1975 N   0  0  0  0  0  0  0  0  0  0  0  0
    4.2272   -9.7773   -0.8378 C   0  0  2  0  0  0  0  0  0  0  0  0
    3.6299   -8.8826   -0.6346 H   0  0  0  0  0  0  0  0  0  0  0  0
    5.2526   -9.9729    0.2892 C   0  0  0  0  0  0  0  0  0  0  0  0
    5.5895  -11.3985    0.2575 N   0  0  0  0  0  0  0  0  0  0  0  0
    4.3518  -12.1021   -0.0781 C   0  0  0  0  0  0  0  0  0  0  0  0
    3.4139  -11.0603   -0.7059 C   0  0  1  0  0  0  0  0  0  0  0  0
    3.1475  -11.3198   -1.7072 H   0  0  0  0  0  0  0  0  0  0  0  0
    2.0290  -11.0074   -0.0868 C   0  0  0  0  0  0  0  0  0  0  0  0
    1.1454  -12.1460   -0.6026 C   0  0  0  0  0  0  0  0  0  0  0  0
    1.5732  -13.0674   -1.5772 C   0  0  0  0  0  0  0  0  0  0  0  0
    0.7086  -14.0282   -2.0744 C   0  0  0  0  0  0  0  0  0  0  0  0
    1.1611  -14.9833   -3.1350 C   0  0  0  0  0  0  0  0  0  0  0  0
   -0.5726  -14.0624   -1.5575 C   0  0  0  0  0  0  0  0  0  0  0  0
   -0.9428  -13.1381   -0.5820 C   0  0  0  0  0  0  0  0  0  0  0  0
   -0.1099  -12.1870   -0.1128 N   0  0  0  0  0  0  0  0  0  0  0  0
   -2.2162  -13.1544   -0.0819 N   0  0  0  0  0  0  0  0  0  0  0  0
    7.3401  -12.7337  -12.1886 H   0  0  0  0  0  0  0  0  0  0  0  0
    7.0986  -15.0154  -11.1959 H   0  0  0  0  0  0  0  0  0  0  0  0
    6.3876  -15.2627   -8.8379 H   0  0  0  0  0  0  0  0  0  0  0  0
    6.7246  -10.9635   -8.3986 H   0  0  0  0  0  0  0  0  0  0  0  0
    6.6090  -14.0016   -6.4683 H   0  0  0  0  0  0  0  0  0  0  0  0
    4.9497  -13.7567   -7.0447 H   0  0  0  0  0  0  0  0  0  0  0  0
    5.2123  -11.3024   -6.8485 H   0  0  0  0  0  0  0  0  0  0  0  0
    6.8959  -11.5257   -6.2903 H   0  0  0  0  0  0  0  0  0  0  0  0
    6.0251  -12.6925   -4.4058 H   0  0  0  0  0  0  0  0  0  0  0  0
    4.8190  -10.0422   -4.9325 H   0  0  0  0  0  0  0  0  0  0  0  0
    6.5013  -10.3023   -4.3793 H   0  0  0  0  0  0  0  0  0  0  0  0
    5.6031  -11.5646   -2.4246 H   0  0  0  0  0  0  0  0  0  0  0  0
    4.0007  -11.3001   -3.1623 H   0  0  0  0  0  0  0  0  0  0  0  0
    4.2174   -8.9871   -2.7372 H   0  0  0  0  0  0  0  0  0  0  0  0
    4.7725   -9.7461    1.2506 H   0  0  0  0  0  0  0  0  0  0  0  0
    6.1346   -9.3338    0.1939 H   0  0  0  0  0  0  0  0  0  0  0  0
    5.9649  -11.7105    1.1502 H   0  0  0  0  0  0  0  0  0  0  0  0
    3.9165  -12.5733    0.8072 H   0  0  0  0  0  0  0  0  0  0  0  0
    4.5926  -12.8999   -0.7912 H   0  0  0  0  0  0  0  0  0  0  0  0
    2.0856  -11.0284    1.0053 H   0  0  0  0  0  0  0  0  0  0  0  0
    1.5498  -10.0652   -0.3839 H   0  0  0  0  0  0  0  0  0  0  0  0
    2.5706  -13.0703   -1.9991 H   0  0  0  0  0  0  0  0  0  0  0  0
    2.1964  -14.7887   -3.4408 H   0  0  0  0  0  0  0  0  0  0  0  0
    0.5327  -14.8842   -4.0249 H   0  0  0  0  0  0  0  0  0  0  0  0
    1.1133  -16.0085   -2.7586 H   0  0  0  0  0  0  0  0  0  0  0  0
   -1.2804  -14.8034   -1.9054 H   0  0  0  0  0  0  0  0  0  0  0  0
   -2.8734  -13.8692   -0.3409 H   0  0  0  0  0  0  0  0  0  0  0  0
   -2.4247  -12.4779    0.6398 H   0  0  0  0  0  0  0  0  0  0  0  0
  1  2  1  0  0  0  0
  2  3  2  0  0  0  0
  2  7  1  0  0  0  0
  3  4  1  0  0  0  0
  3 30  1  0  0  0  0
  4  5  2  0  0  0  0
  4 31  1  0  0  0  0
  5  6  1  0  0  0  0
  5 32  1  0  0  0  0
  6  7  2  0  0  0  0
  6  8  1  0  0  0  0
  7 33  1  0  0  0  0
  8  9  1  0  0  0  0
  8 34  1  0  0  0  0
  8 35  1  0  0  0  0
  9 10  1  0  0  0  0
  9 36  1  0  0  0  0
  9 37  1  0  0  0  0
 10 11  1  0  0  0  0
 10 38  1  0  0  0  0
 11 12  1  0  0  0  0
 11 39  1  0  0  0  0
 11 40  1  0  0  0  0
 12 13  1  0  0  0  0
 12 41  1  0  0  0  0
 12 42  1  0  0  0  0
 13 43  1  0  0  0  0
 14 16  1  0  0  0  0
 14 19  1  0  0  0  0
 14 15  1  1  0  0  0
 14 13  1  0  0  0  0
 16 17  1  0  0  0  0
 16 44  1  0  0  0  0
 16 45  1  0  0  0  0
 17 18  1  0  0  0  0
 17 46  1  0  0  0  0
 18 19  1  0  0  0  0
 18 47  1  0  0  0  0
 18 48  1  0  0  0  0
 19 21  1  0  0  0  0
 19 20  1  6  0  0  0
 21 22  1  0  0  0  0
 21 49  1  0  0  0  0
 21 50  1  0  0  0  0
 22 23  2  0  0  0  0
 22 28  1  0  0  0  0
 23 24  1  0  0  0  0
 23 51  1  0  0  0  0
 24 25  1  0  0  0  0
 24 26  2  0  0  0  0
 25 52  1  0  0  0  0
 25 53  1  0  0  0  0
 25 54  1  0  0  0  0
 26 27  1  0  0  0  0
 26 55  1  0  0  0  0
 27 28  2  0  0  0  0
 27 29  1  0  0  0  0
 29 56  1  0  0  0  0
 29 57  1  0  0  0  0
M  END
$$$$
