J30
 OpenBabel04121316143D

 47 49  0  0  0  0  0  0  0  0999 V2000
    0.9919   -0.0478    0.0433 S   0  0  0  0  0  0  0  0  0  0  0  0
    2.8109   -0.0502    0.0932 C   0  0  0  0  0  0  0  0  0  0  0  0
    3.3358   -0.0824   -1.3321 C   0  0  0  0  0  0  0  0  0  0  0  0
    4.8567   -0.1167   -1.3969 C   0  0  0  0  0  0  0  0  0  0  0  0
    5.2927   -0.2319   -2.8451 C   0  0  0  0  0  0  0  0  0  0  0  0
    4.5353   -0.1211   -3.8152 O   0  0  0  0  0  0  0  0  0  0  0  0
    6.6401   -0.2716   -2.9997 N   0  0  0  0  0  0  0  0  0  0  0  0
    7.4490   -1.4750   -3.1382 C   0  0  0  0  0  0  0  0  0  0  0  0
    8.2540   -1.4483   -4.4606 C   0  0  0  0  0  0  0  0  0  0  0  0
    9.0877   -0.2260   -4.6400 N   0  0  0  0  0  0  0  0  0  0  0  0
    8.1333    0.9080   -4.5892 C   0  0  0  0  0  0  0  0  0  0  0  0
    7.3170    0.9558   -3.2699 C   0  0  0  0  0  0  0  0  0  0  0  0
   10.1740   -0.1475   -3.6222 C   0  0  0  0  0  0  0  0  0  0  0  0
   11.1547    1.0230   -3.7606 C   0  0  0  0  0  0  0  0  0  0  0  0
   12.4441    0.7694   -4.2345 C   0  0  0  0  0  0  0  0  0  0  0  0
   13.3279    1.8294   -4.4385 C   0  0  0  0  0  0  0  0  0  0  0  0
   12.9198    3.1555   -4.2409 C   0  0  0  0  0  0  0  0  0  0  0  0
   11.6198    3.4526   -3.8238 C   0  0  0  0  0  0  0  0  0  0  0  0
   10.7967    2.3826   -3.4835 C   0  0  0  0  0  0  0  0  0  0  0  0
    9.6118    2.7543   -2.8627 C   0  0  0  0  0  0  0  0  0  0  0  0
    8.9668    3.9573   -3.1065 C   0  0  0  0  0  0  0  0  0  0  0  0
    9.7235    4.9823   -3.6114 C   0  0  0  0  0  0  0  0  0  0  0  0
   11.0946    4.7672   -3.7650 C   0  0  0  0  0  0  0  0  0  0  0  0
    0.7760   -0.0285    1.3648 H   0  0  0  0  0  0  0  0  0  0  0  0
    3.1535   -0.9273    0.6511 H   0  0  0  0  0  0  0  0  0  0  0  0
    3.1577    0.8463    0.6173 H   0  0  0  0  0  0  0  0  0  0  0  0
    2.9800    0.7990   -1.8830 H   0  0  0  0  0  0  0  0  0  0  0  0
    2.9513   -0.9669   -1.8555 H   0  0  0  0  0  0  0  0  0  0  0  0
    5.2549   -0.9725   -0.8403 H   0  0  0  0  0  0  0  0  0  0  0  0
    5.2764    0.7974   -0.9529 H   0  0  0  0  0  0  0  0  0  0  0  0
    6.8138   -2.3577   -3.0647 H   0  0  0  0  0  0  0  0  0  0  0  0
    8.1441   -1.4906   -2.2890 H   0  0  0  0  0  0  0  0  0  0  0  0
    7.5369   -1.4818   -5.2941 H   0  0  0  0  0  0  0  0  0  0  0  0
    8.8752   -2.3426   -4.5540 H   0  0  0  0  0  0  0  0  0  0  0  0
    7.4246    0.8250   -5.4232 H   0  0  0  0  0  0  0  0  0  0  0  0
    8.6536    1.8323   -4.8423 H   0  0  0  0  0  0  0  0  0  0  0  0
    6.6644    1.8344   -3.2261 H   0  0  0  0  0  0  0  0  0  0  0  0
    7.8986    0.9633   -2.3564 H   0  0  0  0  0  0  0  0  0  0  0  0
   10.7501   -1.0822   -3.7000 H   0  0  0  0  0  0  0  0  0  0  0  0
    9.8000   -0.1459   -2.5947 H   0  0  0  0  0  0  0  0  0  0  0  0
   12.7660   -0.2487   -4.4465 H   0  0  0  0  0  0  0  0  0  0  0  0
   14.3320    1.6253   -4.7974 H   0  0  0  0  0  0  0  0  0  0  0  0
   13.6076    3.9657   -4.4584 H   0  0  0  0  0  0  0  0  0  0  0  0
    9.1606    2.0318   -2.2281 H   0  0  0  0  0  0  0  0  0  0  0  0
    7.9095    4.0738   -2.8821 H   0  0  0  0  0  0  0  0  0  0  0  0
    9.2653    5.9433   -3.8182 H   0  0  0  0  0  0  0  0  0  0  0  0
   11.7434    5.6255   -3.8905 H   0  0  0  0  0  0  0  0  0  0  0  0
  1  2  1  0  0  0  0
  1 24  1  0  0  0  0
  2  3  1  0  0  0  0
  2 25  1  0  0  0  0
  2 26  1  0  0  0  0
  3  4  1  0  0  0  0
  3 27  1  0  0  0  0
  3 28  1  0  0  0  0
  4  5  1  0  0  0  0
  4 29  1  0  0  0  0
  4 30  1  0  0  0  0
  5  6  2  0  0  0  0
  5  7  1  0  0  0  0
  7  8  1  0  0  0  0
  7 12  1  0  0  0  0
  8  9  1  0  0  0  0
  8 31  1  0  0  0  0
  8 32  1  0  0  0  0
  9 10  1  0  0  0  0
  9 33  1  0  0  0  0
  9 34  1  0  0  0  0
 10 11  1  0  0  0  0
 10 13  1  0  0  0  0
 11 12  1  0  0  0  0
 11 35  1  0  0  0  0
 11 36  1  0  0  0  0
 12 37  1  0  0  0  0
 12 38  1  0  0  0  0
 13 14  1  0  0  0  0
 13 39  1  0  0  0  0
 13 40  1  0  0  0  0
 14 15  2  0  0  0  0
 14 19  1  0  0  0  0
 15 16  1  0  0  0  0
 15 41  1  0  0  0  0
 16 17  2  0  0  0  0
 16 42  1  0  0  0  0
 17 18  1  0  0  0  0
 17 43  1  0  0  0  0
 18 19  2  0  0  0  0
 18 23  1  0  0  0  0
 19 20  1  0  0  0  0
 20 21  2  0  0  0  0
 20 44  1  0  0  0  0
 21 22  1  0  0  0  0
 21 45  1  0  0  0  0
 22 23  2  0  0  0  0
 22 46  1  0  0  0  0
 23 47  1  0  0  0  0
M  END
$$$$
