J43
 OpenBabel04121316143D

 33 34  0  0  0  0  0  0  0  0999 V2000
    0.9263   -0.1806   -0.3096 O   0  0  0  0  0  0  0  0  0  0  0  0
    2.0805   -0.4302   -0.6455 C   0  0  0  0  0  0  0  0  0  0  0  0
    2.8967   -1.3752    0.1016 C   0  0  0  0  0  0  0  0  0  0  0  0
    4.1478   -1.1585    0.6934 C   0  0  0  0  0  0  0  0  0  0  0  0
    4.7377    0.1067    1.0194 N   0  0  0  0  0  0  0  0  0  0  0  0
    4.2974    1.4260    0.8359 C   0  0  0  0  0  0  0  0  0  0  0  0
    3.0044    1.6620    0.4552 C   0  0  0  0  0  0  0  0  0  0  0  0
    2.6117    2.6894   -0.3643 C   0  0  0  0  0  0  0  0  0  0  0  0
    3.2728    3.8538   -0.1382 C   0  0  0  0  0  0  0  0  0  0  0  0
    4.3577    3.8415    0.7557 C   0  0  0  0  0  0  0  0  0  0  0  0
    4.9535    2.6043    1.1311 C   0  0  0  0  0  0  0  0  0  0  0  0
    2.5344    5.2798   -0.8648 S   0  0  0  0  0  0  0  0  0  0  0  0
    2.8688    5.2463   -2.2764 O   0  0  0  0  0  0  0  0  0  0  0  0
    1.1891    5.3873   -0.3734 O   0  0  0  0  0  0  0  0  0  0  0  0
    3.4247    6.5035   -0.1676 N   0  0  0  0  0  0  0  0  0  0  0  0
    4.8748   -2.2474    1.0493 N   0  0  0  0  0  0  0  0  0  0  0  0
    4.3425   -3.4874    0.8647 C   0  0  0  0  0  0  0  0  0  0  0  0
    3.1241   -3.7361    0.3911 N   0  0  0  0  0  0  0  0  0  0  0  0
    2.4236   -2.6648    0.0295 C   0  0  0  0  0  0  0  0  0  0  0  0
    0.8848   -3.0905   -0.6390 Cl  0  0  0  0  0  0  0  0  0  0  0  0
    5.3473   -4.8977    1.2709 S   0  0  0  0  0  0  0  0  0  0  0  0
    4.2386   -6.2871    0.8411 C   0  0  0  0  0  0  0  0  0  0  0  0
    2.5861    0.1091   -1.4623 H   0  0  0  0  0  0  0  0  0  0  0  0
    5.7031   -0.0091    1.3255 H   0  0  0  0  0  0  0  0  0  0  0  0
    2.2373    1.0676    0.9278 H   0  0  0  0  0  0  0  0  0  0  0  0
    1.7045    2.6212   -0.9607 H   0  0  0  0  0  0  0  0  0  0  0  0
    4.7276    4.7600    1.1941 H   0  0  0  0  0  0  0  0  0  0  0  0
    5.8646    2.6042    1.7219 H   0  0  0  0  0  0  0  0  0  0  0  0
    4.4019    6.4576   -0.4416 H   0  0  0  0  0  0  0  0  0  0  0  0
    3.2118    6.5973    0.8233 H   0  0  0  0  0  0  0  0  0  0  0  0
    4.7581   -7.2233    1.0703 H   0  0  0  0  0  0  0  0  0  0  0  0
    3.9919   -6.2990   -0.2259 H   0  0  0  0  0  0  0  0  0  0  0  0
    3.3150   -6.2691    1.4289 H   0  0  0  0  0  0  0  0  0  0  0  0
  1  2  2  0  0  0  0
  2  3  1  0  0  0  0
  2 23  1  0  0  0  0
  3  4  2  0  0  0  0
  3 19  1  0  0  0  0
  4  5  1  0  0  0  0
  4 16  1  0  0  0  0
  5  6  1  0  0  0  0
  5 24  1  0  0  0  0
  6  7  2  0  0  0  0
  6 11  1  0  0  0  0
  7  8  1  0  0  0  0
  7 25  1  0  0  0  0
  8  9  2  0  0  0  0
  8 26  1  0  0  0  0
  9 10  1  0  0  0  0
  9 12  1  0  0  0  0
 10 11  2  0  0  0  0
 10 27  1  0  0  0  0
 11 28  1  0  0  0  0
 12 13  2  0  0  0  0
 12 14  2  0  0  0  0
 12 15  1  0  0  0  0
 15 29  1  0  0  0  0
 15 30  1  0  0  0  0
 16 17  2  0  0  0  0
 17 18  1  0  0  0  0
 17 21  1  0  0  0  0
 18 19  2  0  0  0  0
 19 20  1  0  0  0  0
 21 22  1  0  0  0  0
 22 31  1  0  0  0  0
 22 32  1  0  0  0  0
 22 33  1  0  0  0  0
M  END
$$$$
