J71
 OpenBabel04121316143D

 36 37  0  0  0  0  0  0  0  0999 V2000
    0.9944   -0.0211    0.0773 C   0  0  0  0  0  0  0  0  0  0  0  0
    2.4004    0.0104    0.2676 O   0  0  0  0  0  0  0  0  0  0  0  0
    2.9989    0.9336   -0.5477 C   0  0  0  0  0  0  0  0  0  0  0  0
    2.5786    2.1987   -0.3356 N   0  0  0  0  0  0  0  0  0  0  0  0
    3.2259    3.1403   -1.0069 C   0  0  0  0  0  0  0  0  0  0  0  0
    4.2217    2.9121   -1.8669 N   0  0  0  0  0  0  0  0  0  0  0  0
    4.6368    1.6303   -2.0692 C   0  0  0  0  0  0  0  0  0  0  0  0
    4.0381    0.5616   -1.3910 C   0  0  0  0  0  0  0  0  0  0  0  0
    4.3368   -0.8905   -1.4868 N   0  3  0  0  0  0  0  0  0  0  0  0
    5.2158   -1.3199   -2.2347 O   0  0  0  0  0  0  0  0  0  0  0  0
    3.6758   -1.6932   -0.8212 O   0  5  0  0  0  0  0  0  0  0  0  0
    5.6670    1.6551   -2.9667 N   0  0  0  0  0  0  0  0  0  0  0  0
    6.3410    0.4848   -3.4218 C   0  0  0  0  0  0  0  0  0  0  0  0
    7.4242    0.6149   -4.4235 C   0  0  0  0  0  0  0  0  0  0  0  0
    7.9048    1.8443   -4.8419 C   0  0  0  0  0  0  0  0  0  0  0  0
    8.7400    1.8900   -5.9346 C   0  0  0  0  0  0  0  0  0  0  0  0
    9.2151    0.6995   -6.4898 C   0  0  0  0  0  0  0  0  0  0  0  0
    8.8902   -0.5458   -5.9508 C   0  0  0  0  0  0  0  0  0  0  0  0
    7.9396   -0.5878   -4.9503 C   0  0  0  0  0  0  0  0  0  0  0  0
   10.2022    0.8621   -7.9371 S   0  0  0  0  0  0  0  0  0  0  0  0
    9.3202    1.3206   -8.9893 O   0  0  0  0  0  0  0  0  0  0  0  0
   11.4064    1.5466   -7.5487 O   0  0  0  0  0  0  0  0  0  0  0  0
   10.6148   -0.7141   -8.3017 N   0  0  0  0  0  0  0  0  0  0  0  0
    0.6248   -0.9232    0.5723 H   0  0  0  0  0  0  0  0  0  0  0  0
    0.7168   -0.0835   -0.9827 H   0  0  0  0  0  0  0  0  0  0  0  0
    0.5376    0.8491    0.5522 H   0  0  0  0  0  0  0  0  0  0  0  0
    2.9235    4.1685   -0.8359 H   0  0  0  0  0  0  0  0  0  0  0  0
    5.8554    2.5649   -3.3688 H   0  0  0  0  0  0  0  0  0  0  0  0
    5.5890   -0.1184   -3.9428 H   0  0  0  0  0  0  0  0  0  0  0  0
    6.8329    0.0319   -2.5578 H   0  0  0  0  0  0  0  0  0  0  0  0
    7.6025    2.7639   -4.3570 H   0  0  0  0  0  0  0  0  0  0  0  0
    9.0017    2.8553   -6.3563 H   0  0  0  0  0  0  0  0  0  0  0  0
    9.3186   -1.4774   -6.3018 H   0  0  0  0  0  0  0  0  0  0  0  0
    7.5784   -1.5529   -4.5851 H   0  0  0  0  0  0  0  0  0  0  0  0
    9.8360   -1.2736   -8.6397 H   0  0  0  0  0  0  0  0  0  0  0  0
   11.2746   -1.1234   -7.6458 H   0  0  0  0  0  0  0  0  0  0  0  0
  1  2  1  0  0  0  0
  1 24  1  0  0  0  0
  1 25  1  0  0  0  0
  1 26  1  0  0  0  0
  2  3  1  0  0  0  0
  3  4  2  0  0  0  0
  3  8  1  0  0  0  0
  4  5  1  0  0  0  0
  5  6  2  0  0  0  0
  5 27  1  0  0  0  0
  6  7  1  0  0  0  0
  7  8  2  0  0  0  0
  7 12  1  0  0  0  0
  8  9  1  0  0  0  0
  9 10  2  0  0  0  0
  9 11  1  0  0  0  0
 12 13  1  0  0  0  0
 12 28  1  0  0  0  0
 13 14  1  0  0  0  0
 13 29  1  0  0  0  0
 13 30  1  0  0  0  0
 14 15  2  0  0  0  0
 14 19  1  0  0  0  0
 15 16  1  0  0  0  0
 15 31  1  0  0  0  0
 16 17  2  0  0  0  0
 16 32  1  0  0  0  0
 17 18  1  0  0  0  0
 17 20  1  0  0  0  0
 18 19  2  0  0  0  0
 18 33  1  0  0  0  0
 19 34  1  0  0  0  0
 20 21  2  0  0  0  0
 20 22  2  0  0  0  0
 20 23  1  0  0  0  0
 23 35  1  0  0  0  0
 23 36  1  0  0  0  0
M  CHG  2   9   1  11  -1
M  END
$$$$
