J72
 OpenBabel04121316143D

 37 40  0  0  0  0  0  0  0  0999 V2000
    0.9979    0.2374   -0.1511 O   0  0  0  0  0  0  0  0  0  0  0  0
    2.3907    0.2570   -0.0042 N   0  0  0  0  0  0  0  0  0  0  0  0
    2.7822   -0.5821    0.9079 C   0  0  0  0  0  0  0  0  0  0  0  0
    4.2143   -0.6666    1.4077 C   0  0  0  0  0  0  0  0  0  0  0  0
    5.0413    0.1317    1.0387 O   0  0  0  0  0  0  0  0  0  0  0  0
    4.2615   -1.7287    2.3329 N   0  0  0  0  0  0  0  0  0  0  0  0
    2.9220   -2.1834    2.5635 C   0  0  0  0  0  0  0  0  0  0  0  0
    2.0315   -1.5340    1.6961 C   0  0  0  0  0  0  0  0  0  0  0  0
    0.6644   -1.7426    1.6649 C   0  0  0  0  0  0  0  0  0  0  0  0
    0.1309   -2.5929    2.5920 C   0  0  0  0  0  0  0  0  0  0  0  0
   -1.1979   -2.7543    2.6138 F   0  0  0  0  0  0  0  0  0  0  0  0
    0.9618   -3.2531    3.4981 C   0  0  0  0  0  0  0  0  0  0  0  0
    2.3741   -3.0716    3.4813 C   0  0  0  0  0  0  0  0  0  0  0  0
    5.4896   -2.2385    3.0017 C   0  0  0  0  0  0  0  0  0  0  0  0
    6.8377   -1.7291    2.4777 C   0  0  0  0  0  0  0  0  0  0  0  0
    7.8425   -1.2700    3.3598 C   0  0  0  0  0  0  0  0  0  0  0  0
    9.0159   -0.6952    2.8592 C   0  0  0  0  0  0  0  0  0  0  0  0
    9.9547   -0.2464    3.7056 F   0  0  0  0  0  0  0  0  0  0  0  0
    9.2213   -0.5577    1.4932 C   0  0  0  0  0  0  0  0  0  0  0  0
    8.2715   -1.0626    0.6012 C   0  0  0  0  0  0  0  0  0  0  0  0
    7.1149   -1.6803    1.0958 C   0  0  0  0  0  0  0  0  0  0  0  0
    6.1911   -2.2157    0.2274 O   0  0  0  0  0  0  0  0  0  0  0  0
    6.2503   -1.6067   -1.0668 C   0  0  0  0  0  0  0  0  0  0  0  0
    7.5507   -1.7015   -1.6255 O   0  0  0  0  0  0  0  0  0  0  0  0
    8.4280   -0.8636   -0.8777 C   0  0  0  0  0  0  0  0  0  0  0  0
    0.8074    0.9166   -0.8191 H   0  0  0  0  0  0  0  0  0  0  0  0
   -0.0054   -1.2541    0.9753 H   0  0  0  0  0  0  0  0  0  0  0  0
    0.4743   -3.9062    4.2167 H   0  0  0  0  0  0  0  0  0  0  0  0
    2.9686   -3.6085    4.2115 H   0  0  0  0  0  0  0  0  0  0  0  0
    5.5172   -3.3344    2.9213 H   0  0  0  0  0  0  0  0  0  0  0  0
    5.4101   -2.0016    4.0709 H   0  0  0  0  0  0  0  0  0  0  0  0
    7.7349   -1.3285    4.4402 H   0  0  0  0  0  0  0  0  0  0  0  0
   10.1181   -0.0618    1.1334 H   0  0  0  0  0  0  0  0  0  0  0  0
    5.9125   -0.5602   -1.0607 H   0  0  0  0  0  0  0  0  0  0  0  0
    5.5443   -2.1440   -1.7081 H   0  0  0  0  0  0  0  0  0  0  0  0
    8.2237    0.1838   -1.1337 H   0  0  0  0  0  0  0  0  0  0  0  0
    9.4486   -1.1097   -1.1783 H   0  0  0  0  0  0  0  0  0  0  0  0
  1  2  1  0  0  0  0
  1 26  1  0  0  0  0
  2  3  2  0  0  0  0
  3  4  1  0  0  0  0
  3  8  1  0  0  0  0
  4  5  2  0  0  0  0
  4  6  1  0  0  0  0
  6  7  1  0  0  0  0
  6 14  1  0  0  0  0
  7  8  2  0  0  0  0
  7 13  1  0  0  0  0
  8  9  1  0  0  0  0
  9 10  2  0  0  0  0
  9 27  1  0  0  0  0
 10 11  1  0  0  0  0
 10 12  1  0  0  0  0
 12 13  2  0  0  0  0
 12 28  1  0  0  0  0
 13 29  1  0  0  0  0
 14 15  1  0  0  0  0
 14 30  1  0  0  0  0
 14 31  1  0  0  0  0
 15 16  2  0  0  0  0
 15 21  1  0  0  0  0
 16 17  1  0  0  0  0
 16 32  1  0  0  0  0
 17 18  1  0  0  0  0
 17 19  2  0  0  0  0
 19 20  1  0  0  0  0
 19 33  1  0  0  0  0
 20 21  2  0  0  0  0
 20 25  1  0  0  0  0
 21 22  1  0  0  0  0
 22 23  1  0  0  0  0
 23 24  1  0  0  0  0
 23 34  1  0  0  0  0
 23 35  1  0  0  0  0
 24 25  1  0  0  0  0
 25 36  1  0  0  0  0
 25 37  1  0  0  0  0
M  END
$$$$
