J75
 OpenBabel04121316143D

 47 49  0  0  0  0  0  0  0  0999 V2000
    1.0510   -0.0425    0.0235 N   0  0  0  0  0  0  0  0  0  0  0  0
    2.7351   -0.1149    0.0992 S   0  0  0  0  0  0  0  0  0  0  0  0
    3.1115    0.0252    1.4904 O   0  0  0  0  0  0  0  0  0  0  0  0
    3.1043   -1.2610   -0.6906 O   0  0  0  0  0  0  0  0  0  0  0  0
    3.1902    1.3550   -0.7567 C   0  0  0  0  0  0  0  0  0  0  0  0
    3.0319    2.6037   -0.1528 C   0  0  0  0  0  0  0  0  0  0  0  0
    3.1753    3.7629   -0.9143 C   0  0  0  0  0  0  0  0  0  0  0  0
    3.6106    3.6904   -2.2382 C   0  0  0  0  0  0  0  0  0  0  0  0
    3.9560    2.4176   -2.7452 C   0  0  0  0  0  0  0  0  0  0  0  0
    3.6832    1.2519   -2.0462 C   0  0  0  0  0  0  0  0  0  0  0  0
    3.6323    4.9878   -3.0354 C   0  0  0  0  0  0  0  0  0  0  0  0
    4.2073    4.7551   -4.3190 N   0  0  0  0  0  0  0  0  0  0  0  0
    4.1340    5.6105   -5.3857 C   0  0  0  0  0  0  0  0  0  0  0  0
    3.9811    6.9125   -5.0751 N   0  0  0  0  0  0  0  0  0  0  0  0
    4.0328    7.7730   -6.0824 C   0  0  0  0  0  0  0  0  0  0  0  0
    4.1938    7.4346   -7.3626 N   0  0  0  0  0  0  0  0  0  0  0  0
    4.3369    6.1183   -7.6753 C   0  0  0  0  0  0  0  0  0  0  0  0
    4.3240    5.1333   -6.6908 C   0  0  0  0  0  0  0  0  0  0  0  0
    4.4481    3.6436   -6.8609 N   0  3  0  0  0  0  0  0  0  0  0  0
    4.5612    3.0903   -7.9498 O   0  0  0  0  0  0  0  0  0  0  0  0
    4.4157    2.9234   -5.8576 O   0  5  0  0  0  0  0  0  0  0  0  0
    4.5062    6.0023   -9.0227 N   0  0  0  0  0  0  0  0  0  0  0  0
    4.6703    4.7454   -9.6707 C   0  0  0  0  0  0  0  0  0  0  0  0
    4.8118    4.6988  -11.1364 C   0  0  0  0  0  0  0  0  0  0  0  0
    4.9089    5.8497  -11.8951 C   0  0  0  0  0  0  0  0  0  0  0  0
    4.8009    5.7477  -13.2634 C   0  0  0  0  0  0  0  0  0  0  0  0
    4.7762    4.4907  -13.8693 C   0  0  0  0  0  0  0  0  0  0  0  0
    4.8597    3.3246  -13.1109 C   0  0  0  0  0  0  0  0  0  0  0  0
    4.8169    3.4239  -11.7346 C   0  0  0  0  0  0  0  0  0  0  0  0
    0.6648   -0.7908    0.6012 H   0  0  0  0  0  0  0  0  0  0  0  0
    0.7187   -0.1084   -0.9395 H   0  0  0  0  0  0  0  0  0  0  0  0
    2.7689    2.6815    0.8972 H   0  0  0  0  0  0  0  0  0  0  0  0
    2.9387    4.7309   -0.4787 H   0  0  0  0  0  0  0  0  0  0  0  0
    4.4403    2.2553   -3.6987 H   0  0  0  0  0  0  0  0  0  0  0  0
    3.8613    0.2919   -2.5267 H   0  0  0  0  0  0  0  0  0  0  0  0
    4.2434    5.7330   -2.5225 H   0  0  0  0  0  0  0  0  0  0  0  0
    2.5998    5.3560   -3.1236 H   0  0  0  0  0  0  0  0  0  0  0  0
    4.2328    3.7846   -4.5952 H   0  0  0  0  0  0  0  0  0  0  0  0
    3.9396    8.8263   -5.8377 H   0  0  0  0  0  0  0  0  0  0  0  0
    4.3911    6.8619   -9.5399 H   0  0  0  0  0  0  0  0  0  0  0  0
    3.7396    4.1912   -9.4970 H   0  0  0  0  0  0  0  0  0  0  0  0
    5.6028    4.3085   -9.3004 H   0  0  0  0  0  0  0  0  0  0  0  0
    5.0290    6.8185  -11.4266 H   0  0  0  0  0  0  0  0  0  0  0  0
    4.7352    6.6593  -13.8438 H   0  0  0  0  0  0  0  0  0  0  0  0
    4.7005    4.4265  -14.9472 H   0  0  0  0  0  0  0  0  0  0  0  0
    4.9292    2.3506  -13.5845 H   0  0  0  0  0  0  0  0  0  0  0  0
    4.7748    2.5196  -11.1220 H   0  0  0  0  0  0  0  0  0  0  0  0
  1  2  1  0  0  0  0
  1 30  1  0  0  0  0
  1 31  1  0  0  0  0
  2  3  2  0  0  0  0
  2  4  2  0  0  0  0
  2  5  1  0  0  0  0
  5  6  2  0  0  0  0
  5 10  1  0  0  0  0
  6  7  1  0  0  0  0
  6 32  1  0  0  0  0
  7  8  2  0  0  0  0
  7 33  1  0  0  0  0
  8  9  1  0  0  0  0
  8 11  1  0  0  0  0
  9 10  2  0  0  0  0
  9 34  1  0  0  0  0
 10 35  1  0  0  0  0
 11 12  1  0  0  0  0
 11 36  1  0  0  0  0
 11 37  1  0  0  0  0
 12 13  1  0  0  0  0
 12 38  1  0  0  0  0
 13 14  2  0  0  0  0
 13 18  1  0  0  0  0
 14 15  1  0  0  0  0
 15 16  2  0  0  0  0
 15 39  1  0  0  0  0
 16 17  1  0  0  0  0
 17 18  2  0  0  0  0
 17 22  1  0  0  0  0
 18 19  1  0  0  0  0
 19 20  2  0  0  0  0
 19 21  1  0  0  0  0
 22 23  1  0  0  0  0
 22 40  1  0  0  0  0
 23 24  1  0  0  0  0
 23 41  1  0  0  0  0
 23 42  1  0  0  0  0
 24 25  2  0  0  0  0
 24 29  1  0  0  0  0
 25 26  1  0  0  0  0
 25 43  1  0  0  0  0
 26 27  2  0  0  0  0
 26 44  1  0  0  0  0
 27 28  1  0  0  0  0
 27 45  1  0  0  0  0
 28 29  2  0  0  0  0
 28 46  1  0  0  0  0
 29 47  1  0  0  0  0
M  CHG  2  19   1  21  -1
M  END
$$$$
