J7V
 OpenBabel04121316143D

 74 78  0  0  1  0  0  0  0  0999 V2000
   -0.5990   -3.6165    4.8227 C   0  0  0  0  0  0  0  0  0  0  0  0
   -1.0442   -2.7782    6.0303 C   0  0  0  0  0  0  0  0  0  0  0  0
   -0.6741   -1.3572    5.9598 N   0  0  0  0  0  0  0  0  0  0  0  0
   -0.1275   -0.9090    4.7839 C   0  0  0  0  0  0  0  0  0  0  0  0
    1.1804   -1.2872    4.4431 C   0  0  0  0  0  0  0  0  0  0  0  0
    1.6843   -1.0426    3.1845 C   0  0  0  0  0  0  0  0  0  0  0  0
    1.0352   -0.0984    2.4332 C   0  0  0  0  0  0  0  0  0  0  0  0
   -0.1711    0.4240    2.8740 C   0  0  0  0  0  0  0  0  0  0  0  0
   -0.8487   -0.1077    3.9299 C   0  0  0  0  0  0  0  0  0  0  0  0
   -0.7075    1.5708    2.3525 O   0  0  0  0  0  0  0  0  0  0  0  0
   -0.4730    1.6153    1.0129 C   0  0  0  0  0  0  0  0  0  0  0  0
   -1.4250    1.9929    0.3161 O   0  0  0  0  0  0  0  0  0  0  0  0
    0.9406    1.3449    0.5649 C   0  0  0  0  0  0  0  0  0  0  0  0
    1.6424    0.4462    1.2584 C   0  0  0  0  0  0  0  0  0  0  0  0
    1.7845    1.9727   -0.4963 C   0  0  0  0  0  0  0  0  0  0  0  0
    2.8221    1.4769   -0.9278 O   0  0  0  0  0  0  0  0  0  0  0  0
    1.4774    3.1927   -0.9591 N   0  0  0  0  0  0  0  0  0  0  0  0
    0.3016    3.8369   -0.5691 C   0  0  2  0  0  0  0  0  0  0  0  0
   -0.4664    3.1357   -0.9271 H   0  0  0  0  0  0  0  0  0  0  0  0
    0.1230    5.0027   -1.3987 C   0  0  1  0  0  0  0  0  0  0  0  0
    0.4749    4.9633   -2.4381 H   0  0  0  0  0  0  0  0  0  0  0  0
   -1.3257    4.9635   -1.2953 C   0  0  0  0  0  0  0  0  0  0  0  0
   -2.3717    4.6394   -2.0820 O   0  0  0  0  0  0  0  0  0  0  0  0
   -3.1349    6.0990   -2.1268 P   0  0  2  0  0  0  0  0  0  0  0  0
   -2.9131    6.2208   -3.6502 O   0  0  0  0  0  0  0  0  0  0  0  0
   -1.9501    7.3301   -1.8558 O   0  0  0  0  0  0  0  0  0  0  0  0
   -1.3210    7.8692   -3.3745 P   0  0  0  0  0  0  0  0  0  0  0  0
   -0.6953    6.5564   -3.8151 O   0  0  0  0  0  0  0  0  0  0  0  0
   -2.7523    8.5293   -3.7712 O   0  0  0  0  0  0  0  0  0  0  0  0
   -0.6918    8.4082   -4.8932 O   0  0  0  0  0  0  0  0  0  0  0  0
   -3.3834    5.9625   -0.4201 O   0  0  0  0  0  0  0  0  0  0  0  0
    0.5256    6.2162   -0.6639 O   0  0  0  0  0  0  0  0  0  0  0  0
    0.3091    5.9931    0.7505 C   0  0  2  0  0  0  0  0  0  0  0  0
    1.2201    6.3103    1.2545 H   0  0  0  0  0  0  0  0  0  0  0  0
    0.1499    4.4435    0.8794 C   0  0  2  0  0  0  0  0  0  0  0  0
   -0.8390    4.2157    1.3123 H   0  0  0  0  0  0  0  0  0  0  0  0
    1.1388    3.9043    1.7450 O   0  0  0  0  0  0  0  0  0  0  0  0
   -0.7679    6.8068    1.4139 N   0  0  0  0  0  0  0  0  0  0  0  0
   -1.0986    6.6191    2.7524 C   0  0  0  0  0  0  0  0  0  0  0  0
   -2.1931    7.2549    3.1206 N   0  0  0  0  0  0  0  0  0  0  0  0
   -2.5873    7.9444    2.0060 C   0  0  0  0  0  0  0  0  0  0  0  0
   -1.6146    7.8343    1.0151 C   0  0  0  0  0  0  0  0  0  0  0  0
   -1.6205    8.5995   -0.0862 N   0  0  0  0  0  0  0  0  0  0  0  0
   -2.8530    9.1077   -0.3551 C   0  0  0  0  0  0  0  0  0  0  0  0
   -3.9160    9.1472    0.4448 N   0  0  0  0  0  0  0  0  0  0  0  0
   -3.7256    8.7356    1.7075 C   0  0  0  0  0  0  0  0  0  0  0  0
   -4.7205    9.0988    2.6003 N   0  0  0  0  0  0  0  0  0  0  0  0
   -1.2268   -0.3991    6.9251 C   0  0  0  0  0  0  0  0  0  0  0  0
   -0.8632    1.0661    6.6436 C   0  0  0  0  0  0  0  0  0  0  0  0
   -0.8578   -4.6680    4.9434 H   0  0  0  0  0  0  0  0  0  0  0  0
    0.4869   -3.5945    4.6928 H   0  0  0  0  0  0  0  0  0  0  0  0
   -1.0587   -3.2542    3.8938 H   0  0  0  0  0  0  0  0  0  0  0  0
   -0.5864   -3.1907    6.9335 H   0  0  0  0  0  0  0  0  0  0  0  0
   -2.1317   -2.8761    6.1268 H   0  0  0  0  0  0  0  0  0  0  0  0
    1.7786   -1.8391    5.1596 H   0  0  0  0  0  0  0  0  0  0  0  0
    2.5909   -1.5202    2.8372 H   0  0  0  0  0  0  0  0  0  0  0  0
   -1.8695    0.1960    4.1388 H   0  0  0  0  0  0  0  0  0  0  0  0
    2.6590    0.1709    1.0039 H   0  0  0  0  0  0  0  0  0  0  0  0
    1.8831    3.4241   -1.8623 H   0  0  0  0  0  0  0  0  0  0  0  0
   -1.1184    5.8598   -1.7549 H   0  0  0  0  0  0  0  0  0  0  0  0
   -1.6834    5.0627   -0.2824 H   0  0  0  0  0  0  0  0  0  0  0  0
   -3.3410    7.8116   -4.0762 H   0  0  0  0  0  0  0  0  0  0  0  0
    0.2767    8.3404   -4.8353 H   0  0  0  0  0  0  0  0  0  0  0  0
   -3.9440    6.6974   -0.0986 H   0  0  0  0  0  0  0  0  0  0  0  0
    0.8191    3.9898    2.6567 H   0  0  0  0  0  0  0  0  0  0  0  0
   -0.5124    5.9924    3.4099 H   0  0  0  0  0  0  0  0  0  0  0  0
   -3.0656    9.3733   -1.3929 H   0  0  0  0  0  0  0  0  0  0  0  0
   -5.2312    9.9124    2.2660 H   0  0  0  0  0  0  0  0  0  0  0  0
   -4.4060    9.1130    3.5624 H   0  0  0  0  0  0  0  0  0  0  0  0
   -0.8029   -0.6601    7.8999 H   0  0  0  0  0  0  0  0  0  0  0  0
   -2.3157   -0.4993    6.9963 H   0  0  0  0  0  0  0  0  0  0  0  0
    0.2129    1.1820    6.4684 H   0  0  0  0  0  0  0  0  0  0  0  0
   -1.1529    1.7170    7.4693 H   0  0  0  0  0  0  0  0  0  0  0  0
   -1.3877    1.4606    5.7673 H   0  0  0  0  0  0  0  0  0  0  0  0
  1  2  1  0  0  0  0
  1 50  1  0  0  0  0
  1 51  1  0  0  0  0
  1 52  1  0  0  0  0
  2  3  1  0  0  0  0
  2 53  1  0  0  0  0
  2 54  1  0  0  0  0
  3  4  1  0  0  0  0
  3 48  1  0  0  0  0
  4  5  2  0  0  0  0
  4  9  1  0  0  0  0
  5  6  1  0  0  0  0
  5 55  1  0  0  0  0
  6  7  2  0  0  0  0
  6 56  1  0  0  0  0
  7  8  1  0  0  0  0
  7 14  1  0  0  0  0
  8  9  2  0  0  0  0
  8 10  1  0  0  0  0
  9 57  1  0  0  0  0
 10 11  1  0  0  0  0
 11 12  2  0  0  0  0
 11 13  1  0  0  0  0
 13 14  2  0  0  0  0
 13 15  1  0  0  0  0
 14 58  1  0  0  0  0
 15 16  2  0  0  0  0
 15 17  1  0  0  0  0
 17 59  1  0  0  0  0
 18 20  1  0  0  0  0
 18 35  1  0  0  0  0
 18 19  1  6  0  0  0
 18 17  1  0  0  0  0
 20 21  1  6  0  0  0
 20 22  1  0  0  0  0
 20 32  1  0  0  0  0
 22 23  1  0  0  0  0
 22 60  1  0  0  0  0
 22 61  1  0  0  0  0
 24 26  1  1  0  0  0
 24 31  1  0  0  0  0
 24 25  2  0  0  0  0
 24 23  1  0  0  0  0
 26 27  1  0  0  0  0
 27 28  2  0  0  0  0
 27 29  1  0  0  0  0
 27 30  1  0  0  0  0
 29 62  1  0  0  0  0
 30 63  1  0  0  0  0
 31 64  1  0  0  0  0
 32 33  1  0  0  0  0
 33 35  1  0  0  0  0
 33 38  1  0  0  0  0
 33 34  1  1  0  0  0
 35 36  1  1  0  0  0
 35 37  1  0  0  0  0
 37 65  1  0  0  0  0
 38 39  1  0  0  0  0
 38 42  1  0  0  0  0
 39 40  2  0  0  0  0
 39 66  1  0  0  0  0
 40 41  1  0  0  0  0
 41 42  2  0  0  0  0
 41 46  1  0  0  0  0
 42 43  1  0  0  0  0
 43 44  2  0  0  0  0
 44 45  1  0  0  0  0
 44 67  1  0  0  0  0
 45 46  2  0  0  0  0
 46 47  1  0  0  0  0
 47 68  1  0  0  0  0
 47 69  1  0  0  0  0
 48 49  1  0  0  0  0
 48 70  1  0  0  0  0
 48 71  1  0  0  0  0
 49 72  1  0  0  0  0
 49 73  1  0  0  0  0
 49 74  1  0  0  0  0
M  END
$$$$
