J88
 OpenBabel04121316143D

 47 51  0  0  0  0  0  0  0  0999 V2000
    1.1044    0.2529    0.3140 O   0  0  0  0  0  0  0  0  0  0  0  0
    2.4895    0.1664    0.1738 N   0  0  0  0  0  0  0  0  0  0  0  0
    3.1698    1.0710    0.8128 C   0  0  0  0  0  0  0  0  0  0  0  0
    2.6918    2.2191    1.7488 C   0  0  0  0  0  0  0  0  0  0  0  0
    1.5590    2.4639    2.0769 O   0  0  0  0  0  0  0  0  0  0  0  0
    3.8690    2.8939    2.1155 N   0  0  0  0  0  0  0  0  0  0  0  0
    4.9889    2.2666    1.5417 C   0  0  0  0  0  0  0  0  0  0  0  0
    4.6475    1.2061    0.7383 C   0  0  0  0  0  0  0  0  0  0  0  0
    5.6573    0.5110    0.0569 C   0  0  0  0  0  0  0  0  0  0  0  0
    7.0037    0.9237    0.1695 C   0  0  0  0  0  0  0  0  0  0  0  0
    7.3404    1.9759    0.9732 C   0  0  0  0  0  0  0  0  0  0  0  0
    6.3311    2.5773    1.6846 C   0  0  0  0  0  0  0  0  0  0  0  0
    5.3844   -0.6389   -0.7612 C   0  0  0  0  0  0  0  0  0  0  0  0
    4.4800   -0.5278   -1.8143 C   0  0  0  0  0  0  0  0  0  0  0  0
    3.9994   -1.6757   -2.4108 C   0  0  0  0  0  0  0  0  0  0  0  0
    4.5676   -2.9064   -2.0882 C   0  0  0  0  0  0  0  0  0  0  0  0
    5.6203   -2.9917   -1.1778 C   0  0  0  0  0  0  0  0  0  0  0  0
    5.9898   -1.8655   -0.4657 C   0  0  0  0  0  0  0  0  0  0  0  0
    3.8849    4.0980    2.9512 C   0  0  0  0  0  0  0  0  0  0  0  0
    5.2366    4.7549    3.2043 C   0  0  0  0  0  0  0  0  0  0  0  0
    5.8718    5.4823    2.1594 C   0  0  0  0  0  0  0  0  0  0  0  0
    7.2125    5.8606    2.2774 C   0  0  0  0  0  0  0  0  0  0  0  0
    7.8494    6.3971    1.2270 F   0  0  0  0  0  0  0  0  0  0  0  0
    7.9324    5.5819    3.4337 C   0  0  0  0  0  0  0  0  0  0  0  0
    7.3218    4.8829    4.4863 C   0  0  0  0  0  0  0  0  0  0  0  0
    5.9965    4.4347    4.3562 C   0  0  0  0  0  0  0  0  0  0  0  0
    5.4479    3.5755    5.2762 O   0  0  0  0  0  0  0  0  0  0  0  0
    6.3775    3.0980    6.2555 C   0  0  0  0  0  0  0  0  0  0  0  0
    7.2301    4.1172    6.7585 O   0  0  0  0  0  0  0  0  0  0  0  0
    8.0993    4.5598    5.7251 C   0  0  0  0  0  0  0  0  0  0  0  0
    0.7910   -0.4730   -0.2662 H   0  0  0  0  0  0  0  0  0  0  0  0
    7.8038    0.4105   -0.3562 H   0  0  0  0  0  0  0  0  0  0  0  0
    8.3572    2.3367    1.0918 H   0  0  0  0  0  0  0  0  0  0  0  0
    6.7106    3.2943    2.3656 H   0  0  0  0  0  0  0  0  0  0  0  0
    4.0760    0.4459   -2.0861 H   0  0  0  0  0  0  0  0  0  0  0  0
    3.1642   -1.6005   -3.0975 H   0  0  0  0  0  0  0  0  0  0  0  0
    4.1796   -3.8071   -2.5478 H   0  0  0  0  0  0  0  0  0  0  0  0
    6.1203   -3.9351   -0.9893 H   0  0  0  0  0  0  0  0  0  0  0  0
    6.7206   -1.9431    0.3386 H   0  0  0  0  0  0  0  0  0  0  0  0
    3.4044    3.8426    3.9021 H   0  0  0  0  0  0  0  0  0  0  0  0
    3.2301    4.8420    2.4806 H   0  0  0  0  0  0  0  0  0  0  0  0
    5.4001    5.5774    1.1816 H   0  0  0  0  0  0  0  0  0  0  0  0
    8.9763    5.8794    3.4920 H   0  0  0  0  0  0  0  0  0  0  0  0
    6.9670    2.2578    5.8596 H   0  0  0  0  0  0  0  0  0  0  0  0
    5.7967    2.7050    7.0968 H   0  0  0  0  0  0  0  0  0  0  0  0
    8.8577    3.7906    5.5348 H   0  0  0  0  0  0  0  0  0  0  0  0
    8.5985    5.4669    6.0773 H   0  0  0  0  0  0  0  0  0  0  0  0
  1  2  1  0  0  0  0
  1 31  1  0  0  0  0
  2  3  2  0  0  0  0
  3  4  1  0  0  0  0
  3  8  1  0  0  0  0
  4  5  2  0  0  0  0
  4  6  1  0  0  0  0
  6  7  1  0  0  0  0
  6 19  1  0  0  0  0
  7  8  2  0  0  0  0
  7 12  1  0  0  0  0
  8  9  1  0  0  0  0
  9 10  2  0  0  0  0
  9 13  1  0  0  0  0
 10 11  1  0  0  0  0
 10 32  1  0  0  0  0
 11 12  2  0  0  0  0
 11 33  1  0  0  0  0
 12 34  1  0  0  0  0
 13 14  2  0  0  0  0
 13 18  1  0  0  0  0
 14 15  1  0  0  0  0
 14 35  1  0  0  0  0
 15 16  2  0  0  0  0
 15 36  1  0  0  0  0
 16 17  1  0  0  0  0
 16 37  1  0  0  0  0
 17 18  2  0  0  0  0
 17 38  1  0  0  0  0
 18 39  1  0  0  0  0
 19 20  1  0  0  0  0
 19 40  1  0  0  0  0
 19 41  1  0  0  0  0
 20 21  2  0  0  0  0
 20 26  1  0  0  0  0
 21 22  1  0  0  0  0
 21 42  1  0  0  0  0
 22 23  1  0  0  0  0
 22 24  2  0  0  0  0
 24 25  1  0  0  0  0
 24 43  1  0  0  0  0
 25 26  2  0  0  0  0
 25 30  1  0  0  0  0
 26 27  1  0  0  0  0
 27 28  1  0  0  0  0
 28 29  1  0  0  0  0
 28 44  1  0  0  0  0
 28 45  1  0  0  0  0
 29 30  1  0  0  0  0
 30 46  1  0  0  0  0
 30 47  1  0  0  0  0
M  END
$$$$
