J9Z
 OpenBabel04121316143D

 42 44  0  0  1  0  0  0  0  0999 V2000
    5.4092   -1.0041    1.1226 O   0  0  0  0  0  0  0  0  0  0  0  0
    5.1611    0.1336    1.5121 C   0  0  0  0  0  0  0  0  0  0  0  0
    5.4662    0.3675    2.8705 C   0  0  0  0  0  0  0  0  0  0  0  0
    4.8958    1.0825    3.8914 C   0  0  0  0  0  0  0  0  0  0  0  0
    5.5596    0.7700    5.1301 C   0  0  0  0  0  0  0  0  0  0  0  0
    6.5492   -0.1942    4.9552 C   0  0  0  0  0  0  0  0  0  0  0  0
    6.7503   -0.6406    3.3635 S   0  0  0  0  0  0  0  0  0  0  0  0
    7.3426   -0.7258    5.9626 C   0  0  0  0  0  0  0  0  0  0  0  0
    7.1815   -0.1949    7.2211 C   0  0  0  0  0  0  0  0  0  0  0  0
    6.2184    0.7853    7.4539 C   0  0  0  0  0  0  0  0  0  0  0  0
    5.3821    1.2609    6.4328 C   0  0  0  0  0  0  0  0  0  0  0  0
    4.6422    1.1268    0.7359 N   0  0  0  0  0  0  0  0  0  0  0  0
    4.2654    0.9069   -0.6824 C   0  0  2  0  0  0  0  0  0  0  0  0
    3.1727    0.9913   -0.6939 H   0  0  0  0  0  0  0  0  0  0  0  0
    4.6668   -0.4373   -1.3294 C   0  0  0  0  0  0  0  0  0  0  0  0
    4.0339   -1.6921   -0.7170 C   0  0  0  0  0  0  0  0  0  0  0  0
    4.7743   -2.8835   -0.8163 C   0  0  0  0  0  0  0  0  0  0  0  0
    4.4323   -3.9923   -0.0448 C   0  0  0  0  0  0  0  0  0  0  0  0
    3.4518   -3.8813    0.9410 C   0  0  0  0  0  0  0  0  0  0  0  0
    2.8037   -2.6680    1.1443 C   0  0  0  0  0  0  0  0  0  0  0  0
    3.0032   -1.6165    0.2498 C   0  0  0  0  0  0  0  0  0  0  0  0
    4.7741    2.0416   -1.5498 C   0  0  0  0  0  0  0  0  0  0  0  0
    6.2000    2.0825   -1.5502 O   0  0  0  0  0  0  0  0  0  0  0  0
    6.7767    3.3845   -2.5325 P   0  0  0  0  0  0  0  0  0  0  0  0
    5.7944    4.3178   -1.7818 O   0  0  0  0  0  0  0  0  0  0  0  0
    8.1538    3.0742   -1.9094 O   0  5  0  0  0  0  0  0  0  0  0  0
    7.3534    4.6866   -3.5149 O   0  5  0  0  0  0  0  0  0  0  0  0
    4.0430    1.7438    3.7753 H   0  0  0  0  0  0  0  0  0  0  0  0
    8.0841   -1.4819    5.7191 H   0  0  0  0  0  0  0  0  0  0  0  0
    7.8393   -0.5474    8.0043 H   0  0  0  0  0  0  0  0  0  0  0  0
    6.1235    1.2020    8.4480 H   0  0  0  0  0  0  0  0  0  0  0  0
    4.6400    2.0289    6.6235 H   0  0  0  0  0  0  0  0  0  0  0  0
    4.9992    2.0610    0.9374 H   0  0  0  0  0  0  0  0  0  0  0  0
    5.7661   -0.5116   -1.2707 H   0  0  0  0  0  0  0  0  0  0  0  0
    4.4125   -0.4372   -2.3937 H   0  0  0  0  0  0  0  0  0  0  0  0
    5.7302   -2.8756   -1.3431 H   0  0  0  0  0  0  0  0  0  0  0  0
    5.0104   -4.9039   -0.1397 H   0  0  0  0  0  0  0  0  0  0  0  0
    3.2536   -4.7135    1.6055 H   0  0  0  0  0  0  0  0  0  0  0  0
    2.2436   -2.4922    2.0601 H   0  0  0  0  0  0  0  0  0  0  0  0
    2.5554   -0.6595    0.5097 H   0  0  0  0  0  0  0  0  0  0  0  0
    4.3388    2.9509   -1.1211 H   0  0  0  0  0  0  0  0  0  0  0  0
    4.4165    1.9461   -2.5812 H   0  0  0  0  0  0  0  0  0  0  0  0
  1  2  2  0  0  0  0
  2  3  1  0  0  0  0
  2 12  1  0  0  0  0
  3  4  2  0  0  0  0
  3  7  1  0  0  0  0
  4  5  1  0  0  0  0
  4 28  1  0  0  0  0
  5  6  2  0  0  0  0
  5 11  1  0  0  0  0
  6  7  1  0  0  0  0
  6  8  1  0  0  0  0
  8  9  2  0  0  0  0
  8 29  1  0  0  0  0
  9 10  1  0  0  0  0
  9 30  1  0  0  0  0
 10 11  2  0  0  0  0
 10 31  1  0  0  0  0
 11 32  1  0  0  0  0
 12 33  1  0  0  0  0
 13 15  1  0  0  0  0
 13 22  1  0  0  0  0
 13 14  1  6  0  0  0
 13 12  1  0  0  0  0
 15 16  1  0  0  0  0
 15 34  1  0  0  0  0
 15 35  1  0  0  0  0
 16 17  2  0  0  0  0
 16 21  1  0  0  0  0
 17 18  1  0  0  0  0
 17 36  1  0  0  0  0
 18 19  2  0  0  0  0
 18 37  1  0  0  0  0
 19 20  1  0  0  0  0
 19 38  1  0  0  0  0
 20 21  2  0  0  0  0
 20 39  1  0  0  0  0
 21 40  1  0  0  0  0
 22 23  1  0  0  0  0
 22 41  1  0  0  0  0
 22 42  1  0  0  0  0
 23 24  1  0  0  0  0
 24 25  2  0  0  0  0
 24 26  1  0  0  0  0
 24 27  1  0  0  0  0
M  CHG  2  26  -1  27  -1
M  END
$$$$
