JAN
 OpenBabel04121316143D

 56 60  0  0  1  0  0  0  0  0999 V2000
    6.7532    2.9653   -6.0353 Cl  0  0  0  0  0  0  0  0  0  0  0  0
    7.1382    2.0522   -4.6356 C   0  0  0  0  0  0  0  0  0  0  0  0
    6.8343    0.6944   -4.5734 C   0  0  0  0  0  0  0  0  0  0  0  0
    6.9627    0.0081   -3.3629 C   0  0  0  0  0  0  0  0  0  0  0  0
    7.3722    0.6871   -2.2109 C   0  0  0  0  0  0  0  0  0  0  0  0
    7.9920    1.9348   -2.4087 C   0  0  0  0  0  0  0  0  0  0  0  0
    7.7447    2.6743   -3.5586 C   0  0  0  0  0  0  0  0  0  0  0  0
    6.9894    0.1145   -0.8155 C   0  0  2  0  0  0  0  0  0  0  0  0
    5.4803    0.0750   -0.4722 C   0  0  0  0  0  0  0  0  0  0  0  0
    4.8884   -0.2233    0.7602 C   0  0  0  0  0  0  0  0  0  0  0  0
    3.5279   -0.0930    0.7339 N   0  0  0  0  0  0  0  0  0  0  0  0
    3.2590    0.2861   -0.4867 C   0  0  0  0  0  0  0  0  0  0  0  0
    4.3907    0.4319   -1.2377 N   0  0  0  0  0  0  0  0  0  0  0  0
    4.3290    0.8764   -2.5994 C   0  0  0  0  0  0  0  0  0  0  0  0
    7.6016    0.9431    0.3219 C   0  0  0  0  0  0  0  0  0  0  0  0
    7.3530    2.3277    0.3965 C   0  0  0  0  0  0  0  0  0  0  0  0
    7.7499    3.0789    1.4793 C   0  0  0  0  0  0  0  0  0  0  0  0
    8.4924    2.4804    2.4885 C   0  0  0  0  0  0  0  0  0  0  0  0
    8.7281    1.1050    2.4535 C   0  0  0  0  0  0  0  0  0  0  0  0
    8.2343    0.3399    1.4012 C   0  0  0  0  0  0  0  0  0  0  0  0
    9.5115    0.4487    3.5016 C   0  0  0  0  0  0  0  0  0  0  0  0
   10.0396    1.2134    4.4646 C   0  0  0  0  0  0  0  0  0  0  0  0
    9.8230    2.6756    4.5188 C   0  0  0  0  0  0  0  0  0  0  0  0
   10.3603    3.3087    5.4356 O   0  0  0  0  0  0  0  0  0  0  0  0
    9.0383    3.2477    3.5391 N   0  0  0  0  0  0  0  0  0  0  0  0
    8.8193    4.6813    3.5345 C   0  0  0  0  0  0  0  0  0  0  0  0
    9.7978   -0.9917    3.5195 C   0  0  0  0  0  0  0  0  0  0  0  0
   10.9179   -1.4794    2.8362 C   0  0  0  0  0  0  0  0  0  0  0  0
   11.1226   -2.8516    2.7376 C   0  0  0  0  0  0  0  0  0  0  0  0
   10.1441   -3.7312    3.2037 C   0  0  0  0  0  0  0  0  0  0  0  0
    9.0122   -3.2392    3.8538 C   0  0  0  0  0  0  0  0  0  0  0  0
    8.8607   -1.8742    4.0664 C   0  0  0  0  0  0  0  0  0  0  0  0
    7.7704   -4.3194    4.3517 Cl  0  0  0  0  0  0  0  0  0  0  0  0
    7.4465   -1.2852   -0.8188 N   0  0  0  0  0  0  0  0  0  0  0  0
    6.3771    0.1875   -5.4159 H   0  0  0  0  0  0  0  0  0  0  0  0
    6.5584   -1.0009   -3.2663 H   0  0  0  0  0  0  0  0  0  0  0  0
    8.5968    2.4113   -1.6423 H   0  0  0  0  0  0  0  0  0  0  0  0
    7.9997    3.7311   -3.5775 H   0  0  0  0  0  0  0  0  0  0  0  0
    5.3814   -0.5029    1.6845 H   0  0  0  0  0  0  0  0  0  0  0  0
    2.2749    0.4775   -0.8923 H   0  0  0  0  0  0  0  0  0  0  0  0
    3.3175    1.1647   -2.8793 H   0  0  0  0  0  0  0  0  0  0  0  0
    4.5884    0.0237   -3.2237 H   0  0  0  0  0  0  0  0  0  0  0  0
    4.9732    1.7493   -2.7038 H   0  0  0  0  0  0  0  0  0  0  0  0
    6.8485    2.8633   -0.4052 H   0  0  0  0  0  0  0  0  0  0  0  0
    7.4651    4.1245    1.4855 H   0  0  0  0  0  0  0  0  0  0  0  0
    8.3232   -0.7403    1.4418 H   0  0  0  0  0  0  0  0  0  0  0  0
   10.6592    0.8010    5.2499 H   0  0  0  0  0  0  0  0  0  0  0  0
    9.3089    5.1642    4.3786 H   0  0  0  0  0  0  0  0  0  0  0  0
    7.7430    4.8773    3.5942 H   0  0  0  0  0  0  0  0  0  0  0  0
    9.2269    5.1039    2.6082 H   0  0  0  0  0  0  0  0  0  0  0  0
   11.6121   -0.7912    2.3562 H   0  0  0  0  0  0  0  0  0  0  0  0
   12.0309   -3.2318    2.2782 H   0  0  0  0  0  0  0  0  0  0  0  0
   10.2658   -4.7995    3.0506 H   0  0  0  0  0  0  0  0  0  0  0  0
    7.9951   -1.4917    4.6023 H   0  0  0  0  0  0  0  0  0  0  0  0
    7.2172   -1.7297    0.0646 H   0  0  0  0  0  0  0  0  0  0  0  0
    8.4576   -1.2951   -0.9236 H   0  0  0  0  0  0  0  0  0  0  0  0
  1  2  1  0  0  0  0
  2  3  2  0  0  0  0
  2  7  1  0  0  0  0
  3  4  1  0  0  0  0
  3 35  1  0  0  0  0
  4  5  2  0  0  0  0
  4 36  1  0  0  0  0
  5  6  1  0  0  0  0
  6  7  2  0  0  0  0
  6 37  1  0  0  0  0
  7 38  1  0  0  0  0
  8 15  1  1  0  0  0
  8 34  1  0  0  0  0
  8  9  1  0  0  0  0
  8  5  1  0  0  0  0
  9 10  2  0  0  0  0
  9 13  1  0  0  0  0
 10 11  1  0  0  0  0
 10 39  1  0  0  0  0
 11 12  2  0  0  0  0
 12 13  1  0  0  0  0
 12 40  1  0  0  0  0
 13 14  1  0  0  0  0
 14 41  1  0  0  0  0
 14 42  1  0  0  0  0
 14 43  1  0  0  0  0
 15 16  2  0  0  0  0
 15 20  1  0  0  0  0
 16 17  1  0  0  0  0
 16 44  1  0  0  0  0
 17 18  2  0  0  0  0
 17 45  1  0  0  0  0
 18 19  1  0  0  0  0
 18 25  1  0  0  0  0
 19 20  2  0  0  0  0
 19 21  1  0  0  0  0
 20 46  1  0  0  0  0
 21 22  2  0  0  0  0
 21 27  1  0  0  0  0
 22 23  1  0  0  0  0
 22 47  1  0  0  0  0
 23 24  2  0  0  0  0
 23 25  1  0  0  0  0
 25 26  1  0  0  0  0
 26 48  1  0  0  0  0
 26 49  1  0  0  0  0
 26 50  1  0  0  0  0
 27 28  2  0  0  0  0
 27 32  1  0  0  0  0
 28 29  1  0  0  0  0
 28 51  1  0  0  0  0
 29 30  2  0  0  0  0
 29 52  1  0  0  0  0
 30 31  1  0  0  0  0
 30 53  1  0  0  0  0
 31 32  2  0  0  0  0
 31 33  1  0  0  0  0
 32 54  1  0  0  0  0
 34 55  1  0  0  0  0
 34 56  1  0  0  0  0
M  END
$$$$
