JDR
 OpenBabel04121316143D

 36 37  0  0  0  0  0  0  0  0999 V2000
    0.9365   -0.2779    0.1122 O   0  0  0  0  0  0  0  0  0  0  0  0
    2.1604   -0.2773    0.0991 C   0  0  0  0  0  0  0  0  0  0  0  0
    2.8953   -0.2422   -1.1582 C   0  0  0  0  0  0  0  0  0  0  0  0
    3.3204    0.9257   -1.7569 C   0  0  0  0  0  0  0  0  0  0  0  0
    3.1484    2.1905   -1.2357 N   0  0  0  0  0  0  0  0  0  0  0  0
    2.3951    2.4533   -0.0251 C   0  0  0  0  0  0  0  0  0  0  0  0
    2.2787    3.8979    0.3212 C   0  0  0  0  0  0  0  0  0  0  0  0
    1.0999    4.3669    0.9245 C   0  0  0  0  0  0  0  0  0  0  0  0
    0.9179    5.7299    1.0990 C   0  0  0  0  0  0  0  0  0  0  0  0
    1.9738    6.5928    0.8006 C   0  0  0  0  0  0  0  0  0  0  0  0
    3.2169    6.1035    0.3909 C   0  0  0  0  0  0  0  0  0  0  0  0
    3.3541    4.7577    0.1125 C   0  0  0  0  0  0  0  0  0  0  0  0
    1.6689    8.3300    0.8858 S   0  0  0  0  0  0  0  0  0  0  0  0
    0.7460    8.6524   -0.1692 O   0  0  0  0  0  0  0  0  0  0  0  0
    1.4453    8.6552    2.2785 O   0  0  0  0  0  0  0  0  0  0  0  0
    3.1443    8.9958    0.4593 N   0  0  0  0  0  0  0  0  0  0  0  0
    4.0000    0.8751   -2.9210 N   0  0  0  0  0  0  0  0  0  0  0  0
    4.2580   -0.3295   -3.4822 C   0  0  0  0  0  0  0  0  0  0  0  0
    3.8919   -1.5005   -2.9543 N   0  0  0  0  0  0  0  0  0  0  0  0
    3.2042   -1.4142   -1.8001 C   0  0  0  0  0  0  0  0  0  0  0  0
    2.7724   -2.9452   -1.1362 Cl  0  0  0  0  0  0  0  0  0  0  0  0
    5.1659   -0.2842   -5.0148 S   0  0  0  0  0  0  0  0  0  0  0  0
    5.3301   -2.0381   -5.4590 C   0  0  0  0  0  0  0  0  0  0  0  0
    2.7597   -0.1974    1.0220 H   0  0  0  0  0  0  0  0  0  0  0  0
    3.3934    2.9533   -1.8590 H   0  0  0  0  0  0  0  0  0  0  0  0
    2.9030    1.9881    0.8256 H   0  0  0  0  0  0  0  0  0  0  0  0
    1.3772    2.0724   -0.1405 H   0  0  0  0  0  0  0  0  0  0  0  0
    0.3093    3.6763    1.2207 H   0  0  0  0  0  0  0  0  0  0  0  0
   -0.0411    6.1114    1.4433 H   0  0  0  0  0  0  0  0  0  0  0  0
    4.0820    6.7372    0.2471 H   0  0  0  0  0  0  0  0  0  0  0  0
    4.2917    4.3772   -0.2858 H   0  0  0  0  0  0  0  0  0  0  0  0
    3.3798    8.8755   -0.5237 H   0  0  0  0  0  0  0  0  0  0  0  0
    3.8694    8.8824    1.1619 H   0  0  0  0  0  0  0  0  0  0  0  0
    5.8794   -2.0999   -6.4064 H   0  0  0  0  0  0  0  0  0  0  0  0
    4.3561   -2.5106   -5.6117 H   0  0  0  0  0  0  0  0  0  0  0  0
    5.9029   -2.5916   -4.7101 H   0  0  0  0  0  0  0  0  0  0  0  0
  1  2  2  0  0  0  0
  2  3  1  0  0  0  0
  2 24  1  0  0  0  0
  3  4  2  0  0  0  0
  3 20  1  0  0  0  0
  4  5  1  0  0  0  0
  4 17  1  0  0  0  0
  5  6  1  0  0  0  0
  5 25  1  0  0  0  0
  6  7  1  0  0  0  0
  6 26  1  0  0  0  0
  6 27  1  0  0  0  0
  7  8  2  0  0  0  0
  7 12  1  0  0  0  0
  8  9  1  0  0  0  0
  8 28  1  0  0  0  0
  9 10  2  0  0  0  0
  9 29  1  0  0  0  0
 10 11  1  0  0  0  0
 10 13  1  0  0  0  0
 11 12  2  0  0  0  0
 11 30  1  0  0  0  0
 12 31  1  0  0  0  0
 13 14  2  0  0  0  0
 13 15  2  0  0  0  0
 13 16  1  0  0  0  0
 16 32  1  0  0  0  0
 16 33  1  0  0  0  0
 17 18  2  0  0  0  0
 18 19  1  0  0  0  0
 18 22  1  0  0  0  0
 19 20  2  0  0  0  0
 20 21  1  0  0  0  0
 22 23  1  0  0  0  0
 23 34  1  0  0  0  0
 23 35  1  0  0  0  0
 23 36  1  0  0  0  0
M  END
$$$$
