JI3
 OpenBabel04121316143D

 54 56  0  0  1  0  0  0  0  0999 V2000
   16.1713    5.4449   -4.7417 Cl  0  0  0  0  0  0  0  0  0  0  0  0
   15.9904    3.7509   -4.5140 C   0  0  0  0  0  0  0  0  0  0  0  0
   16.7846    2.8622   -5.2377 C   0  0  0  0  0  0  0  0  0  0  0  0
   16.5426    1.4905   -5.1577 C   0  0  0  0  0  0  0  0  0  0  0  0
   15.5648    0.9993   -4.2852 C   0  0  0  0  0  0  0  0  0  0  0  0
   14.8686    1.9087   -3.4676 C   0  0  0  0  0  0  0  0  0  0  0  0
   15.0364    3.2798   -3.6215 C   0  0  0  0  0  0  0  0  0  0  0  0
   15.2582   -0.4823   -4.2844 C   0  0  0  0  0  0  0  0  0  0  0  0
   14.2283   -0.7954   -3.3052 N   0  0  0  0  0  0  0  0  0  0  0  0
   13.9611   -2.2274   -3.2416 C   0  0  0  0  0  0  0  0  0  0  0  0
   13.0520   -2.4906   -2.0330 C   0  0  0  0  0  0  0  0  0  0  0  0
   12.7208   -3.8936   -1.9634 N   0  0  0  0  0  0  0  0  0  0  0  0
   11.4686   -4.1517   -1.2548 C   0  0  2  0  0  0  0  0  0  0  0  0
   10.8031   -3.2796   -1.2169 H   0  0  0  0  0  0  0  0  0  0  0  0
   11.7469   -4.6645    0.1508 C   0  0  0  0  0  0  0  0  0  0  0  0
   12.0909   -6.0714   -0.0697 N   0  0  0  0  0  0  0  0  0  0  0  0
   11.1765   -6.5511   -1.1147 C   0  0  0  0  0  0  0  0  0  0  0  0
   10.7272   -5.3212   -1.9164 C   0  0  2  0  0  0  0  0  0  0  0  0
    9.6460   -5.1884   -1.7604 H   0  0  0  0  0  0  0  0  0  0  0  0
   10.9708   -5.4350   -3.4308 C   0  0  0  0  0  0  0  0  0  0  0  0
   10.5011   -4.2169   -4.2193 C   0  0  0  0  0  0  0  0  0  0  0  0
    9.8179   -4.3985   -5.4041 C   0  0  0  0  0  0  0  0  0  0  0  0
    9.5244   -3.2696   -6.1621 C   0  0  0  0  0  0  0  0  0  0  0  0
    8.7593   -3.3823   -7.4342 C   0  0  0  0  0  0  0  0  0  0  0  0
    9.9532   -2.0059   -5.7575 C   0  0  0  0  0  0  0  0  0  0  0  0
   10.6079   -1.8777   -4.5539 C   0  0  0  0  0  0  0  0  0  0  0  0
   10.8408   -2.9643   -3.8056 N   0  0  0  0  0  0  0  0  0  0  0  0
   11.1728   -0.6572   -4.2111 N   0  0  0  0  0  0  0  0  0  0  0  0
   17.5773    3.2305   -5.8811 H   0  0  0  0  0  0  0  0  0  0  0  0
   17.1106    0.8056   -5.7840 H   0  0  0  0  0  0  0  0  0  0  0  0
   14.1708    1.5573   -2.7102 H   0  0  0  0  0  0  0  0  0  0  0  0
   14.4162    3.9601   -3.0460 H   0  0  0  0  0  0  0  0  0  0  0  0
   16.1770   -1.0377   -4.0656 H   0  0  0  0  0  0  0  0  0  0  0  0
   14.9082   -0.7621   -5.2874 H   0  0  0  0  0  0  0  0  0  0  0  0
   13.3695   -0.3462   -3.6314 H   0  0  0  0  0  0  0  0  0  0  0  0
   14.8880   -2.7937   -3.1163 H   0  0  0  0  0  0  0  0  0  0  0  0
   13.5001   -2.5522   -4.1850 H   0  0  0  0  0  0  0  0  0  0  0  0
   12.1423   -1.8965   -2.1236 H   0  0  0  0  0  0  0  0  0  0  0  0
   13.5040   -2.1430   -1.1021 H   0  0  0  0  0  0  0  0  0  0  0  0
   13.4784   -4.5176   -1.7109 H   0  0  0  0  0  0  0  0  0  0  0  0
   10.8517   -4.5737    0.7762 H   0  0  0  0  0  0  0  0  0  0  0  0
   12.5615   -4.1140    0.6327 H   0  0  0  0  0  0  0  0  0  0  0  0
   11.9879   -6.6040    0.7902 H   0  0  0  0  0  0  0  0  0  0  0  0
   10.3041   -7.0234   -0.6460 H   0  0  0  0  0  0  0  0  0  0  0  0
   11.6723   -7.3055   -1.7321 H   0  0  0  0  0  0  0  0  0  0  0  0
   10.4651   -6.3390   -3.7968 H   0  0  0  0  0  0  0  0  0  0  0  0
   12.0357   -5.6086   -3.6453 H   0  0  0  0  0  0  0  0  0  0  0  0
    9.5308   -5.3914   -5.7273 H   0  0  0  0  0  0  0  0  0  0  0  0
    8.4835   -4.4201   -7.6336 H   0  0  0  0  0  0  0  0  0  0  0  0
    9.3755   -3.0126   -8.2573 H   0  0  0  0  0  0  0  0  0  0  0  0
    7.8466   -2.7862   -7.3494 H   0  0  0  0  0  0  0  0  0  0  0  0
    9.7682   -1.1274   -6.3566 H   0  0  0  0  0  0  0  0  0  0  0  0
   10.7816    0.1802   -4.6110 H   0  0  0  0  0  0  0  0  0  0  0  0
   11.4319   -0.5932   -3.2323 H   0  0  0  0  0  0  0  0  0  0  0  0
  1  2  1  0  0  0  0
  2  3  2  0  0  0  0
  2  7  1  0  0  0  0
  3  4  1  0  0  0  0
  3 29  1  0  0  0  0
  4  5  2  0  0  0  0
  4 30  1  0  0  0  0
  5  6  1  0  0  0  0
  5  8  1  0  0  0  0
  6  7  2  0  0  0  0
  6 31  1  0  0  0  0
  7 32  1  0  0  0  0
  8  9  1  0  0  0  0
  8 33  1  0  0  0  0
  8 34  1  0  0  0  0
  9 10  1  0  0  0  0
  9 35  1  0  0  0  0
 10 11  1  0  0  0  0
 10 36  1  0  0  0  0
 10 37  1  0  0  0  0
 11 12  1  0  0  0  0
 11 38  1  0  0  0  0
 11 39  1  0  0  0  0
 12 40  1  0  0  0  0
 13 15  1  0  0  0  0
 13 18  1  0  0  0  0
 13 14  1  1  0  0  0
 13 12  1  0  0  0  0
 15 16  1  0  0  0  0
 15 41  1  0  0  0  0
 15 42  1  0  0  0  0
 16 17  1  0  0  0  0
 16 43  1  0  0  0  0
 17 18  1  0  0  0  0
 17 44  1  0  0  0  0
 17 45  1  0  0  0  0
 18 19  1  1  0  0  0
 18 20  1  0  0  0  0
 20 21  1  0  0  0  0
 20 46  1  0  0  0  0
 20 47  1  0  0  0  0
 21 22  2  0  0  0  0
 21 27  1  0  0  0  0
 22 23  1  0  0  0  0
 22 48  1  0  0  0  0
 23 24  1  0  0  0  0
 23 25  2  0  0  0  0
 24 49  1  0  0  0  0
 24 50  1  0  0  0  0
 24 51  1  0  0  0  0
 25 26  1  0  0  0  0
 25 52  1  0  0  0  0
 26 27  2  0  0  0  0
 26 28  1  0  0  0  0
 28 53  1  0  0  0  0
 28 54  1  0  0  0  0
M  END
$$$$
