JI5
 OpenBabel04121316143D

 57 59  0  0  1  0  0  0  0  0999 V2000
    0.9044    0.1441    0.1932 F   0  0  0  0  0  0  0  0  0  0  0  0
    2.2409    0.1225    0.1100 C   0  0  0  0  0  0  0  0  0  0  0  0
    2.9551    1.3042    0.0251 C   0  0  0  0  0  0  0  0  0  0  0  0
    4.3460    1.2612   -0.0746 C   0  0  0  0  0  0  0  0  0  0  0  0
    5.0028    0.0350   -0.1942 C   0  0  0  0  0  0  0  0  0  0  0  0
    4.2790   -1.1604   -0.1327 C   0  0  0  0  0  0  0  0  0  0  0  0
    2.8928   -1.0970    0.0894 C   0  0  0  0  0  0  0  0  0  0  0  0
    5.0013   -2.4661   -0.3679 C   0  0  0  0  0  0  0  0  0  0  0  0
    4.0584   -3.6578   -0.2669 C   0  0  0  0  0  0  0  0  0  0  0  0
    4.7319   -4.9156   -0.5184 N   0  0  0  0  0  0  0  0  0  0  0  0
    3.7355   -5.9810   -0.3880 C   0  0  0  0  0  0  0  0  0  0  0  0
    4.4320   -7.3003   -0.6464 C   0  0  0  0  0  0  0  0  0  0  0  0
    3.4948   -8.4138   -0.5135 N   0  0  0  0  0  0  0  0  0  0  0  0
    4.2371   -9.6612   -0.6473 C   0  0  1  0  0  0  0  0  0  0  0  0
    4.8169   -9.6148   -1.5840 H   0  0  0  0  0  0  0  0  0  0  0  0
    5.1865   -9.9348    0.5151 C   0  0  0  0  0  0  0  0  0  0  0  0
    5.5396  -11.3384    0.3470 N   0  0  0  0  0  0  0  0  0  0  0  0
    4.3044  -12.0065   -0.0587 C   0  0  0  0  0  0  0  0  0  0  0  0
    3.4100  -10.9418   -0.7329 C   0  0  1  0  0  0  0  0  0  0  0  0
    3.3156  -11.1371   -1.8086 H   0  0  0  0  0  0  0  0  0  0  0  0
    2.0070  -10.9172   -0.0891 C   0  0  0  0  0  0  0  0  0  0  0  0
    1.0980  -12.0481   -0.5381 C   0  0  0  0  0  0  0  0  0  0  0  0
    1.5127  -12.9720   -1.4964 C   0  0  0  0  0  0  0  0  0  0  0  0
    0.6361  -13.9406   -1.9524 C   0  0  0  0  0  0  0  0  0  0  0  0
    1.0753  -14.9068   -3.0044 C   0  0  0  0  0  0  0  0  0  0  0  0
   -0.6413  -13.9717   -1.4185 C   0  0  0  0  0  0  0  0  0  0  0  0
   -1.0013  -13.0376   -0.4502 C   0  0  0  0  0  0  0  0  0  0  0  0
   -0.1517  -12.0840   -0.0134 N   0  0  0  0  0  0  0  0  0  0  0  0
   -2.2688  -13.0625    0.0702 N   0  0  0  0  0  0  0  0  0  0  0  0
    2.4226    2.2473    0.0385 H   0  0  0  0  0  0  0  0  0  0  0  0
    4.9186    2.1834   -0.0820 H   0  0  0  0  0  0  0  0  0  0  0  0
    6.0800    0.0146   -0.3515 H   0  0  0  0  0  0  0  0  0  0  0  0
    2.2759   -1.9801    0.2193 H   0  0  0  0  0  0  0  0  0  0  0  0
    5.8195   -2.5710    0.3554 H   0  0  0  0  0  0  0  0  0  0  0  0
    5.4449   -2.4438   -1.3731 H   0  0  0  0  0  0  0  0  0  0  0  0
    3.2514   -3.5448   -1.0031 H   0  0  0  0  0  0  0  0  0  0  0  0
    3.6155   -3.6836    0.7372 H   0  0  0  0  0  0  0  0  0  0  0  0
    5.4686   -5.0517    0.1745 H   0  0  0  0  0  0  0  0  0  0  0  0
    2.9218   -5.8413   -1.1104 H   0  0  0  0  0  0  0  0  0  0  0  0
    3.3019   -5.9803    0.6211 H   0  0  0  0  0  0  0  0  0  0  0  0
    5.2442   -7.3876    0.0833 H   0  0  0  0  0  0  0  0  0  0  0  0
    4.8769   -7.2982   -1.6493 H   0  0  0  0  0  0  0  0  0  0  0  0
    2.7819   -8.3380   -1.2404 H   0  0  0  0  0  0  0  0  0  0  0  0
    4.6816   -9.7666    1.4737 H   0  0  0  0  0  0  0  0  0  0  0  0
    6.0838   -9.3122    0.4718 H   0  0  0  0  0  0  0  0  0  0  0  0
    5.8773  -11.7127    1.2326 H   0  0  0  0  0  0  0  0  0  0  0  0
    3.8217  -12.4525    0.8183 H   0  0  0  0  0  0  0  0  0  0  0  0
    4.5494  -12.8193   -0.7493 H   0  0  0  0  0  0  0  0  0  0  0  0
    2.0908  -10.9368    1.0053 H   0  0  0  0  0  0  0  0  0  0  0  0
    1.4866   -9.9891   -0.3514 H   0  0  0  0  0  0  0  0  0  0  0  0
    2.5053  -12.9577   -1.9224 H   0  0  0  0  0  0  0  0  0  0  0  0
    2.1108  -14.7174   -3.3109 H   0  0  0  0  0  0  0  0  0  0  0  0
    0.4437  -14.8048   -3.8908 H   0  0  0  0  0  0  0  0  0  0  0  0
    1.0224  -15.9273   -2.6177 H   0  0  0  0  0  0  0  0  0  0  0  0
   -1.3545  -14.7147   -1.7516 H   0  0  0  0  0  0  0  0  0  0  0  0
   -2.9359  -13.7647   -0.2018 H   0  0  0  0  0  0  0  0  0  0  0  0
   -2.4898  -12.3765    0.7793 H   0  0  0  0  0  0  0  0  0  0  0  0
  1  2  1  0  0  0  0
  2  3  2  0  0  0  0
  2  7  1  0  0  0  0
  3  4  1  0  0  0  0
  3 30  1  0  0  0  0
  4  5  2  0  0  0  0
  4 31  1  0  0  0  0
  5  6  1  0  0  0  0
  5 32  1  0  0  0  0
  6  7  2  0  0  0  0
  6  8  1  0  0  0  0
  7 33  1  0  0  0  0
  8  9  1  0  0  0  0
  8 34  1  0  0  0  0
  8 35  1  0  0  0  0
  9 10  1  0  0  0  0
  9 36  1  0  0  0  0
  9 37  1  0  0  0  0
 10 11  1  0  0  0  0
 10 38  1  0  0  0  0
 11 12  1  0  0  0  0
 11 39  1  0  0  0  0
 11 40  1  0  0  0  0
 12 13  1  0  0  0  0
 12 41  1  0  0  0  0
 12 42  1  0  0  0  0
 13 14  1  0  0  0  0
 13 43  1  0  0  0  0
 14 15  1  6  0  0  0
 14 16  1  0  0  0  0
 14 19  1  0  0  0  0
 16 17  1  0  0  0  0
 16 44  1  0  0  0  0
 16 45  1  0  0  0  0
 17 18  1  0  0  0  0
 17 46  1  0  0  0  0
 18 19  1  0  0  0  0
 18 47  1  0  0  0  0
 18 48  1  0  0  0  0
 19 21  1  0  0  0  0
 19 20  1  6  0  0  0
 21 22  1  0  0  0  0
 21 49  1  0  0  0  0
 21 50  1  0  0  0  0
 22 23  2  0  0  0  0
 22 28  1  0  0  0  0
 23 24  1  0  0  0  0
 23 51  1  0  0  0  0
 24 25  1  0  0  0  0
 24 26  2  0  0  0  0
 25 52  1  0  0  0  0
 25 53  1  0  0  0  0
 25 54  1  0  0  0  0
 26 27  1  0  0  0  0
 26 55  1  0  0  0  0
 27 28  2  0  0  0  0
 27 29  1  0  0  0  0
 29 56  1  0  0  0  0
 29 57  1  0  0  0  0
M  END
$$$$
