JKE
 OpenBabel04121316143D

 16 16  0  0  0  0  0  0  0  0999 V2000
    0.9413    0.0505    0.0306 O   0  0  0  0  0  0  0  0  0  0  0  0
    2.2836    0.0226   -0.0943 C   0  0  0  0  0  0  0  0  0  0  0  0
    2.8618   -0.7945   -0.7931 O   0  0  0  0  0  0  0  0  0  0  0  0
    2.9510    1.0649    0.7291 C   0  0  0  0  0  0  0  0  0  0  0  0
    2.4664    2.3854    0.6655 C   0  0  0  0  0  0  0  0  0  0  0  0
    3.1710    3.4253    1.2708 C   0  0  0  0  0  0  0  0  0  0  0  0
    4.2912    3.1415    2.0437 C   0  0  0  0  0  0  0  0  0  0  0  0
    4.7125    1.8179    2.2083 C   0  0  0  0  0  0  0  0  0  0  0  0
    4.0933    0.7716    1.5030 C   0  0  0  0  0  0  0  0  0  0  0  0
    4.7804   -0.8793    1.6422 S   0  0  0  0  0  0  0  0  0  0  0  0
    0.5572    0.8299   -0.4107 H   0  0  0  0  0  0  0  0  0  0  0  0
    1.5614    2.6320    0.1201 H   0  0  0  0  0  0  0  0  0  0  0  0
    2.8468    4.4555    1.1375 H   0  0  0  0  0  0  0  0  0  0  0  0
    4.8369    3.9525    2.5220 H   0  0  0  0  0  0  0  0  0  0  0  0
    5.5400    1.6222    2.8872 H   0  0  0  0  0  0  0  0  0  0  0  0
    5.8720   -0.6130    2.3711 H   0  0  0  0  0  0  0  0  0  0  0  0
  1  2  1  0  0  0  0
  1 11  1  0  0  0  0
  2  3  2  0  0  0  0
  2  4  1  0  0  0  0
  4  5  2  0  0  0  0
  4  9  1  0  0  0  0
  5  6  1  0  0  0  0
  5 12  1  0  0  0  0
  6  7  2  0  0  0  0
  6 13  1  0  0  0  0
  7  8  1  0  0  0  0
  7 14  1  0  0  0  0
  8  9  2  0  0  0  0
  8 15  1  0  0  0  0
  9 10  1  0  0  0  0
 10 16  1  0  0  0  0
M  END
$$$$
