JM6
 OpenBabel04121316143D

 37 36  0  0  1  0  0  0  0  0999 V2000
    1.1406   -0.0148    0.0671 C   0  0  0  0  0  0  0  0  0  0  0  0
    2.9405    0.0033   -0.0719 S   0  0  0  0  0  0  0  0  0  0  0  0
    3.4256   -0.2153    1.6766 C   0  0  0  0  0  0  0  0  0  0  0  0
    4.9468   -0.2187    1.7028 C   0  0  0  0  0  0  0  0  0  0  0  0
    5.5338   -0.3916    3.0966 C   0  0  0  0  0  0  0  0  0  0  0  0
    7.0549   -0.3754    3.0791 C   0  0  0  0  0  0  0  0  0  0  0  0
    7.7594   -0.2474    1.9990 N   0  0  0  0  0  0  0  0  0  0  0  0
    7.7128   -0.4942    4.2662 N   0  0  0  0  0  0  0  0  0  0  0  0
    9.1612   -0.4954    4.2803 C   0  0  0  0  0  0  0  0  0  0  0  0
    9.6493   -0.7028    5.6897 C   0  0  0  0  0  0  0  0  0  0  0  0
   11.1710   -0.7412    5.7692 C   0  0  0  0  0  0  0  0  0  0  0  0
   11.6696   -0.9314    7.2068 C   0  0  1  0  0  0  0  0  0  0  0  0
   11.2939   -0.1337    7.8573 H   0  0  0  0  0  0  0  0  0  0  0  0
   11.2566   -2.3003    7.8169 C   0  0  0  0  0  0  0  0  0  0  0  0
   12.0430   -3.2106    8.0697 O   0  0  0  0  0  0  0  0  0  0  0  0
    9.9365   -2.4569    8.0681 O   0  0  0  0  0  0  0  0  0  0  0  0
   13.1447   -0.8326    7.2016 N   0  0  0  0  0  0  0  0  0  0  0  0
    0.7264    0.1102   -0.9382 H   0  0  0  0  0  0  0  0  0  0  0  0
    0.7842    0.8115    0.6865 H   0  0  0  0  0  0  0  0  0  0  0  0
    0.7847   -0.9679    0.4652 H   0  0  0  0  0  0  0  0  0  0  0  0
    3.0403   -1.1635    2.0635 H   0  0  0  0  0  0  0  0  0  0  0  0
    3.0406    0.6092    2.2844 H   0  0  0  0  0  0  0  0  0  0  0  0
    5.3213    0.7266    1.2859 H   0  0  0  0  0  0  0  0  0  0  0  0
    5.3214   -1.0331    1.0672 H   0  0  0  0  0  0  0  0  0  0  0  0
    5.2031   -1.3386    3.5408 H   0  0  0  0  0  0  0  0  0  0  0  0
    5.1946    0.4145    3.7590 H   0  0  0  0  0  0  0  0  0  0  0  0
    7.1951   -0.1582    1.1564 H   0  0  0  0  0  0  0  0  0  0  0  0
    7.1996   -0.6481    5.1251 H   0  0  0  0  0  0  0  0  0  0  0  0
    9.5417    0.4498    3.8801 H   0  0  0  0  0  0  0  0  0  0  0  0
    9.5335   -1.3171    3.6558 H   0  0  0  0  0  0  0  0  0  0  0  0
    9.2322   -1.6640    5.9939 H   0  0  0  0  0  0  0  0  0  0  0  0
    9.2534    0.0740    6.3558 H   0  0  0  0  0  0  0  0  0  0  0  0
   11.5667    0.2000    5.3596 H   0  0  0  0  0  0  0  0  0  0  0  0
   11.5474   -1.5466    5.1255 H   0  0  0  0  0  0  0  0  0  0  0  0
    9.3676   -1.6857    7.8993 H   0  0  0  0  0  0  0  0  0  0  0  0
   13.4674    0.0068    6.7279 H   0  0  0  0  0  0  0  0  0  0  0  0
   13.5221   -1.6323    6.6849 H   0  0  0  0  0  0  0  0  0  0  0  0
  1  2  1  0  0  0  0
  1 18  1  0  0  0  0
  1 19  1  0  0  0  0
  1 20  1  0  0  0  0
  2  3  1  0  0  0  0
  3  4  1  0  0  0  0
  3 21  1  0  0  0  0
  3 22  1  0  0  0  0
  4  5  1  0  0  0  0
  4 23  1  0  0  0  0
  4 24  1  0  0  0  0
  5  6  1  0  0  0  0
  5 25  1  0  0  0  0
  5 26  1  0  0  0  0
  6  7  2  0  0  0  0
  6  8  1  0  0  0  0
  7 27  1  0  0  0  0
  8  9  1  0  0  0  0
  8 28  1  0  0  0  0
  9 10  1  0  0  0  0
  9 29  1  0  0  0  0
  9 30  1  0  0  0  0
 10 11  1  0  0  0  0
 10 31  1  0  0  0  0
 10 32  1  0  0  0  0
 11 12  1  0  0  0  0
 11 33  1  0  0  0  0
 11 34  1  0  0  0  0
 12 13  1  1  0  0  0
 12 14  1  0  0  0  0
 12 17  1  0  0  0  0
 14 15  2  0  0  0  0
 14 16  1  0  0  0  0
 16 35  1  0  0  0  0
 17 36  1  0  0  0  0
 17 37  1  0  0  0  0
M  END
$$$$
