JM7
 OpenBabel04121316143D

 34 33  0  0  1  0  0  0  0  0999 V2000
    0.9691    0.0550   -0.0381 C   0  0  0  0  0  0  0  0  0  0  0  0
    2.4925    0.0566   -0.0699 C   0  0  0  0  0  0  0  0  0  0  0  0
    2.9571    0.1550   -1.8155 S   0  0  0  0  0  0  0  0  0  0  0  0
    4.7869    0.1514   -1.7437 C   0  0  0  0  0  0  0  0  0  0  0  0
    5.3202    0.2462   -3.1839 C   0  0  0  0  0  0  0  0  0  0  0  0
    4.5199    0.2971   -4.2091 N   0  0  0  0  0  0  0  0  0  0  0  0
    6.6666    0.2873   -3.4132 N   0  0  0  0  0  0  0  0  0  0  0  0
    7.1567    0.3650   -4.7775 C   0  0  0  0  0  0  0  0  0  0  0  0
    8.6643    0.3330   -4.7719 C   0  0  0  0  0  0  0  0  0  0  0  0
    9.2516    0.3841   -6.1786 C   0  0  0  0  0  0  0  0  0  0  0  0
   10.7860    0.3718   -6.1667 C   0  0  1  0  0  0  0  0  0  0  0  0
   11.1770    1.2121   -5.5821 H   0  0  0  0  0  0  0  0  0  0  0  0
   11.3794   -0.9456   -5.5927 C   0  0  0  0  0  0  0  0  0  0  0  0
   11.9845   -1.7810   -6.2608 O   0  0  0  0  0  0  0  0  0  0  0  0
   11.1926   -1.1445   -4.2675 O   0  0  0  0  0  0  0  0  0  0  0  0
   11.2622    0.5479   -7.5552 N   0  0  0  0  0  0  0  0  0  0  0  0
    0.6032   -0.0029    0.9907 H   0  0  0  0  0  0  0  0  0  0  0  0
    0.5580   -0.8030   -0.5843 H   0  0  0  0  0  0  0  0  0  0  0  0
    0.5581    0.9691   -0.4844 H   0  0  0  0  0  0  0  0  0  0  0  0
    2.8783   -0.8628    0.3799 H   0  0  0  0  0  0  0  0  0  0  0  0
    2.8783    0.9197    0.4805 H   0  0  0  0  0  0  0  0  0  0  0  0
    5.1638   -0.7708   -1.2886 H   0  0  0  0  0  0  0  0  0  0  0  0
    5.1612    1.0125   -1.1799 H   0  0  0  0  0  0  0  0  0  0  0  0
    3.5523    0.2631   -3.8537 H   0  0  0  0  0  0  0  0  0  0  0  0
    7.3247    0.1978   -2.6498 H   0  0  0  0  0  0  0  0  0  0  0  0
    6.7982    1.2819   -5.2565 H   0  0  0  0  0  0  0  0  0  0  0  0
    6.7913   -0.4963   -5.3507 H   0  0  0  0  0  0  0  0  0  0  0  0
    8.9240   -0.6117   -4.2919 H   0  0  0  0  0  0  0  0  0  0  0  0
    9.0667    1.1530   -4.1641 H   0  0  0  0  0  0  0  0  0  0  0  0
    8.8917    1.2969   -6.6756 H   0  0  0  0  0  0  0  0  0  0  0  0
    8.8695   -0.4633   -6.7622 H   0  0  0  0  0  0  0  0  0  0  0  0
   10.7567   -0.4251   -3.7786 H   0  0  0  0  0  0  0  0  0  0  0  0
   10.8295    1.3491   -8.0069 H   0  0  0  0  0  0  0  0  0  0  0  0
   10.9985   -0.2803   -8.0970 H   0  0  0  0  0  0  0  0  0  0  0  0
  1  2  1  0  0  0  0
  1 17  1  0  0  0  0
  1 18  1  0  0  0  0
  1 19  1  0  0  0  0
  2  3  1  0  0  0  0
  2 20  1  0  0  0  0
  2 21  1  0  0  0  0
  3  4  1  0  0  0  0
  4  5  1  0  0  0  0
  4 22  1  0  0  0  0
  4 23  1  0  0  0  0
  5  6  2  0  0  0  0
  5  7  1  0  0  0  0
  6 24  1  0  0  0  0
  7  8  1  0  0  0  0
  7 25  1  0  0  0  0
  8  9  1  0  0  0  0
  8 26  1  0  0  0  0
  8 27  1  0  0  0  0
  9 10  1  0  0  0  0
  9 28  1  0  0  0  0
  9 29  1  0  0  0  0
 10 11  1  0  0  0  0
 10 30  1  0  0  0  0
 10 31  1  0  0  0  0
 11 12  1  1  0  0  0
 11 13  1  0  0  0  0
 11 16  1  0  0  0  0
 13 14  2  0  0  0  0
 13 15  1  0  0  0  0
 15 32  1  0  0  0  0
 16 33  1  0  0  0  0
 16 34  1  0  0  0  0
M  END
$$$$
