JMZ
 OpenBabel04121316143D

 27 29  0  0  0  0  0  0  0  0999 V2000
    1.0892   -0.0098   -0.2668 N   0  0  0  0  0  0  0  0  0  0  0  0
    2.4550   -0.0261   -0.1511 C   0  0  0  0  0  0  0  0  0  0  0  0
    3.0741    1.1570   -0.1408 N   0  0  0  0  0  0  0  0  0  0  0  0
    4.3929    1.1363    0.0906 C   0  0  0  0  0  0  0  0  0  0  0  0
    5.0883   -0.0106    0.3597 C   0  0  0  0  0  0  0  0  0  0  0  0
    4.4102   -1.1979    0.1615 C   0  0  0  0  0  0  0  0  0  0  0  0
    3.0733   -1.2104   -0.0560 N   0  0  0  0  0  0  0  0  0  0  0  0
    5.1269   -2.4984    0.0905 C   0  0  0  0  0  0  0  0  0  0  0  0
    6.5329   -2.5407   -0.0552 C   0  0  0  0  0  0  0  0  0  0  0  0
    7.2580   -3.7353   -0.1247 C   0  0  0  0  0  0  0  0  0  0  0  0
    6.5578   -4.9439   -0.0690 C   0  0  0  0  0  0  0  0  0  0  0  0
    5.1732   -4.9154    0.0400 C   0  0  0  0  0  0  0  0  0  0  0  0
    4.4316   -3.7249    0.1141 C   0  0  0  0  0  0  0  0  0  0  0  0
    4.7986   -6.2317    0.0538 N   0  0  0  0  0  0  0  0  0  0  0  0
    3.8594   -6.6034    0.1225 H   0  0  0  0  0  0  0  0  0  0  0  0
    5.8253   -7.1008   -0.0215 N   0  0  0  0  0  0  0  0  0  0  0  0
    6.8920   -6.3208   -0.0991 C   0  0  0  0  0  0  0  0  0  0  0  0
    8.1502   -6.7786   -0.1919 N   0  0  0  0  0  0  0  0  0  0  0  0
    0.6586    0.8748   -0.0449 H   0  0  0  0  0  0  0  0  0  0  0  0
    0.6232   -0.8797   -0.0714 H   0  0  0  0  0  0  0  0  0  0  0  0
    4.9054    2.0910    0.0302 H   0  0  0  0  0  0  0  0  0  0  0  0
    6.1263    0.0386    0.6525 H   0  0  0  0  0  0  0  0  0  0  0  0
    7.1163   -1.6276   -0.1401 H   0  0  0  0  0  0  0  0  0  0  0  0
    8.3385   -3.7159   -0.2244 H   0  0  0  0  0  0  0  0  0  0  0  0
    3.3472   -3.7493    0.1844 H   0  0  0  0  0  0  0  0  0  0  0  0
    8.3170   -7.7756   -0.2085 H   0  0  0  0  0  0  0  0  0  0  0  0
    8.9586   -6.1806   -0.2564 H   0  0  0  0  0  0  0  0  0  0  0  0
  1  2  1  0  0  0  0
  1 19  1  0  0  0  0
  1 20  1  0  0  0  0
  2  3  2  0  0  0  0
  2  7  1  0  0  0  0
  3  4  1  0  0  0  0
  4  5  2  0  0  0  0
  4 21  1  0  0  0  0
  5  6  1  0  0  0  0
  5 22  1  0  0  0  0
  6  7  2  0  0  0  0
  6  8  1  0  0  0  0
  8  9  2  0  0  0  0
  8 13  1  0  0  0  0
  9 10  1  0  0  0  0
  9 23  1  0  0  0  0
 10 11  2  0  0  0  0
 10 24  1  0  0  0  0
 11 12  1  0  0  0  0
 11 17  1  0  0  0  0
 12 13  2  0  0  0  0
 12 14  1  0  0  0  0
 13 25  1  0  0  0  0
 14 15  1  0  0  0  0
 14 16  1  0  0  0  0
 16 17  2  0  0  0  0
 17 18  1  0  0  0  0
 18 26  1  0  0  0  0
 18 27  1  0  0  0  0
M  END
$$$$
