JP1
 OpenBabel04121316143D

 41 43  0  0  0  0  0  0  0  0999 V2000
    0.8821   -0.2971    0.1892 Cl  0  0  0  0  0  0  0  0  0  0  0  0
    2.5937   -0.2618    0.0985 C   0  0  0  0  0  0  0  0  0  0  0  0
    3.2069    0.9630   -0.0247 C   0  0  0  0  0  0  0  0  0  0  0  0
    4.5796    1.0119   -0.1847 C   0  0  0  0  0  0  0  0  0  0  0  0
    5.3936   -0.1256   -0.2102 C   0  0  0  0  0  0  0  0  0  0  0  0
    4.7435   -1.3601   -0.1098 C   0  0  0  0  0  0  0  0  0  0  0  0
    3.3579   -1.4282    0.0907 C   0  0  0  0  0  0  0  0  0  0  0  0
    5.4093   -2.5498   -0.2447 O   0  0  0  0  0  0  0  0  0  0  0  0
    6.7719   -0.1426   -0.3184 O   0  0  0  0  0  0  0  0  0  0  0  0
    7.5123    1.0097   -0.4739 C   0  0  0  0  0  0  0  0  0  0  0  0
    7.1088    2.2775   -0.0540 C   0  0  0  0  0  0  0  0  0  0  0  0
    7.6821    3.4443   -0.5303 C   0  0  0  0  0  0  0  0  0  0  0  0
    8.9646    3.3520   -1.0184 C   0  0  0  0  0  0  0  0  0  0  0  0
    9.5480    2.0860   -1.1368 C   0  0  0  0  0  0  0  0  0  0  0  0
    8.7952    0.9218   -0.9893 C   0  0  0  0  0  0  0  0  0  0  0  0
    9.5438   -0.5848   -1.3681 Cl  0  0  0  0  0  0  0  0  0  0  0  0
    9.6433    4.5426   -1.2995 N   0  0  0  0  0  0  0  0  0  0  0  0
   10.9250    4.5959   -1.8107 C   0  0  0  0  0  0  0  0  0  0  0  0
   11.6480    3.6607   -2.0745 O   0  0  0  0  0  0  0  0  0  0  0  0
   11.2527    5.8716   -2.1888 N   0  0  0  0  0  0  0  0  0  0  0  0
   11.9105    6.0195   -3.4745 C   0  0  0  0  0  0  0  0  0  0  0  0
   11.5131    7.3894   -4.0062 C   0  0  0  0  0  0  0  0  0  0  0  0
   11.9128    8.4285   -3.0894 O   0  0  0  0  0  0  0  0  0  0  0  0
   11.3323    8.2402   -1.7814 C   0  0  0  0  0  0  0  0  0  0  0  0
   11.6777    6.8651   -1.2123 C   0  0  0  0  0  0  0  0  0  0  0  0
    2.6612    1.9021   -0.0186 H   0  0  0  0  0  0  0  0  0  0  0  0
    4.9141    2.0241   -0.3077 H   0  0  0  0  0  0  0  0  0  0  0  0
    2.8773   -2.3901    0.2291 H   0  0  0  0  0  0  0  0  0  0  0  0
    6.3210   -2.3558   -0.5327 H   0  0  0  0  0  0  0  0  0  0  0  0
    6.3533    2.4007    0.7098 H   0  0  0  0  0  0  0  0  0  0  0  0
    7.1607    4.3871   -0.3893 H   0  0  0  0  0  0  0  0  0  0  0  0
   10.6048    1.9713   -1.3353 H   0  0  0  0  0  0  0  0  0  0  0  0
    9.1188    5.4080   -1.2988 H   0  0  0  0  0  0  0  0  0  0  0  0
   11.5859    5.2225   -4.1537 H   0  0  0  0  0  0  0  0  0  0  0  0
   12.9942    5.9315   -3.3302 H   0  0  0  0  0  0  0  0  0  0  0  0
   10.4241    7.4375   -4.1383 H   0  0  0  0  0  0  0  0  0  0  0  0
   11.9845    7.5725   -4.9742 H   0  0  0  0  0  0  0  0  0  0  0  0
   10.2440    8.3457   -1.8631 H   0  0  0  0  0  0  0  0  0  0  0  0
   11.7060    9.0325   -1.1274 H   0  0  0  0  0  0  0  0  0  0  0  0
   11.2137    6.6851   -0.2371 H   0  0  0  0  0  0  0  0  0  0  0  0
   12.7653    6.7637   -1.0864 H   0  0  0  0  0  0  0  0  0  0  0  0
  1  2  1  0  0  0  0
  2  3  2  0  0  0  0
  2  7  1  0  0  0  0
  3  4  1  0  0  0  0
  3 26  1  0  0  0  0
  4  5  2  0  0  0  0
  4 27  1  0  0  0  0
  5  6  1  0  0  0  0
  5  9  1  0  0  0  0
  6  7  2  0  0  0  0
  6  8  1  0  0  0  0
  7 28  1  0  0  0  0
  8 29  1  0  0  0  0
  9 10  1  0  0  0  0
 10 11  2  0  0  0  0
 10 15  1  0  0  0  0
 11 12  1  0  0  0  0
 11 30  1  0  0  0  0
 12 13  2  0  0  0  0
 12 31  1  0  0  0  0
 13 14  1  0  0  0  0
 13 17  1  0  0  0  0
 14 15  2  0  0  0  0
 14 32  1  0  0  0  0
 15 16  1  0  0  0  0
 17 18  1  0  0  0  0
 17 33  1  0  0  0  0
 18 19  2  0  0  0  0
 18 20  1  0  0  0  0
 20 21  1  0  0  0  0
 20 25  1  0  0  0  0
 21 22  1  0  0  0  0
 21 34  1  0  0  0  0
 21 35  1  0  0  0  0
 22 23  1  0  0  0  0
 22 36  1  0  0  0  0
 22 37  1  0  0  0  0
 23 24  1  0  0  0  0
 24 25  1  0  0  0  0
 24 38  1  0  0  0  0
 24 39  1  0  0  0  0
 25 40  1  0  0  0  0
 25 41  1  0  0  0  0
M  END
$$$$
