JPC
 OpenBabel04121316143D

 45 47  0  0  0  0  0  0  0  0999 V2000
    0.8621   -0.2888    0.1676 Cl  0  0  0  0  0  0  0  0  0  0  0  0
    2.5585   -0.4141   -0.0318 C   0  0  0  0  0  0  0  0  0  0  0  0
    3.2470    0.7137   -0.3807 C   0  0  0  0  0  0  0  0  0  0  0  0
    4.6058    0.6169   -0.5908 C   0  0  0  0  0  0  0  0  0  0  0  0
    5.3653   -0.5064   -0.3832 C   0  0  0  0  0  0  0  0  0  0  0  0
    4.6433   -1.6876   -0.1662 C   0  0  0  0  0  0  0  0  0  0  0  0
    3.2475   -1.6218    0.0640 C   0  0  0  0  0  0  0  0  0  0  0  0
    5.3262   -3.2748   -0.2760 Cl  0  0  0  0  0  0  0  0  0  0  0  0
    6.8399   -0.3406   -0.4757 C   0  0  0  0  0  0  0  0  0  0  0  0
    7.4613   -1.4059   -0.5924 O   0  0  0  0  0  0  0  0  0  0  0  0
    7.5897    0.9271   -0.5095 N   0  0  0  0  0  0  0  0  0  0  0  0
    7.1341    2.3740   -0.3964 C   0  0  0  0  0  0  0  0  0  0  0  0
    6.0259    2.7694    0.4956 C   0  0  0  0  0  0  0  0  0  0  0  0
    5.5241    4.0257    0.2632 C   0  0  0  0  0  0  0  0  0  0  0  0
    6.6727    4.9470   -0.5432 S   0  0  0  0  0  0  0  0  0  0  0  0
    7.7149    3.6166   -0.9015 C   0  0  0  0  0  0  0  0  0  0  0  0
    8.9406    4.2309   -1.5778 C   0  0  0  0  0  0  0  0  0  0  0  0
    9.3742    5.3667   -1.2693 O   0  0  0  0  0  0  0  0  0  0  0  0
    9.6563    3.5989   -2.5549 O   0  0  0  0  0  0  0  0  0  0  0  0
    4.2383    4.6155    0.6378 C   0  0  0  0  0  0  0  0  0  0  0  0
    3.1201    3.8454    0.9883 C   0  0  0  0  0  0  0  0  0  0  0  0
    1.8633    4.4319    1.1135 C   0  0  0  0  0  0  0  0  0  0  0  0
    1.7663    5.8177    1.1188 C   0  0  0  0  0  0  0  0  0  0  0  0
    2.9047    6.5988    0.9711 C   0  0  0  0  0  0  0  0  0  0  0  0
    4.1039    6.0023    0.6399 C   0  0  0  0  0  0  0  0  0  0  0  0
    9.0232    0.5879   -0.7144 C   0  0  0  0  0  0  0  0  0  0  0  0
    9.2472    0.1641   -2.1959 C   0  0  0  0  0  0  0  0  0  0  0  0
    9.8365    1.7790   -0.3691 C   0  0  0  0  0  0  0  0  0  0  0  0
    2.7751    1.6800   -0.5103 H   0  0  0  0  0  0  0  0  0  0  0  0
    5.0958    1.4862   -0.9563 H   0  0  0  0  0  0  0  0  0  0  0  0
    2.6941   -2.5203    0.3134 H   0  0  0  0  0  0  0  0  0  0  0  0
    5.4471    2.1140    1.1358 H   0  0  0  0  0  0  0  0  0  0  0  0
    9.6406    2.6405   -2.7353 H   0  0  0  0  0  0  0  0  0  0  0  0
    3.1952    2.7842    1.1886 H   0  0  0  0  0  0  0  0  0  0  0  0
    0.9774    3.8141    1.2458 H   0  0  0  0  0  0  0  0  0  0  0  0
    0.8078    6.2975    1.2712 H   0  0  0  0  0  0  0  0  0  0  0  0
    2.8910    7.6738    1.0985 H   0  0  0  0  0  0  0  0  0  0  0  0
    4.9496    6.6461    0.4185 H   0  0  0  0  0  0  0  0  0  0  0  0
    9.3510   -0.1935   -0.0225 H   0  0  0  0  0  0  0  0  0  0  0  0
    8.6869    0.7982   -2.8994 H   0  0  0  0  0  0  0  0  0  0  0  0
    8.9058   -0.8561   -2.3930 H   0  0  0  0  0  0  0  0  0  0  0  0
   10.3044    0.2162   -2.4698 H   0  0  0  0  0  0  0  0  0  0  0  0
    9.3662    2.2941   -1.1376 H   0  0  0  0  0  0  0  0  0  0  0  0
   10.8721    1.8660   -0.6681 H   0  0  0  0  0  0  0  0  0  0  0  0
    9.5735    2.3537    0.5268 H   0  0  0  0  0  0  0  0  0  0  0  0
  1  2  1  0  0  0  0
  2  3  2  0  0  0  0
  2  7  1  0  0  0  0
  3  4  1  0  0  0  0
  3 29  1  0  0  0  0
  4  5  2  0  0  0  0
  4 30  1  0  0  0  0
  5  6  1  0  0  0  0
  5  9  1  0  0  0  0
  6  7  2  0  0  0  0
  6  8  1  0  0  0  0
  7 31  1  0  0  0  0
  9 10  2  0  0  0  0
  9 11  1  0  0  0  0
 11 12  1  0  0  0  0
 11 26  1  0  0  0  0
 12 13  1  0  0  0  0
 12 16  2  0  0  0  0
 13 14  2  0  0  0  0
 13 32  1  0  0  0  0
 14 15  1  0  0  0  0
 14 20  1  0  0  0  0
 15 16  1  0  0  0  0
 16 17  1  0  0  0  0
 17 18  2  0  0  0  0
 17 19  1  0  0  0  0
 19 33  1  0  0  0  0
 20 21  2  0  0  0  0
 20 25  1  0  0  0  0
 21 22  1  0  0  0  0
 21 34  1  0  0  0  0
 22 23  2  0  0  0  0
 22 35  1  0  0  0  0
 23 24  1  0  0  0  0
 23 36  1  0  0  0  0
 24 25  2  0  0  0  0
 24 37  1  0  0  0  0
 25 38  1  0  0  0  0
 26 27  1  0  0  0  0
 26 28  1  0  0  0  0
 26 39  1  0  0  0  0
 27 40  1  0  0  0  0
 27 41  1  0  0  0  0
 27 42  1  0  0  0  0
 28 43  1  0  0  0  0
 28 44  1  0  0  0  0
 28 45  1  0  0  0  0
M  END
$$$$
