JPJ
 OpenBabel04121316143D

 40 42  0  0  0  0  0  0  0  0999 V2000
    0.8283   -0.3041    0.0784 Cl  0  0  0  0  0  0  0  0  0  0  0  0
    2.5390   -0.2528   -0.0313 C   0  0  0  0  0  0  0  0  0  0  0  0
    3.1507    0.9753   -0.1698 C   0  0  0  0  0  0  0  0  0  0  0  0
    4.5238    1.0238   -0.3518 C   0  0  0  0  0  0  0  0  0  0  0  0
    5.3390   -0.1175   -0.3391 C   0  0  0  0  0  0  0  0  0  0  0  0
    4.6900   -1.3550   -0.2313 C   0  0  0  0  0  0  0  0  0  0  0  0
    3.3006   -1.4179   -0.0471 C   0  0  0  0  0  0  0  0  0  0  0  0
    5.5502   -2.8460   -0.4023 Cl  0  0  0  0  0  0  0  0  0  0  0  0
    6.7226   -0.1439   -0.4184 O   0  0  0  0  0  0  0  0  0  0  0  0
    7.4685    0.9974   -0.5500 C   0  0  0  0  0  0  0  0  0  0  0  0
    7.0617    2.2466   -0.1007 C   0  0  0  0  0  0  0  0  0  0  0  0
    7.5896    3.3967   -0.6151 C   0  0  0  0  0  0  0  0  0  0  0  0
    8.8458    3.3154   -1.1893 C   0  0  0  0  0  0  0  0  0  0  0  0
    9.4689    2.0697   -1.3157 C   0  0  0  0  0  0  0  0  0  0  0  0
    8.7457    0.9100   -1.1048 C   0  0  0  0  0  0  0  0  0  0  0  0
    9.3085   -0.2978   -1.3919 O   0  0  0  0  0  0  0  0  0  0  0  0
    9.4732    4.6172   -1.5257 C   0  0  0  0  0  0  0  0  0  0  0  0
   10.9297    4.4735   -1.9186 C   0  0  0  0  0  0  0  0  0  0  0  0
   11.5255    5.7852   -2.2999 C   0  0  0  0  0  0  0  0  0  0  0  0
   11.0631    6.9857   -1.7477 C   0  0  0  0  0  0  0  0  0  0  0  0
   11.4720    8.1933   -2.2797 C   0  0  0  0  0  0  0  0  0  0  0  0
   12.4571    8.2061   -3.2601 C   0  0  0  0  0  0  0  0  0  0  0  0
   13.0350    7.0151   -3.7020 C   0  0  0  0  0  0  0  0  0  0  0  0
   12.5416    5.7997   -3.2541 C   0  0  0  0  0  0  0  0  0  0  0  0
    2.5947    1.9081   -0.1626 H   0  0  0  0  0  0  0  0  0  0  0  0
    4.8726    2.0306   -0.5209 H   0  0  0  0  0  0  0  0  0  0  0  0
    2.8120   -2.3796    0.0737 H   0  0  0  0  0  0  0  0  0  0  0  0
    6.2859    2.3610    0.6474 H   0  0  0  0  0  0  0  0  0  0  0  0
    7.0897    4.3521   -0.4777 H   0  0  0  0  0  0  0  0  0  0  0  0
   10.5215    1.9989   -1.5796 H   0  0  0  0  0  0  0  0  0  0  0  0
   10.2048   -0.1495   -1.7433 H   0  0  0  0  0  0  0  0  0  0  0  0
    9.3770    5.2444   -0.6296 H   0  0  0  0  0  0  0  0  0  0  0  0
    8.8970    5.1006   -2.3287 H   0  0  0  0  0  0  0  0  0  0  0  0
   10.9803    3.7994   -2.7858 H   0  0  0  0  0  0  0  0  0  0  0  0
   11.5128    4.0294   -1.1039 H   0  0  0  0  0  0  0  0  0  0  0  0
   10.3446    7.0025   -0.9333 H   0  0  0  0  0  0  0  0  0  0  0  0
   11.0125    9.1109   -1.9272 H   0  0  0  0  0  0  0  0  0  0  0  0
   12.7808    9.1528   -3.6759 H   0  0  0  0  0  0  0  0  0  0  0  0
   13.8521    7.0308   -4.4149 H   0  0  0  0  0  0  0  0  0  0  0  0
   12.9267    4.8673   -3.6629 H   0  0  0  0  0  0  0  0  0  0  0  0
  1  2  1  0  0  0  0
  2  3  2  0  0  0  0
  2  7  1  0  0  0  0
  3  4  1  0  0  0  0
  3 25  1  0  0  0  0
  4  5  2  0  0  0  0
  4 26  1  0  0  0  0
  5  6  1  0  0  0  0
  5  9  1  0  0  0  0
  6  7  2  0  0  0  0
  6  8  1  0  0  0  0
  7 27  1  0  0  0  0
  9 10  1  0  0  0  0
 10 11  2  0  0  0  0
 10 15  1  0  0  0  0
 11 12  1  0  0  0  0
 11 28  1  0  0  0  0
 12 13  2  0  0  0  0
 12 29  1  0  0  0  0
 13 14  1  0  0  0  0
 13 17  1  0  0  0  0
 14 15  2  0  0  0  0
 14 30  1  0  0  0  0
 15 16  1  0  0  0  0
 16 31  1  0  0  0  0
 17 18  1  0  0  0  0
 17 32  1  0  0  0  0
 17 33  1  0  0  0  0
 18 19  1  0  0  0  0
 18 34  1  0  0  0  0
 18 35  1  0  0  0  0
 19 20  2  0  0  0  0
 19 24  1  0  0  0  0
 20 21  1  0  0  0  0
 20 36  1  0  0  0  0
 21 22  2  0  0  0  0
 21 37  1  0  0  0  0
 22 23  1  0  0  0  0
 22 38  1  0  0  0  0
 23 24  2  0  0  0  0
 23 39  1  0  0  0  0
 24 40  1  0  0  0  0
M  END
$$$$
