JPS
 OpenBabel04121316143D

 38 40  0  0  1  0  0  0  0  0999 V2000
    0.7351   -0.0229   -0.1676 O   0  0  0  0  0  0  0  0  0  0  0  0
    2.1673   -0.0377   -0.2133 C   0  0  2  0  0  0  0  0  0  0  0  0
    2.4514   -0.0919   -1.2706 H   0  0  0  0  0  0  0  0  0  0  0  0
    2.6233   -1.3523    0.4388 C   0  0  0  0  0  0  0  0  0  0  0  0
    3.5010   -1.3242    1.6977 C   0  0  2  0  0  0  0  0  0  0  0  0
    4.7011   -2.0285    1.3749 O   0  0  0  0  0  0  0  0  0  0  0  0
    2.6405   -2.0096    2.8134 C   0  0  0  0  0  0  0  0  0  0  0  0
    2.7650   -3.1844    3.1644 O   0  0  0  0  0  0  0  0  0  0  0  0
    1.6439   -1.2371    3.3259 O   0  0  0  0  0  0  0  0  0  0  0  0
    3.8649    0.0418    2.1547 C   0  0  0  0  0  0  0  0  0  0  0  0
    3.4416    1.1957    1.5463 C   0  0  0  0  0  0  0  0  0  0  0  0
    2.6565    1.3132    0.3153 C   0  0  1  0  0  0  0  0  0  0  0  0
    1.8142    1.9930    0.4971 H   0  0  0  0  0  0  0  0  0  0  0  0
    3.5272    1.9067   -0.6464 O   0  0  0  0  0  0  0  0  0  0  0  0
    3.9112    2.6031    2.3465 S   0  0  0  0  0  0  0  0  0  0  0  0
    4.7582    1.6811    3.4812 C   0  0  0  0  0  0  0  0  0  0  0  0
    4.6675    0.3274    3.2831 C   0  0  0  0  0  0  0  0  0  0  0  0
    5.4943    2.4317    4.4934 C   0  0  0  0  0  0  0  0  0  0  0  0
    6.2110    1.5229    5.4637 C   0  0  0  0  0  0  0  0  0  0  0  0
    6.9543    2.3307    6.4623 C   0  0  0  0  0  0  0  0  0  0  0  0
    8.3627    2.7323    6.1285 C   0  0  0  0  0  0  0  0  0  0  0  0
    7.2985    3.7866    6.2187 C   0  0  0  0  0  0  0  0  0  0  0  0
    0.4170   -0.8567   -0.5556 H   0  0  0  0  0  0  0  0  0  0  0  0
    3.1379   -1.9335   -0.3364 H   0  0  0  0  0  0  0  0  0  0  0  0
    1.7275   -1.9467    0.6610 H   0  0  0  0  0  0  0  0  0  0  0  0
    5.1790   -1.5111    0.7040 H   0  0  0  0  0  0  0  0  0  0  0  0
    1.6064   -0.3125    3.0044 H   0  0  0  0  0  0  0  0  0  0  0  0
    4.3386    1.3726   -0.6706 H   0  0  0  0  0  0  0  0  0  0  0  0
    5.1375   -0.4239    3.9142 H   0  0  0  0  0  0  0  0  0  0  0  0
    4.8081    3.0966    5.0342 H   0  0  0  0  0  0  0  0  0  0  0  0
    6.2150    3.0525    3.9466 H   0  0  0  0  0  0  0  0  0  0  0  0
    6.8998    0.8556    4.9262 H   0  0  0  0  0  0  0  0  0  0  0  0
    5.4839    0.8716    5.9675 H   0  0  0  0  0  0  0  0  0  0  0  0
    6.7073    2.0305    7.4725 H   0  0  0  0  0  0  0  0  0  0  0  0
    8.7381    2.4727    5.1418 H   0  0  0  0  0  0  0  0  0  0  0  0
    9.1014    2.6653    6.9133 H   0  0  0  0  0  0  0  0  0  0  0  0
    7.0250    4.2921    5.2983 H   0  0  0  0  0  0  0  0  0  0  0  0
    7.2416    4.4523    7.0684 H   0  0  0  0  0  0  0  0  0  0  0  0
  1  2  1  0  0  0  0
  1 23  1  0  0  0  0
  2  3  1  6  0  0  0
  2  4  1  0  0  0  0
  2 12  1  0  0  0  0
  4  5  1  0  0  0  0
  4 24  1  0  0  0  0
  4 25  1  0  0  0  0
  5 10  1  0  0  0  0
  5  7  1  1  0  0  0
  5  6  1  0  0  0  0
  6 26  1  0  0  0  0
  7  8  2  0  0  0  0
  7  9  1  0  0  0  0
  9 27  1  0  0  0  0
 10 11  2  0  0  0  0
 10 17  1  0  0  0  0
 11 12  1  0  0  0  0
 11 15  1  0  0  0  0
 12 14  1  0  0  0  0
 12 13  1  1  0  0  0
 14 28  1  0  0  0  0
 15 16  1  0  0  0  0
 16 17  2  0  0  0  0
 16 18  1  0  0  0  0
 17 29  1  0  0  0  0
 18 19  1  0  0  0  0
 18 30  1  0  0  0  0
 18 31  1  0  0  0  0
 19 20  1  0  0  0  0
 19 32  1  0  0  0  0
 19 33  1  0  0  0  0
 20 21  1  0  0  0  0
 20 22  1  0  0  0  0
 20 34  1  0  0  0  0
 21 22  1  0  0  0  0
 21 35  1  0  0  0  0
 21 36  1  0  0  0  0
 22 37  1  0  0  0  0
 22 38  1  0  0  0  0
M  END
$$$$
