JPZ
 OpenBabel04121316143D

 17 18  0  0  0  0  0  0  0  0999 V2000
    0.8832   -0.0385    0.0910 O   0  0  0  0  0  0  0  0  0  0  0  0
    2.1152   -0.0757    0.0994 C   0  0  0  0  0  0  0  0  0  0  0  0
    2.8179   -1.2574   -0.0053 N   0  0  0  0  0  0  0  0  0  0  0  0
    4.1065   -1.1919    0.0201 C   0  0  0  0  0  0  0  0  0  0  0  0
    4.8806   -0.0789    0.1457 N   0  0  0  0  0  0  0  0  0  0  0  0
    5.8856   -0.1256    0.0496 H   0  0  0  0  0  0  0  0  0  0  0  0
    4.2515    1.1648    0.1451 C   0  0  0  0  0  0  0  0  0  0  0  0
    2.8523    1.2138    0.1721 C   0  0  0  0  0  0  0  0  0  0  0  0
    2.1778    2.4359    0.2021 C   0  0  0  0  0  0  0  0  0  0  0  0
    2.9012    3.6111    0.0216 C   0  0  0  0  0  0  0  0  0  0  0  0
    4.2904    3.5609   -0.1014 C   0  0  0  0  0  0  0  0  0  0  0  0
    4.9702    2.3569    0.0903 C   0  0  0  0  0  0  0  0  0  0  0  0
    4.6996   -2.1164   -0.0716 H   0  0  0  0  0  0  0  0  0  0  0  0
    1.0967    2.4650    0.3152 H   0  0  0  0  0  0  0  0  0  0  0  0
    2.3816    4.5642   -0.0335 H   0  0  0  0  0  0  0  0  0  0  0  0
    4.8451    4.4615   -0.3534 H   0  0  0  0  0  0  0  0  0  0  0  0
    6.0543    2.3618    0.1579 H   0  0  0  0  0  0  0  0  0  0  0  0
  1  2  2  0  0  0  0
  2  3  1  0  0  0  0
  2  8  1  0  0  0  0
  3  4  2  0  0  0  0
  4  5  1  0  0  0  0
  4 13  1  0  0  0  0
  5  6  1  0  0  0  0
  5  7  1  0  0  0  0
  7  8  2  0  0  0  0
  7 12  1  0  0  0  0
  8  9  1  0  0  0  0
  9 10  2  0  0  0  0
  9 14  1  0  0  0  0
 10 11  1  0  0  0  0
 10 15  1  0  0  0  0
 11 12  2  0  0  0  0
 11 16  1  0  0  0  0
 12 17  1  0  0  0  0
M  END
$$$$
