JRS
 OpenBabel04121316143D

 56 58  0  0  1  0  0  0  0  0999 V2000
    0.9937    0.0016    0.0825 F   0  0  0  0  0  0  0  0  0  0  0  0
    2.3301   -0.0196    0.0006 C   0  0  0  0  0  0  0  0  0  0  0  0
    3.0445    1.1621   -0.0842 C   0  0  0  0  0  0  0  0  0  0  0  0
    4.4354    1.1187   -0.1826 C   0  0  0  0  0  0  0  0  0  0  0  0
    5.0922   -0.1076   -0.3033 C   0  0  0  0  0  0  0  0  0  0  0  0
    4.3681   -1.3031   -0.2418 C   0  0  0  0  0  0  0  0  0  0  0  0
    2.9823   -1.2389   -0.0189 C   0  0  0  0  0  0  0  0  0  0  0  0
    5.0885   -2.6105   -0.4765 C   0  0  0  0  0  0  0  0  0  0  0  0
    4.1422   -3.8017   -0.3696 C   0  0  0  0  0  0  0  0  0  0  0  0
    4.8091   -5.0649   -0.6060 N   0  0  0  0  0  0  0  0  0  0  0  0
    3.8285   -6.1393   -0.4150 C   0  0  0  0  0  0  0  0  0  0  0  0
    4.5290   -7.4495   -0.6907 C   0  0  0  0  0  0  0  0  0  0  0  0
    3.6629   -8.5619   -0.4668 O   0  0  0  0  0  0  0  0  0  0  0  0
    4.3945   -9.7570   -0.7501 C   0  0  1  0  0  0  0  0  0  0  0  0
    4.9753   -9.6418   -1.6764 H   0  0  0  0  0  0  0  0  0  0  0  0
    5.3091  -10.0504    0.4238 C   0  0  0  0  0  0  0  0  0  0  0  0
    5.6296  -11.4574    0.2756 N   0  0  0  0  0  0  0  0  0  0  0  0
    4.3851  -12.0964   -0.1572 C   0  0  0  0  0  0  0  0  0  0  0  0
    3.5318  -11.0190   -0.8538 C   0  0  2  0  0  0  0  0  0  0  0  0
    2.5798  -10.8938   -0.3198 H   0  0  0  0  0  0  0  0  0  0  0  0
    3.2463  -11.4094   -2.3159 C   0  0  0  0  0  0  0  0  0  0  0  0
    2.3954  -10.4017   -3.0526 C   0  0  0  0  0  0  0  0  0  0  0  0
    1.3063  -10.8268   -3.8012 C   0  0  0  0  0  0  0  0  0  0  0  0
    0.5547   -9.8652   -4.4682 C   0  0  0  0  0  0  0  0  0  0  0  0
   -0.6050  -10.2461   -5.3280 C   0  0  0  0  0  0  0  0  0  0  0  0
    0.9032   -8.5218   -4.3568 C   0  0  0  0  0  0  0  0  0  0  0  0
    2.0158   -8.1679   -3.6122 C   0  0  0  0  0  0  0  0  0  0  0  0
    2.7668   -9.0995   -3.0082 N   0  0  0  0  0  0  0  0  0  0  0  0
    2.4611   -6.8634   -3.6309 N   0  0  0  0  0  0  0  0  0  0  0  0
    2.5120    2.1051   -0.0712 H   0  0  0  0  0  0  0  0  0  0  0  0
    5.0081    2.0410   -0.1881 H   0  0  0  0  0  0  0  0  0  0  0  0
    6.1693   -0.1276   -0.4610 H   0  0  0  0  0  0  0  0  0  0  0  0
    2.3653   -2.1217    0.1133 H   0  0  0  0  0  0  0  0  0  0  0  0
    5.9079   -2.7139    0.2459 H   0  0  0  0  0  0  0  0  0  0  0  0
    5.5313   -2.5901   -1.4821 H   0  0  0  0  0  0  0  0  0  0  0  0
    3.3379   -3.6928   -1.1089 H   0  0  0  0  0  0  0  0  0  0  0  0
    3.6990   -3.8175    0.6340 H   0  0  0  0  0  0  0  0  0  0  0  0
    5.5705   -5.1789    0.0638 H   0  0  0  0  0  0  0  0  0  0  0  0
    2.9689   -6.0083   -1.0796 H   0  0  0  0  0  0  0  0  0  0  0  0
    3.4277   -6.1386    0.6050 H   0  0  0  0  0  0  0  0  0  0  0  0
    5.3833   -7.5149   -0.0104 H   0  0  0  0  0  0  0  0  0  0  0  0
    4.9074   -7.4659   -1.7211 H   0  0  0  0  0  0  0  0  0  0  0  0
    4.7904   -9.8413    1.3684 H   0  0  0  0  0  0  0  0  0  0  0  0
    6.2089   -9.4306    0.3924 H   0  0  0  0  0  0  0  0  0  0  0  0
    5.9509  -11.8318    1.1652 H   0  0  0  0  0  0  0  0  0  0  0  0
    3.8516  -12.4913    0.7142 H   0  0  0  0  0  0  0  0  0  0  0  0
    4.6277  -12.9394   -0.8115 H   0  0  0  0  0  0  0  0  0  0  0  0
    2.7477  -12.3892   -2.3224 H   0  0  0  0  0  0  0  0  0  0  0  0
    4.1835  -11.5436   -2.8721 H   0  0  0  0  0  0  0  0  0  0  0  0
    1.0574  -11.8790   -3.8684 H   0  0  0  0  0  0  0  0  0  0  0  0
   -0.7532  -11.3292   -5.3370 H   0  0  0  0  0  0  0  0  0  0  0  0
   -0.4178   -9.9168   -6.3548 H   0  0  0  0  0  0  0  0  0  0  0  0
   -1.5148   -9.7725   -4.9494 H   0  0  0  0  0  0  0  0  0  0  0  0
    0.3334   -7.7523   -4.8590 H   0  0  0  0  0  0  0  0  0  0  0  0
    1.7862   -6.1230   -3.7457 H   0  0  0  0  0  0  0  0  0  0  0  0
    3.2082   -6.6957   -2.9649 H   0  0  0  0  0  0  0  0  0  0  0  0
  1  2  1  0  0  0  0
  2  3  2  0  0  0  0
  2  7  1  0  0  0  0
  3  4  1  0  0  0  0
  3 30  1  0  0  0  0
  4  5  2  0  0  0  0
  4 31  1  0  0  0  0
  5  6  1  0  0  0  0
  5 32  1  0  0  0  0
  6  7  2  0  0  0  0
  6  8  1  0  0  0  0
  7 33  1  0  0  0  0
  8  9  1  0  0  0  0
  8 34  1  0  0  0  0
  8 35  1  0  0  0  0
  9 10  1  0  0  0  0
  9 36  1  0  0  0  0
  9 37  1  0  0  0  0
 10 11  1  0  0  0  0
 10 38  1  0  0  0  0
 11 12  1  0  0  0  0
 11 39  1  0  0  0  0
 11 40  1  0  0  0  0
 12 13  1  0  0  0  0
 12 41  1  0  0  0  0
 12 42  1  0  0  0  0
 13 14  1  0  0  0  0
 14 15  1  6  0  0  0
 14 16  1  0  0  0  0
 14 19  1  0  0  0  0
 16 17  1  0  0  0  0
 16 43  1  0  0  0  0
 16 44  1  0  0  0  0
 17 18  1  0  0  0  0
 17 45  1  0  0  0  0
 18 19  1  0  0  0  0
 18 46  1  0  0  0  0
 18 47  1  0  0  0  0
 19 20  1  1  0  0  0
 19 21  1  0  0  0  0
 21 22  1  0  0  0  0
 21 48  1  0  0  0  0
 21 49  1  0  0  0  0
 22 23  2  0  0  0  0
 22 28  1  0  0  0  0
 23 24  1  0  0  0  0
 23 50  1  0  0  0  0
 24 25  1  0  0  0  0
 24 26  2  0  0  0  0
 25 51  1  0  0  0  0
 25 52  1  0  0  0  0
 25 53  1  0  0  0  0
 26 27  1  0  0  0  0
 26 54  1  0  0  0  0
 27 28  2  0  0  0  0
 27 29  1  0  0  0  0
 29 55  1  0  0  0  0
 29 56  1  0  0  0  0
M  END
$$$$
