JS4
 OpenBabel04121316143D

106109  0  0  1  0  0  0  0  0999 V2000
    8.9956   18.0083   -2.1061 N   0  0  0  0  0  0  0  0  0  0  0  0
    7.9312   17.1176   -1.6680 C   0  0  0  0  0  0  0  0  0  0  0  0
    8.3873   15.6739   -1.7842 C   0  0  0  0  0  0  0  0  0  0  0  0
    7.2794   14.7474   -1.3078 C   0  0  0  0  0  0  0  0  0  0  0  0
    7.7792   13.3904   -1.4245 N   0  0  0  0  0  0  0  0  0  0  0  0
    6.7966   12.4379   -0.9384 C   0  0  0  0  0  0  0  0  0  0  0  0
    7.4346   11.0593   -1.0396 C   0  0  0  0  0  0  0  0  0  0  0  0
    6.5772   10.1368   -0.3973 O   0  0  0  0  0  0  0  0  0  0  0  0
    6.8819    8.7702   -0.4709 C   0  0  1  0  0  0  0  0  0  0  0  0
    6.3115    8.2248   -1.2180 H   0  0  0  0  0  0  0  0  0  0  0  0
    8.2663    8.3247   -0.7416 C   0  0  1  0  0  0  0  0  0  0  0  0
    9.0160    8.9254   -0.2134 H   0  0  0  0  0  0  0  0  0  0  0  0
    8.3400    6.9847   -0.2713 O   0  0  0  0  0  0  0  0  0  0  0  0
    7.3419    6.8196    0.7871 C   0  0  1  0  0  0  0  0  0  0  0  0
    7.8472    6.9433    1.7495 H   0  0  0  0  0  0  0  0  0  0  0  0
    6.3125    7.9981    0.6395 C   0  0  1  0  0  0  0  0  0  0  0  0
    5.3332    7.6308    0.3111 H   0  0  0  0  0  0  0  0  0  0  0  0
    6.1303    8.8040    1.8251 O   0  0  0  0  0  0  0  0  0  0  0  0
    4.9014    9.6084    1.8785 C   0  0  1  0  0  0  0  0  0  0  0  0
    4.7146   10.1435    0.9386 H   0  0  0  0  0  0  0  0  0  0  0  0
    3.7417    8.8013    2.1493 O   0  0  0  0  0  0  0  0  0  0  0  0
    3.6297    8.1807    3.4522 C   0  0  1  0  0  0  0  0  0  0  0  0
    2.6152    7.7642    3.4831 H   0  0  0  0  0  0  0  0  0  0  0  0
    4.5597    6.9899    3.6828 C   0  0  0  0  0  0  0  0  0  0  0  0
    4.9303    6.4781    2.3864 N   0  0  0  0  0  0  0  0  0  0  0  0
    3.8810    9.1456    4.6013 C   0  0  2  0  0  0  0  0  0  0  0  0
    3.0266    9.8230    4.6975 H   0  0  0  0  0  0  0  0  0  0  0  0
    5.1667    9.9487    4.3277 C   0  0  1  0  0  0  0  0  0  0  0  0
    6.0458    9.2940    4.3118 H   0  0  0  0  0  0  0  0  0  0  0  0
    5.0799   10.6865    2.9804 C   0  0  1  0  0  0  0  0  0  0  0  0
    4.2197   11.3699    3.0019 H   0  0  0  0  0  0  0  0  0  0  0  0
    6.2989   11.4945    2.7410 N   0  0  0  0  0  0  0  0  0  0  0  0
    5.4010   10.8406    5.4177 O   0  0  0  0  0  0  0  0  0  0  0  0
    3.9930    8.4607    5.8620 O   0  0  0  0  0  0  0  0  0  0  0  0
    6.8050    5.3472    0.6580 C   0  0  0  0  0  0  0  0  0  0  0  0
    6.3712    4.6754    1.8427 O   0  0  0  0  0  0  0  0  0  0  0  0
    8.4348    8.5269   -2.1652 O   0  0  0  0  0  0  0  0  0  0  0  0
    7.9958    7.4489   -3.0364 C   0  0  2  0  0  0  0  0  0  0  0  0
    7.5802    6.6327   -2.4404 H   0  0  0  0  0  0  0  0  0  0  0  0
    9.3469    7.0993   -3.6547 C   0  0  1  0  0  0  0  0  0  0  0  0
    9.7338    7.9806   -4.1893 H   0  0  0  0  0  0  0  0  0  0  0  0
   10.3165    6.8151   -2.6311 O   0  0  0  0  0  0  0  0  0  0  0  0
    9.2451    5.9065   -4.5851 C   0  0  2  0  0  0  0  0  0  0  0  0
    8.8823    5.0411   -4.0174 H   0  0  0  0  0  0  0  0  0  0  0  0
   10.5923    5.5917   -5.0808 N   0  0  0  0  0  0  0  0  0  0  0  0
    8.2948    6.2207   -5.7321 C   0  0  0  0  0  0  0  0  0  0  0  0
    6.8932    6.5709   -5.2101 C   0  0  1  0  0  0  0  0  0  0  0  0
    6.4650    5.7056   -4.6899 H   0  0  0  0  0  0  0  0  0  0  0  0
    6.9431    7.7636   -4.2051 C   0  0  1  0  0  0  0  0  0  0  0  0
    7.2841    8.6418   -4.7709 H   0  0  0  0  0  0  0  0  0  0  0  0
    5.5537    8.0135   -3.7504 O   0  0  0  0  0  0  0  0  0  0  0  0
    5.5051    9.2811   -3.1214 C   0  0  1  0  0  0  0  0  0  0  0  0
    6.3332    9.2237   -2.4951 H   0  0  0  0  0  0  0  0  0  0  0  0
    6.0092   10.3074   -3.9320 O   0  0  0  0  0  0  0  0  0  0  0  0
    5.0095   10.8243   -4.7543 C   0  0  2  0  0  0  0  0  0  0  0  0
    4.5040   10.0062   -5.2809 H   0  0  0  0  0  0  0  0  0  0  0  0
    5.7741   11.6523   -5.7700 C   0  0  0  0  0  0  0  0  0  0  0  0
    4.9114   12.2581   -6.7070 O   0  0  0  0  0  0  0  0  0  0  0  0
    4.0082   11.5751   -3.8703 C   0  0  2  0  0  0  0  0  0  0  0  0
    4.5321   12.3485   -3.2918 H   0  0  0  0  0  0  0  0  0  0  0  0
    3.3133   10.5872   -2.9093 C   0  0  1  0  0  0  0  0  0  0  0  0
    2.6142    9.9394   -3.4428 H   0  0  0  0  0  0  0  0  0  0  0  0
    4.3451    9.7498   -2.1791 C   0  0  1  0  0  0  0  0  0  0  0  0
    4.7962   10.5222   -1.5554 H   0  0  0  0  0  0  0  0  0  0  0  0
    3.7707    8.8212   -1.1828 N   0  0  0  0  0  0  0  0  0  0  0  0
    2.5333   11.3145   -1.9391 O   0  0  0  0  0  0  0  0  0  0  0  0
    2.9775   12.2015   -4.6207 O   0  0  0  0  0  0  0  0  0  0  0  0
    6.0216    6.8509   -6.3690 N   0  0  0  0  0  0  0  0  0  0  0  0
    8.6631   18.9698   -2.0697 H   0  0  0  0  0  0  0  0  0  0  0  0
    9.2157   17.8153   -3.0829 H   0  0  0  0  0  0  0  0  0  0  0  0
    7.0367   17.2789   -2.2794 H   0  0  0  0  0  0  0  0  0  0  0  0
    7.6725   17.3438   -0.6281 H   0  0  0  0  0  0  0  0  0  0  0  0
    9.2925   15.5142   -1.1821 H   0  0  0  0  0  0  0  0  0  0  0  0
    8.6483   15.4365   -2.8247 H   0  0  0  0  0  0  0  0  0  0  0  0
    6.3838   14.8783   -1.9264 H   0  0  0  0  0  0  0  0  0  0  0  0
    7.0183   14.9712   -0.2667 H   0  0  0  0  0  0  0  0  0  0  0  0
    8.6280   13.2971   -0.8658 H   0  0  0  0  0  0  0  0  0  0  0  0
    5.8791   12.4882   -1.5347 H   0  0  0  0  0  0  0  0  0  0  0  0
    6.4999   12.6379    0.0970 H   0  0  0  0  0  0  0  0  0  0  0  0
    8.3930   11.0518   -0.5187 H   0  0  0  0  0  0  0  0  0  0  0  0
    7.6044   10.8263   -2.0941 H   0  0  0  0  0  0  0  0  0  0  0  0
    5.5109    7.2958    4.1221 H   0  0  0  0  0  0  0  0  0  0  0  0
    4.1578    6.1829    4.2703 H   0  0  0  0  0  0  0  0  0  0  0  0
    5.5034    7.3068    2.1644 H   0  0  0  0  0  0  0  0  0  0  0  0
    4.2005    6.5282    1.7173 H   0  0  0  0  0  0  0  0  0  0  0  0
    7.0596   10.8334    2.5643 H   0  0  0  0  0  0  0  0  0  0  0  0
    6.5301   11.9660    3.6173 H   0  0  0  0  0  0  0  0  0  0  0  0
    5.3531   10.2728    6.2127 H   0  0  0  0  0  0  0  0  0  0  0  0
    4.6933    7.7771    5.8225 H   0  0  0  0  0  0  0  0  0  0  0  0
    7.6256    4.7055    0.3466 H   0  0  0  0  0  0  0  0  0  0  0  0
    6.0187    5.2774   -0.1047 H   0  0  0  0  0  0  0  0  0  0  0  0
    5.8804    5.3293    2.3866 H   0  0  0  0  0  0  0  0  0  0  0  0
   10.2525    7.5654   -2.0093 H   0  0  0  0  0  0  0  0  0  0  0  0
   11.1785    5.5315   -4.2351 H   0  0  0  0  0  0  0  0  0  0  0  0
   10.9685    6.4107   -5.5603 H   0  0  0  0  0  0  0  0  0  0  0  0
    8.2442    5.3592   -6.4076 H   0  0  0  0  0  0  0  0  0  0  0  0
    8.6889    7.0648   -6.3176 H   0  0  0  0  0  0  0  0  0  0  0  0
    6.4673   10.9939   -6.3130 H   0  0  0  0  0  0  0  0  0  0  0  0
    6.4028   12.4046   -5.2775 H   0  0  0  0  0  0  0  0  0  0  0  0
    4.2156   11.6142   -6.9144 H   0  0  0  0  0  0  0  0  0  0  0  0
    3.1610    8.1355   -1.6114 H   0  0  0  0  0  0  0  0  0  0  0  0
    3.1693    9.3892   -0.5684 H   0  0  0  0  0  0  0  0  0  0  0  0
    2.0522   12.0041   -2.4355 H   0  0  0  0  0  0  0  0  0  0  0  0
    2.5636   11.5076   -5.1592 H   0  0  0  0  0  0  0  0  0  0  0  0
    6.0310    6.0438   -6.9951 H   0  0  0  0  0  0  0  0  0  0  0  0
    6.4015    7.6258   -6.9115 H   0  0  0  0  0  0  0  0  0  0  0  0
  1  2  1  0  0  0  0
  1 69  1  0  0  0  0
  1 70  1  0  0  0  0
  2  3  1  0  0  0  0
  2 71  1  0  0  0  0
  2 72  1  0  0  0  0
  3  4  1  0  0  0  0
  3 73  1  0  0  0  0
  3 74  1  0  0  0  0
  4  5  1  0  0  0  0
  4 75  1  0  0  0  0
  4 76  1  0  0  0  0
  5  6  1  0  0  0  0
  5 77  1  0  0  0  0
  6  7  1  0  0  0  0
  6 78  1  0  0  0  0
  6 79  1  0  0  0  0
  7  8  1  0  0  0  0
  7 80  1  0  0  0  0
  7 81  1  0  0  0  0
  8  9  1  0  0  0  0
  9 10  1  6  0  0  0
  9 11  1  0  0  0  0
  9 16  1  0  0  0  0
 11 13  1  0  0  0  0
 11 37  1  0  0  0  0
 11 12  1  1  0  0  0
 13 14  1  0  0  0  0
 14 15  1  1  0  0  0
 14 16  1  0  0  0  0
 14 35  1  0  0  0  0
 16 18  1  0  0  0  0
 16 17  1  6  0  0  0
 18 19  1  0  0  0  0
 19 20  1  6  0  0  0
 19 21  1  0  0  0  0
 19 30  1  0  0  0  0
 21 22  1  0  0  0  0
 22 26  1  0  0  0  0
 22 24  1  0  0  0  0
 22 23  1  1  0  0  0
 24 25  1  0  0  0  0
 24 82  1  0  0  0  0
 24 83  1  0  0  0  0
 25 84  1  0  0  0  0
 25 85  1  0  0  0  0
 26 28  1  0  0  0  0
 26 34  1  0  0  0  0
 26 27  1  1  0  0  0
 28 29  1  6  0  0  0
 28 30  1  0  0  0  0
 28 33  1  0  0  0  0
 30 32  1  0  0  0  0
 30 31  1  1  0  0  0
 32 86  1  0  0  0  0
 32 87  1  0  0  0  0
 33 88  1  0  0  0  0
 34 89  1  0  0  0  0
 35 36  1  0  0  0  0
 35 90  1  0  0  0  0
 35 91  1  0  0  0  0
 36 92  1  0  0  0  0
 38 40  1  0  0  0  0
 38 49  1  0  0  0  0
 38 39  1  1  0  0  0
 38 37  1  0  0  0  0
 40 41  1  6  0  0  0
 40 42  1  0  0  0  0
 40 43  1  0  0  0  0
 42 93  1  0  0  0  0
 43 44  1  1  0  0  0
 43 45  1  0  0  0  0
 43 46  1  0  0  0  0
 45 94  1  0  0  0  0
 45 95  1  0  0  0  0
 46 47  1  0  0  0  0
 46 96  1  0  0  0  0
 46 97  1  0  0  0  0
 47 48  1  1  0  0  0
 47 49  1  0  0  0  0
 47 68  1  0  0  0  0
 49 51  1  0  0  0  0
 49 50  1  6  0  0  0
 51 52  1  0  0  0  0
 52 53  1  1  0  0  0
 52 54  1  0  0  0  0
 52 63  1  0  0  0  0
 54 55  1  0  0  0  0
 55 56  1  6  0  0  0
 55 57  1  0  0  0  0
 55 59  1  0  0  0  0
 57 58  1  0  0  0  0
 57 98  1  0  0  0  0
 57 99  1  0  0  0  0
 58100  1  0  0  0  0
 59 61  1  0  0  0  0
 59 67  1  0  0  0  0
 59 60  1  1  0  0  0
 61 62  1  6  0  0  0
 61 63  1  0  0  0  0
 61 66  1  0  0  0  0
 63 65  1  0  0  0  0
 63 64  1  1  0  0  0
 65101  1  0  0  0  0
 65102  1  0  0  0  0
 66103  1  0  0  0  0
 67104  1  0  0  0  0
 68105  1  0  0  0  0
 68106  1  0  0  0  0
M  END
$$$$
