JTH
 OpenBabel04121316143D

 25 25  0  0  0  0  0  0  0  0999 V2000
    0.9569   -0.0053   -0.0563 C   0  0  0  0  0  0  0  0  0  0  0  0
    2.4843    0.0406    0.0285 C   0  0  0  0  0  0  0  0  0  0  0  0
    2.8995   -0.2086    1.5153 C   0  0  0  0  0  0  0  0  0  0  0  0
    3.8065    0.4688    2.2786 C   0  0  0  0  0  0  0  0  0  0  0  0
    4.0204   -0.0998    3.8100 C   0  0  0  0  0  0  0  0  0  0  0  0
    3.3313    0.2056    4.9596 C   0  0  0  0  0  0  0  0  0  0  0  0
    2.1264    0.9545    4.7260 C   0  0  0  0  0  0  0  0  0  0  0  0
    1.7496    1.9099    5.4860 O   0  0  0  0  0  0  0  0  0  0  0  0
    1.4512    0.7036    3.3878 C   0  0  0  0  0  0  0  0  0  0  0  0
    1.8136   -0.3876    2.5599 C   0  0  0  0  0  0  0  0  0  0  0  0
    1.0351    1.9582    2.9093 O   0  0  0  0  0  0  0  0  0  0  0  0
    3.4222   -0.3809    6.2113 O   0  0  0  0  0  0  0  0  0  0  0  0
    3.0558   -0.9144   -1.0672 C   0  0  0  0  0  0  0  0  0  0  0  0
    0.5240    0.6483    0.7037 H   0  0  0  0  0  0  0  0  0  0  0  0
    0.5972   -1.0253    0.1330 H   0  0  0  0  0  0  0  0  0  0  0  0
    0.5672    0.3333   -1.0171 H   0  0  0  0  0  0  0  0  0  0  0  0
    2.8324    1.0398   -0.2675 H   0  0  0  0  0  0  0  0  0  0  0  0
    3.4041    1.5059    2.1121 H   0  0  0  0  0  0  0  0  0  0  0  0
    4.3732   -1.1363    3.8513 H   0  0  0  0  0  0  0  0  0  0  0  0
    2.2544   -1.3631    2.8764 H   0  0  0  0  0  0  0  0  0  0  0  0
    1.0538    2.5585    3.7097 H   0  0  0  0  0  0  0  0  0  0  0  0
    4.0635   -1.0989    6.2404 H   0  0  0  0  0  0  0  0  0  0  0  0
    2.7154   -1.9484   -0.9431 H   0  0  0  0  0  0  0  0  0  0  0  0
    4.1512   -0.9192   -1.0862 H   0  0  0  0  0  0  0  0  0  0  0  0
    2.7341   -0.6020   -2.0786 H   0  0  0  0  0  0  0  0  0  0  0  0
  1  2  1  0  0  0  0
  1 14  1  0  0  0  0
  1 15  1  0  0  0  0
  1 16  1  0  0  0  0
  2  3  1  0  0  0  0
  2 13  1  0  0  0  0
  2 17  1  0  0  0  0
  3  4  2  0  0  0  0
  3 10  1  0  0  0  0
  4  5  1  0  0  0  0
  4 18  1  0  0  0  0
  5  6  2  0  0  0  0
  5 19  1  0  0  0  0
  6  7  1  0  0  0  0
  6 12  1  0  0  0  0
  7  8  2  0  0  0  0
  7  9  1  0  0  0  0
  9 10  2  0  0  0  0
  9 11  1  0  0  0  0
 10 20  1  0  0  0  0
 11 21  1  0  0  0  0
 12 22  1  0  0  0  0
 13 23  1  0  0  0  0
 13 24  1  0  0  0  0
 13 25  1  0  0  0  0
M  END
$$$$
