JTP
 OpenBabel04121316143D

 63 67  0  0  0  0  0  0  0  0999 V2000
    0.8929   -0.0358    0.0261 O   0  0  0  0  0  0  0  0  0  0  0  0
    2.2480    0.0342    0.0152 C   0  0  0  0  0  0  0  0  0  0  0  0
    2.8069    1.1253    0.0138 O   0  0  0  0  0  0  0  0  0  0  0  0
    2.9715   -1.3525   -0.1136 C   0  0  0  0  0  0  0  0  0  0  0  0
    2.5923   -2.3841    0.9929 N   0  0  0  0  0  0  0  0  0  0  0  0
    2.9773   -2.1523    2.3318 C   0  0  0  0  0  0  0  0  0  0  0  0
    3.2869   -0.9762    2.5241 O   0  0  0  0  0  0  0  0  0  0  0  0
    2.9284   -3.1503    3.7341 C   0  0  0  0  0  0  0  0  0  0  0  0
    2.4256   -2.3474    4.4850 C   0  0  0  0  0  0  0  0  0  0  0  0
    1.5031   -2.6449    5.5524 C   0  0  0  0  0  0  0  0  0  0  0  0
    2.3942   -2.6173    6.5803 C   0  0  0  0  0  0  0  0  0  0  0  0
    2.9081   -4.0052    6.6084 C   0  0  0  0  0  0  0  0  0  0  0  0
    3.0399   -4.2014    4.7864 C   0  0  0  0  0  0  0  0  0  0  0  0
    3.2495   -3.3627    8.1988 N   0  0  0  0  0  0  0  0  0  0  0  0
    2.9421   -3.6207    9.7393 C   0  0  0  0  0  0  0  0  0  0  0  0
    4.2982   -3.5843   10.6771 C   0  0  0  0  0  0  0  0  0  0  0  0
    5.2327   -2.5085   10.9508 O   0  0  0  0  0  0  0  0  0  0  0  0
    4.8852   -1.2730   10.5654 C   0  0  0  0  0  0  0  0  0  0  0  0
    4.1671   -1.1400    9.4310 C   0  0  0  0  0  0  0  0  0  0  0  0
    3.7765   -2.0493    8.2083 C   0  0  0  0  0  0  0  0  0  0  0  0
    3.4570   -1.6792    6.9345 C   0  0  0  0  0  0  0  0  0  0  0  0
    3.8763   -0.4565    6.1379 C   0  0  0  0  0  0  0  0  0  0  0  0
    2.7571    0.1913    5.2773 C   0  0  0  0  0  0  0  0  0  0  0  0
    1.6568    0.8306    6.0486 C   0  0  0  0  0  0  0  0  0  0  0  0
    2.2308    2.0796    6.6005 C   0  0  0  0  0  0  0  0  0  0  0  0
    3.4006    1.7453    7.4309 C   0  0  0  0  0  0  0  0  0  0  0  0
    4.4961    0.7047    6.8727 C   0  0  0  0  0  0  0  0  0  0  0  0
    3.7545    0.1487    9.3829 C   0  0  0  0  0  0  0  0  0  0  0  0
    4.2521    1.3555   10.0047 C   0  0  0  0  0  0  0  0  0  0  0  0
    5.1167    1.2216   11.0206 C   0  0  0  0  0  0  0  0  0  0  0  0
    5.3712   -0.1116   11.3409 C   0  0  0  0  0  0  0  0  0  0  0  0
    2.6199   -1.9469   -1.5015 C   0  0  0  0  0  0  0  0  0  0  0  0
    4.4974   -1.0683   -0.1534 C   0  0  0  0  0  0  0  0  0  0  0  0
    0.5321   -0.3408   -0.8262 H   0  0  0  0  0  0  0  0  0  0  0  0
    2.2132   -3.2592    0.6990 H   0  0  0  0  0  0  0  0  0  0  0  0
    3.3227   -1.6963    4.5583 H   0  0  0  0  0  0  0  0  0  0  0  0
    0.9640   -3.6307    5.5307 H   0  0  0  0  0  0  0  0  0  0  0  0
    2.1822   -4.8787    4.3030 H   0  0  0  0  0  0  0  0  0  0  0  0
    2.3542   -4.5238    9.9451 H   0  0  0  0  0  0  0  0  0  0  0  0
    2.3133   -2.7744   10.1495 H   0  0  0  0  0  0  0  0  0  0  0  0
    4.9331   -4.3522   10.2582 H   0  0  0  0  0  0  0  0  0  0  0  0
    4.0281   -3.8356   11.7113 H   0  0  0  0  0  0  0  0  0  0  0  0
    4.7078   -0.8835    5.5293 H   0  0  0  0  0  0  0  0  0  0  0  0
    2.1049   -0.3982    4.6648 H   0  0  0  0  0  0  0  0  0  0  0  0
    3.2403    0.8335    4.5451 H   0  0  0  0  0  0  0  0  0  0  0  0
    1.2396    0.1196    6.7848 H   0  0  0  0  0  0  0  0  0  0  0  0
    0.8522    1.0957    5.3648 H   0  0  0  0  0  0  0  0  0  0  0  0
    1.4606    2.5440    7.2311 H   0  0  0  0  0  0  0  0  0  0  0  0
    2.6346    2.7543    5.8649 H   0  0  0  0  0  0  0  0  0  0  0  0
    2.6958    1.5308    8.2595 H   0  0  0  0  0  0  0  0  0  0  0  0
    3.9319    2.6163    7.7750 H   0  0  0  0  0  0  0  0  0  0  0  0
    5.2584    0.2788    7.5553 H   0  0  0  0  0  0  0  0  0  0  0  0
    5.1299    1.2528    6.1680 H   0  0  0  0  0  0  0  0  0  0  0  0
    3.0473    0.0597    8.5904 H   0  0  0  0  0  0  0  0  0  0  0  0
    4.0305    2.3822    9.6865 H   0  0  0  0  0  0  0  0  0  0  0  0
    5.4915    2.1188   11.5149 H   0  0  0  0  0  0  0  0  0  0  0  0
    5.9893   -0.2543   12.2141 H   0  0  0  0  0  0  0  0  0  0  0  0
    1.5515   -2.1645   -1.5849 H   0  0  0  0  0  0  0  0  0  0  0  0
    3.1608   -2.8858   -1.6695 H   0  0  0  0  0  0  0  0  0  0  0  0
    2.8793   -1.2683   -2.3288 H   0  0  0  0  0  0  0  0  0  0  0  0
    4.8456   -0.5762    0.7585 H   0  0  0  0  0  0  0  0  0  0  0  0
    4.7692   -0.3892   -0.9778 H   0  0  0  0  0  0  0  0  0  0  0  0
    5.0723   -1.9897   -0.2810 H   0  0  0  0  0  0  0  0  0  0  0  0
  1  2  1  0  0  0  0
  1 34  1  0  0  0  0
  2  3  2  0  0  0  0
  2  4  1  0  0  0  0
  4  5  1  0  0  0  0
  4 32  1  0  0  0  0
  4 33  1  0  0  0  0
  5  6  1  0  0  0  0
  5 35  1  0  0  0  0
  6  7  2  0  0  0  0
  6  8  1  0  0  0  0
  8  9  2  0  0  0  0
  8 13  1  0  0  0  0
  9 10  1  0  0  0  0
  9 36  1  0  0  0  0
 10 11  2  0  0  0  0
 10 37  1  0  0  0  0
 11 12  1  0  0  0  0
 11 21  1  0  0  0  0
 12 13  2  0  0  0  0
 12 14  1  0  0  0  0
 13 38  1  0  0  0  0
 14 15  1  0  0  0  0
 14 20  1  0  0  0  0
 15 16  1  0  0  0  0
 15 39  1  0  0  0  0
 15 40  1  0  0  0  0
 16 17  1  0  0  0  0
 16 41  1  0  0  0  0
 16 42  1  0  0  0  0
 17 18  1  0  0  0  0
 18 19  2  0  0  0  0
 18 31  1  0  0  0  0
 19 20  1  0  0  0  0
 19 28  1  0  0  0  0
 20 21  2  0  0  0  0
 21 22  1  0  0  0  0
 22 23  1  0  0  0  0
 22 27  1  0  0  0  0
 22 43  1  0  0  0  0
 23 24  1  0  0  0  0
 23 44  1  0  0  0  0
 23 45  1  0  0  0  0
 24 25  1  0  0  0  0
 24 46  1  0  0  0  0
 24 47  1  0  0  0  0
 25 26  1  0  0  0  0
 25 48  1  0  0  0  0
 25 49  1  0  0  0  0
 26 27  1  0  0  0  0
 26 50  1  0  0  0  0
 26 51  1  0  0  0  0
 27 52  1  0  0  0  0
 27 53  1  0  0  0  0
 28 29  2  0  0  0  0
 28 54  1  0  0  0  0
 29 30  1  0  0  0  0
 29 55  1  0  0  0  0
 30 31  2  0  0  0  0
 30 56  1  0  0  0  0
 31 57  1  0  0  0  0
 32 58  1  0  0  0  0
 32 59  1  0  0  0  0
 32 60  1  0  0  0  0
 33 61  1  0  0  0  0
 33 62  1  0  0  0  0
 33 63  1  0  0  0  0
M  END
$$$$
