K01
 OpenBabel04121316143D

 46 48  0  0  0  0  0  0  0  0999 V2000
    1.4862   -0.2076    0.7143 C   0  0  0  0  0  0  0  0  0  0  0  0
    2.8388   -0.0195    0.2320 C   0  0  0  0  0  0  0  0  0  0  0  0
    2.9140    1.3195   -0.3628 N   0  0  0  0  0  0  0  0  0  0  0  0
    1.7892    2.1943   -0.7937 C   0  0  0  0  0  0  0  0  0  0  0  0
    2.0590    3.3760   -1.0411 O   0  0  0  0  0  0  0  0  0  0  0  0
    0.2236    1.8340   -0.8486 C   0  0  0  0  0  0  0  0  0  0  0  0
   -0.5352    0.5796   -0.9942 C   0  0  0  0  0  0  0  0  0  0  0  0
   -2.1267    0.7679   -0.4913 S   0  0  0  0  0  0  0  0  0  0  0  0
   -2.0644    2.3943   -0.5272 C   0  0  0  0  0  0  0  0  0  0  0  0
   -0.8159    2.9520   -0.6575 C   0  0  0  0  0  0  0  0  0  0  0  0
   -0.7445    4.4925   -0.6136 C   0  0  0  0  0  0  0  0  0  0  0  0
   -2.1362    5.1248   -0.2210 C   0  0  0  0  0  0  0  0  0  0  0  0
   -3.3022    4.4203   -0.9231 C   0  0  0  0  0  0  0  0  0  0  0  0
   -3.3852    3.0165   -0.4032 C   0  0  0  0  0  0  0  0  0  0  0  0
   -0.2796   -0.8304   -1.2689 N   0  0  0  0  0  0  0  0  0  0  0  0
   -1.0227   -1.8964   -0.6584 C   0  0  0  0  0  0  0  0  0  0  0  0
   -2.1592   -1.8224   -0.2484 O   0  0  0  0  0  0  0  0  0  0  0  0
   -0.3248   -3.1882   -0.5404 C   0  0  0  0  0  0  0  0  0  0  0  0
    0.9925   -3.5958   -0.4062 C   0  0  0  0  0  0  0  0  0  0  0  0
    1.1112   -5.0263   -0.3453 C   0  0  0  0  0  0  0  0  0  0  0  0
   -0.1114   -5.6501   -0.3991 C   0  0  0  0  0  0  0  0  0  0  0  0
   -1.3920   -4.5482   -0.4708 S   0  0  0  0  0  0  0  0  0  0  0  0
    4.3382    1.6566   -0.4962 C   0  0  0  0  0  0  0  0  0  0  0  0
    4.7116    3.0598   -0.8580 C   0  0  0  0  0  0  0  0  0  0  0  0
    1.1267   -1.1820    0.9966 H   0  0  0  0  0  0  0  0  0  0  0  0
    1.2207   -0.1009   -0.2941 H   0  0  0  0  0  0  0  0  0  0  0  0
    1.0316    0.6163    1.2661 H   0  0  0  0  0  0  0  0  0  0  0  0
    3.0977   -0.7299   -0.5735 H   0  0  0  0  0  0  0  0  0  0  0  0
    3.5015   -0.1758    1.0804 H   0  0  0  0  0  0  0  0  0  0  0  0
   -0.4945    4.8671   -1.6139 H   0  0  0  0  0  0  0  0  0  0  0  0
    0.0091    4.8753    0.0851 H   0  0  0  0  0  0  0  0  0  0  0  0
   -2.1792    6.1914   -0.4625 H   0  0  0  0  0  0  0  0  0  0  0  0
   -2.2811    5.0371    0.8661 H   0  0  0  0  0  0  0  0  0  0  0  0
   -3.1299    4.4008   -2.0073 H   0  0  0  0  0  0  0  0  0  0  0  0
   -4.2697    4.8911   -0.7377 H   0  0  0  0  0  0  0  0  0  0  0  0
   -4.1068    2.4460   -1.0024 H   0  0  0  0  0  0  0  0  0  0  0  0
   -3.6991    2.9712    0.6465 H   0  0  0  0  0  0  0  0  0  0  0  0
    0.6449   -1.1008   -1.5637 H   0  0  0  0  0  0  0  0  0  0  0  0
    1.8597   -2.9481   -0.3448 H   0  0  0  0  0  0  0  0  0  0  0  0
    2.0416   -5.5774   -0.2731 H   0  0  0  0  0  0  0  0  0  0  0  0
   -0.3428   -6.7038   -0.3911 H   0  0  0  0  0  0  0  0  0  0  0  0
    4.7690    0.9497   -1.2208 H   0  0  0  0  0  0  0  0  0  0  0  0
    4.8183    1.4143    0.4670 H   0  0  0  0  0  0  0  0  0  0  0  0
    4.3179    3.2975   -1.8474 H   0  0  0  0  0  0  0  0  0  0  0  0
    5.7988    3.1718   -0.8861 H   0  0  0  0  0  0  0  0  0  0  0  0
    4.3133    3.7483   -0.1095 H   0  0  0  0  0  0  0  0  0  0  0  0
  1  2  1  0  0  0  0
  1 25  1  0  0  0  0
  1 26  1  0  0  0  0
  1 27  1  0  0  0  0
  2  3  1  0  0  0  0
  2 28  1  0  0  0  0
  2 29  1  0  0  0  0
  3  4  1  0  0  0  0
  3 23  1  0  0  0  0
  4  5  2  0  0  0  0
  4  6  1  0  0  0  0
  6  7  2  0  0  0  0
  6 10  1  0  0  0  0
  7  8  1  0  0  0  0
  7 15  1  0  0  0  0
  8  9  1  0  0  0  0
  9 10  2  0  0  0  0
  9 14  1  0  0  0  0
 10 11  1  0  0  0  0
 11 12  1  0  0  0  0
 11 30  1  0  0  0  0
 11 31  1  0  0  0  0
 12 13  1  0  0  0  0
 12 32  1  0  0  0  0
 12 33  1  0  0  0  0
 13 14  1  0  0  0  0
 13 34  1  0  0  0  0
 13 35  1  0  0  0  0
 14 36  1  0  0  0  0
 14 37  1  0  0  0  0
 15 16  1  0  0  0  0
 15 38  1  0  0  0  0
 16 17  2  0  0  0  0
 16 18  1  0  0  0  0
 18 19  2  0  0  0  0
 18 22  1  0  0  0  0
 19 20  1  0  0  0  0
 19 39  1  0  0  0  0
 20 21  2  0  0  0  0
 20 40  1  0  0  0  0
 21 22  1  0  0  0  0
 21 41  1  0  0  0  0
 23 24  1  0  0  0  0
 23 42  1  0  0  0  0
 23 43  1  0  0  0  0
 24 44  1  0  0  0  0
 24 45  1  0  0  0  0
 24 46  1  0  0  0  0
M  END
$$$$
