K32
 OpenBabel04121316143D

 16 17  0  0  0  0  0  0  0  0999 V2000
    1.0539    0.1971    0.0223 Br  0  0  0  0  0  0  0  0  0  0  0  0
    2.9475    0.0659    0.0372 C   0  0  0  0  0  0  0  0  0  0  0  0
    3.6568   -1.1488   -0.0645 C   0  0  0  0  0  0  0  0  0  0  0  0
    2.6794   -2.7918   -0.2274 Br  0  0  0  0  0  0  0  0  0  0  0  0
    5.0874   -1.1564   -0.0651 C   0  0  0  0  0  0  0  0  0  0  0  0
    6.0472   -2.8096   -0.2288 Br  0  0  0  0  0  0  0  0  0  0  0  0
    5.8096    0.0508    0.0359 C   0  0  0  0  0  0  0  0  0  0  0  0
    5.0810    1.2213    0.1105 C   0  0  0  0  0  0  0  0  0  0  0  0
    3.6884    1.2286    0.1111 C   0  0  0  0  0  0  0  0  0  0  0  0
    3.2713    2.5616    0.1274 N   0  0  0  0  0  0  0  0  0  0  0  0
    2.3191    2.8965    0.1290 H   0  0  0  0  0  0  0  0  0  0  0  0
    4.3961    3.3919    0.0188 C   0  0  0  0  0  0  0  0  0  0  0  0
    4.4024    4.5896   -0.1712 O   0  0  0  0  0  0  0  0  0  0  0  0
    5.5122    2.5498    0.1264 N   0  0  0  0  0  0  0  0  0  0  0  0
    6.4678    2.8746    0.1271 H   0  0  0  0  0  0  0  0  0  0  0  0
    7.7044    0.1619    0.0199 Br  0  0  0  0  0  0  0  0  0  0  0  0
  1  2  1  0  0  0  0
  2  3  2  0  0  0  0
  2  9  1  0  0  0  0
  3  4  1  0  0  0  0
  3  5  1  0  0  0  0
  5  6  1  0  0  0  0
  5  7  2  0  0  0  0
  7  8  1  0  0  0  0
  7 16  1  0  0  0  0
  8  9  2  0  0  0  0
  8 14  1  0  0  0  0
  9 10  1  0  0  0  0
 10 11  1  0  0  0  0
 10 12  1  0  0  0  0
 12 13  2  0  0  0  0
 12 14  1  0  0  0  0
 14 15  1  0  0  0  0
M  END
$$$$
