K51
 OpenBabel04121316143D

 43 45  0  0  1  0  0  0  0  0999 V2000
    2.5424   -3.3624   -1.2056 O   0  0  0  0  0  0  0  0  0  0  0  0
    2.2058   -2.2774   -0.4120 C   0  0  0  0  0  0  0  0  0  0  0  0
    2.8728   -1.0274   -0.9942 C   0  0  2  0  0  0  0  0  0  0  0  0
    2.5731   -0.2034   -0.3312 H   0  0  0  0  0  0  0  0  0  0  0  0
    2.3368   -0.6849   -2.4294 C   0  0  0  0  0  0  0  0  0  0  0  0
    2.7363   -1.6645   -3.5393 C   0  0  0  0  0  0  0  0  0  0  0  0
    0.7988   -0.6166   -2.4426 C   0  0  0  0  0  0  0  0  0  0  0  0
    4.3694   -1.1263   -0.9178 N   0  0  0  0  0  0  0  0  0  0  0  0
    5.1263   -1.9951   -1.6992 C   0  0  0  0  0  0  0  0  0  0  0  0
    6.0457   -1.4527   -2.7565 C   0  0  0  0  0  0  0  0  0  0  0  0
    6.5433   -2.3082   -3.6616 C   0  0  0  0  0  0  0  0  0  0  0  0
    6.2249   -3.6831   -3.5803 C   0  0  0  0  0  0  0  0  0  0  0  0
    5.4334   -4.0964   -2.5193 N   0  0  0  0  0  0  0  0  0  0  0  0
    4.9348   -3.2837   -1.5352 N   0  0  0  0  0  0  0  0  0  0  0  0
    5.1859   -5.4612   -2.6942 C   0  0  0  0  0  0  0  0  0  0  0  0
    5.9459   -5.7732   -3.8137 C   0  0  0  0  0  0  0  0  0  0  0  0
    6.5646   -4.6848   -4.3595 N   0  0  0  0  0  0  0  0  0  0  0  0
    4.3838   -6.4018   -1.8836 C   0  0  0  0  0  0  0  0  0  0  0  0
    4.7427   -7.7479   -1.8381 C   0  0  0  0  0  0  0  0  0  0  0  0
    3.9058   -8.7039   -1.2432 C   0  0  0  0  0  0  0  0  0  0  0  0
    2.7793   -8.3119   -0.5216 C   0  0  0  0  0  0  0  0  0  0  0  0
    2.4746   -6.9733   -0.4331 C   0  0  0  0  0  0  0  0  0  0  0  0
    3.1959   -6.0924   -1.2326 C   0  0  0  0  0  0  0  0  0  0  0  0
    1.8844   -9.2782    0.0496 C   0  0  0  0  0  0  0  0  0  0  0  0
    1.1440  -10.0419    0.4817 N   0  0  0  0  0  0  0  0  0  0  0  0
    3.5050   -3.5052   -1.0286 H   0  0  0  0  0  0  0  0  0  0  0  0
    2.5165   -2.4980    0.6088 H   0  0  0  0  0  0  0  0  0  0  0  0
    1.1196   -2.2671   -0.4452 H   0  0  0  0  0  0  0  0  0  0  0  0
    2.7199    0.3070   -2.7055 H   0  0  0  0  0  0  0  0  0  0  0  0
    2.3890   -2.6820   -3.3521 H   0  0  0  0  0  0  0  0  0  0  0  0
    3.8064   -1.6930   -3.6769 H   0  0  0  0  0  0  0  0  0  0  0  0
    2.3378   -1.3700   -4.5120 H   0  0  0  0  0  0  0  0  0  0  0  0
    0.3501   -1.5886   -2.2105 H   0  0  0  0  0  0  0  0  0  0  0  0
    0.4271   -0.3490   -3.4365 H   0  0  0  0  0  0  0  0  0  0  0  0
    0.4253    0.1144   -1.7202 H   0  0  0  0  0  0  0  0  0  0  0  0
    4.8177   -0.2782   -0.5859 H   0  0  0  0  0  0  0  0  0  0  0  0
    6.1860   -0.3829   -2.8376 H   0  0  0  0  0  0  0  0  0  0  0  0
    7.1577   -1.9728   -4.4897 H   0  0  0  0  0  0  0  0  0  0  0  0
    6.0627   -6.7586   -4.2471 H   0  0  0  0  0  0  0  0  0  0  0  0
    5.6593   -8.0826   -2.3130 H   0  0  0  0  0  0  0  0  0  0  0  0
    4.1428   -9.7564   -1.3582 H   0  0  0  0  0  0  0  0  0  0  0  0
    1.6345   -6.5969    0.1489 H   0  0  0  0  0  0  0  0  0  0  0  0
    2.6745   -5.1927   -1.4316 H   0  0  0  0  0  0  0  0  0  0  0  0
  1  2  1  0  0  0  0
  1 26  1  0  0  0  0
  2 27  1  0  0  0  0
  2 28  1  0  0  0  0
  3  5  1  0  0  0  0
  3  8  1  0  0  0  0
  3  4  1  1  0  0  0
  3  2  1  0  0  0  0
  5  6  1  0  0  0  0
  5  7  1  0  0  0  0
  5 29  1  0  0  0  0
  6 30  1  0  0  0  0
  6 31  1  0  0  0  0
  6 32  1  0  0  0  0
  7 33  1  0  0  0  0
  7 34  1  0  0  0  0
  7 35  1  0  0  0  0
  8  9  1  0  0  0  0
  8 36  1  0  0  0  0
  9 10  1  0  0  0  0
  9 14  2  0  0  0  0
 10 11  2  0  0  0  0
 10 37  1  0  0  0  0
 11 12  1  0  0  0  0
 11 38  1  0  0  0  0
 12 13  1  0  0  0  0
 12 17  2  0  0  0  0
 13 14  1  0  0  0  0
 13 15  1  0  0  0  0
 15 16  2  0  0  0  0
 15 18  1  0  0  0  0
 16 17  1  0  0  0  0
 16 39  1  0  0  0  0
 18 19  2  0  0  0  0
 18 23  1  0  0  0  0
 19 20  1  0  0  0  0
 19 40  1  0  0  0  0
 20 21  2  0  0  0  0
 20 41  1  0  0  0  0
 21 22  1  0  0  0  0
 21 24  1  0  0  0  0
 22 23  2  0  0  0  0
 22 42  1  0  0  0  0
 23 43  1  0  0  0  0
 24 25  3  0  0  0  0
M  END
$$$$
