K5E
 OpenBabel04121316143D

 35 37  0  0  1  0  0  0  0  0999 V2000
    1.1206   -0.0999   -0.6147 S   0  0  0  0  0  0  0  0  0  0  0  0
    2.6798    0.0466   -0.0715 C   0  0  0  0  0  0  0  0  0  0  0  0
    3.4099   -1.0183    0.3856 N   0  0  0  0  0  0  0  0  0  0  0  0
    4.4690   -0.8834    1.2492 C   0  0  0  0  0  0  0  0  0  0  0  0
    4.8204    0.3563    1.6664 C   0  0  0  0  0  0  0  0  0  0  0  0
    4.1004    1.5778    1.1636 C   0  0  1  0  0  0  0  0  0  0  0  0
    4.8282    2.3372    0.8508 H   0  0  0  0  0  0  0  0  0  0  0  0
    3.3673    1.2255   -0.0352 N   0  0  0  0  0  0  0  0  0  0  0  0
    3.1544    2.1510    2.2111 C   0  0  0  0  0  0  0  0  0  0  0  0
    2.2254    1.3259    2.8771 C   0  0  0  0  0  0  0  0  0  0  0  0
    1.2833    1.8579    3.7500 C   0  0  0  0  0  0  0  0  0  0  0  0
    1.2084    3.2355    3.9165 C   0  0  0  0  0  0  0  0  0  0  0  0
    2.1472    4.0535    3.2919 C   0  0  0  0  0  0  0  0  0  0  0  0
    3.1508    3.5211    2.4901 C   0  0  0  0  0  0  0  0  0  0  0  0
    2.0965    5.4101    3.4208 O   0  0  0  0  0  0  0  0  0  0  0  0
    5.8632    0.6204    2.6868 C   0  0  1  0  0  0  0  0  0  0  0  0
    5.4537    1.2674    3.4748 H   0  0  0  0  0  0  0  0  0  0  0  0
    6.5125   -0.5805    3.3607 C   0  0  0  0  0  0  0  0  0  0  0  0
    6.1283   -1.9745    2.8752 C   0  0  0  0  0  0  0  0  0  0  0  0
    5.0733   -2.1274    1.7838 C   0  0  0  0  0  0  0  0  0  0  0  0
    6.8898    1.3568    2.0255 O   0  0  0  0  0  0  0  0  0  0  0  0
    3.0767   -1.9447    0.1264 H   0  0  0  0  0  0  0  0  0  0  0  0
    3.2316    1.9041   -0.7695 H   0  0  0  0  0  0  0  0  0  0  0  0
    2.2086    0.2536    2.6955 H   0  0  0  0  0  0  0  0  0  0  0  0
    0.5944    1.1938    4.2642 H   0  0  0  0  0  0  0  0  0  0  0  0
    0.4164    3.6479    4.5313 H   0  0  0  0  0  0  0  0  0  0  0  0
    3.9020    4.1803    2.0629 H   0  0  0  0  0  0  0  0  0  0  0  0
    1.2637    5.6389    3.8649 H   0  0  0  0  0  0  0  0  0  0  0  0
    6.3063   -0.5246    4.4384 H   0  0  0  0  0  0  0  0  0  0  0  0
    7.6035   -0.4888    3.2839 H   0  0  0  0  0  0  0  0  0  0  0  0
    5.8168   -2.5652    3.7466 H   0  0  0  0  0  0  0  0  0  0  0  0
    7.0434   -2.4619    2.5186 H   0  0  0  0  0  0  0  0  0  0  0  0
    4.2629   -2.7552    2.1802 H   0  0  0  0  0  0  0  0  0  0  0  0
    5.5135   -2.6860    0.9483 H   0  0  0  0  0  0  0  0  0  0  0  0
    7.2365    0.7650    1.3346 H   0  0  0  0  0  0  0  0  0  0  0  0
  1  2  2  0  0  0  0
  2  3  1  0  0  0  0
  2  8  1  0  0  0  0
  3  4  1  0  0  0  0
  3 22  1  0  0  0  0
  4  5  2  0  0  0  0
  4 20  1  0  0  0  0
  5  6  1  0  0  0  0
  5 16  1  0  0  0  0
  6  7  1  6  0  0  0
  6  8  1  0  0  0  0
  6  9  1  0  0  0  0
  8 23  1  0  0  0  0
  9 10  2  0  0  0  0
  9 14  1  0  0  0  0
 10 11  1  0  0  0  0
 10 24  1  0  0  0  0
 11 12  2  0  0  0  0
 11 25  1  0  0  0  0
 12 13  1  0  0  0  0
 12 26  1  0  0  0  0
 13 14  2  0  0  0  0
 13 15  1  0  0  0  0
 14 27  1  0  0  0  0
 15 28  1  0  0  0  0
 16 18  1  0  0  0  0
 16 21  1  0  0  0  0
 16 17  1  1  0  0  0
 18 19  1  0  0  0  0
 18 29  1  0  0  0  0
 18 30  1  0  0  0  0
 19 20  1  0  0  0  0
 19 31  1  0  0  0  0
 19 32  1  0  0  0  0
 20 33  1  0  0  0  0
 20 34  1  0  0  0  0
 21 35  1  0  0  0  0
M  END
$$$$
