K68
 OpenBabel04121316143D

 21 22  0  0  0  0  0  0  0  0999 V2000
    0.9589   -0.0694    0.3977 O   0  0  0  0  0  0  0  0  0  0  0  0
    2.2695    0.0687    0.1023 C   0  0  0  0  0  0  0  0  0  0  0  0
    2.6655    0.9121   -0.6918 O   0  0  0  0  0  0  0  0  0  0  0  0
    3.0706   -0.8254    0.9918 C   0  0  0  0  0  0  0  0  0  0  0  0
    4.5041   -0.7318    0.8194 N   0  0  0  0  0  0  0  0  0  0  0  0
    5.1805    0.4590    0.7769 C   0  0  0  0  0  0  0  0  0  0  0  0
    6.4633    0.2773    0.6122 N   0  0  0  0  0  0  0  0  0  0  0  0
    6.6415   -1.0853    0.5625 C   0  0  0  0  0  0  0  0  0  0  0  0
    5.4239   -1.7621    0.7188 C   0  0  0  0  0  0  0  0  0  0  0  0
    5.3673   -3.1764    0.7366 C   0  0  0  0  0  0  0  0  0  0  0  0
    3.7275   -4.1226    0.9924 Br  0  0  0  0  0  0  0  0  0  0  0  0
    6.5818   -3.8878    0.5717 C   0  0  0  0  0  0  0  0  0  0  0  0
    6.5512   -5.8153    0.5949 Br  0  0  0  0  0  0  0  0  0  0  0  0
    7.8048   -3.2096    0.3966 C   0  0  0  0  0  0  0  0  0  0  0  0
    7.8410   -1.8039    0.3920 C   0  0  0  0  0  0  0  0  0  0  0  0
    9.4466   -0.7997    0.1707 Br  0  0  0  0  0  0  0  0  0  0  0  0
    9.4385   -4.1908    0.1738 Br  0  0  0  0  0  0  0  0  0  0  0  0
    0.5370    0.7907    0.2010 H   0  0  0  0  0  0  0  0  0  0  0  0
    2.7313   -1.8254    0.7661 H   0  0  0  0  0  0  0  0  0  0  0  0
    2.8514   -0.5822    2.0371 H   0  0  0  0  0  0  0  0  0  0  0  0
    4.6949    1.4273    0.8425 H   0  0  0  0  0  0  0  0  0  0  0  0
  1  2  1  0  0  0  0
  1 18  1  0  0  0  0
  2  3  2  0  0  0  0
  2  4  1  0  0  0  0
  4  5  1  0  0  0  0
  4 19  1  0  0  0  0
  4 20  1  0  0  0  0
  5  6  1  0  0  0  0
  5  9  1  0  0  0  0
  6  7  2  0  0  0  0
  6 21  1  0  0  0  0
  7  8  1  0  0  0  0
  8  9  2  0  0  0  0
  8 15  1  0  0  0  0
  9 10  1  0  0  0  0
 10 11  1  0  0  0  0
 10 12  2  0  0  0  0
 12 13  1  0  0  0  0
 12 14  1  0  0  0  0
 14 15  2  0  0  0  0
 14 17  1  0  0  0  0
 15 16  1  0  0  0  0
M  END
$$$$
