KAA
 OpenBabel04121316143D

 58 60  0  0  1  0  0  0  0  0999 V2000
    0.9642    0.0675    0.0536 N   0  0  0  0  0  0  0  0  0  0  0  0
    2.4139    0.0827    0.0664 C   0  0  0  0  0  0  0  0  0  0  0  0
    2.8973    1.3685    0.7322 C   0  0  0  0  0  0  0  0  0  0  0  0
    4.4110    1.3874    0.7154 C   0  0  0  0  0  0  0  0  0  0  0  0
    5.0040    2.6560    1.3138 C   0  0  0  0  0  0  0  0  0  0  0  0
    6.5396    2.6396    1.2926 C   0  0  1  0  0  0  0  0  0  0  0  0
    6.9250    1.7671    1.8315 H   0  0  0  0  0  0  0  0  0  0  0  0
    7.1220    2.6259   -0.1567 C   0  0  0  0  0  0  0  0  0  0  0  0
    7.7397    3.5865   -0.6046 O   0  0  0  0  0  0  0  0  0  0  0  0
    6.9096    1.4684   -0.9404 N   0  0  0  0  0  0  0  0  0  0  0  0
    7.4019    1.4465   -2.5268 S   0  0  0  0  0  0  0  0  0  0  0  0
    6.6948    2.4923   -3.2234 O   0  0  0  0  0  0  0  0  0  0  0  0
    8.8464    1.3476   -2.5152 O   0  0  0  0  0  0  0  0  0  0  0  0
    6.8515    0.0330   -3.1318 O   0  0  0  0  0  0  0  0  0  0  0  0
    7.1989   -0.1908   -4.5091 C   0  0  0  0  0  0  0  0  0  0  0  0
    6.6064   -1.4731   -5.1057 C   0  0  1  0  0  0  0  0  0  0  0  0
    6.6861   -1.3862   -6.1994 H   0  0  0  0  0  0  0  0  0  0  0  0
    7.3351   -2.6622   -4.7557 O   0  0  0  0  0  0  0  0  0  0  0  0
    6.4135   -3.7585   -4.9325 C   0  0  2  0  0  0  0  0  0  0  0  0
    6.4374   -4.0652   -5.9868 H   0  0  0  0  0  0  0  0  0  0  0  0
    5.0311   -3.2254   -4.5415 C   0  0  1  0  0  0  0  0  0  0  0  0
    4.8005   -3.4644   -3.4966 H   0  0  0  0  0  0  0  0  0  0  0  0
    5.1654   -1.7075   -4.6775 C   0  0  2  0  0  0  0  0  0  0  0  0
    4.9558   -1.2553   -3.7051 H   0  0  0  0  0  0  0  0  0  0  0  0
    4.2694   -1.1148   -5.6096 O   0  0  0  0  0  0  0  0  0  0  0  0
    3.9619   -3.7249   -5.3452 O   0  0  0  0  0  0  0  0  0  0  0  0
    6.8327   -4.9136   -4.1526 N   0  0  0  0  0  0  0  0  0  0  0  0
    6.6506   -6.2268   -4.5160 C   0  0  0  0  0  0  0  0  0  0  0  0
    7.1861   -7.0610   -3.6496 N   0  0  0  0  0  0  0  0  0  0  0  0
    7.7332   -6.2518   -2.6743 C   0  0  0  0  0  0  0  0  0  0  0  0
    7.4772   -4.9158   -2.9447 C   0  0  0  0  0  0  0  0  0  0  0  0
    7.8117   -3.8614   -2.1843 N   0  0  0  0  0  0  0  0  0  0  0  0
    8.5227   -4.2492   -1.1080 C   0  0  0  0  0  0  0  0  0  0  0  0
    8.8589   -5.5013   -0.7286 N   0  0  0  0  0  0  0  0  0  0  0  0
    8.4601   -6.5354   -1.5042 C   0  0  0  0  0  0  0  0  0  0  0  0
    8.7789   -7.8156   -1.1102 N   0  0  0  0  0  0  0  0  0  0  0  0
    7.0226    3.8491    2.0002 N   0  0  0  0  0  0  0  0  0  0  0  0
    0.6328   -0.7733   -0.4147 H   0  0  0  0  0  0  0  0  0  0  0  0
    0.6210    0.8582   -0.4915 H   0  0  0  0  0  0  0  0  0  0  0  0
    2.7943    0.0153   -0.9612 H   0  0  0  0  0  0  0  0  0  0  0  0
    2.7931   -0.7900    0.6100 H   0  0  0  0  0  0  0  0  0  0  0  0
    2.5279    1.4446    1.7597 H   0  0  0  0  0  0  0  0  0  0  0  0
    2.5299    2.2390    0.1738 H   0  0  0  0  0  0  0  0  0  0  0  0
    4.6681    1.3265   -0.3408 H   0  0  0  0  0  0  0  0  0  0  0  0
    4.8193    0.5063    1.2262 H   0  0  0  0  0  0  0  0  0  0  0  0
    4.6480    2.7548    2.3489 H   0  0  0  0  0  0  0  0  0  0  0  0
    4.6270    3.5264    0.7620 H   0  0  0  0  0  0  0  0  0  0  0  0
    6.4529    0.6314   -0.6072 H   0  0  0  0  0  0  0  0  0  0  0  0
    8.2903   -0.2125   -4.5876 H   0  0  0  0  0  0  0  0  0  0  0  0
    6.8180    0.6552   -5.0954 H   0  0  0  0  0  0  0  0  0  0  0  0
    3.3816   -1.4528   -5.3894 H   0  0  0  0  0  0  0  0  0  0  0  0
    3.9062   -4.6890   -5.2244 H   0  0  0  0  0  0  0  0  0  0  0  0
    6.1326   -6.5285   -5.4184 H   0  0  0  0  0  0  0  0  0  0  0  0
    8.8691   -3.4494   -0.4601 H   0  0  0  0  0  0  0  0  0  0  0  0
    9.3471   -7.9384   -0.2875 H   0  0  0  0  0  0  0  0  0  0  0  0
    8.5279   -8.5882   -1.7102 H   0  0  0  0  0  0  0  0  0  0  0  0
    6.5946    3.9484    2.9170 H   0  0  0  0  0  0  0  0  0  0  0  0
    6.7559    4.6749    1.4554 H   0  0  0  0  0  0  0  0  0  0  0  0
  1  2  1  0  0  0  0
  1 38  1  0  0  0  0
  1 39  1  0  0  0  0
  2  3  1  0  0  0  0
  2 40  1  0  0  0  0
  2 41  1  0  0  0  0
  3  4  1  0  0  0  0
  3 42  1  0  0  0  0
  3 43  1  0  0  0  0
  4  5  1  0  0  0  0
  4 44  1  0  0  0  0
  4 45  1  0  0  0  0
  5  6  1  0  0  0  0
  5 46  1  0  0  0  0
  5 47  1  0  0  0  0
  6  7  1  1  0  0  0
  6  8  1  0  0  0  0
  6 37  1  0  0  0  0
  8  9  2  0  0  0  0
  8 10  1  0  0  0  0
 10 11  1  0  0  0  0
 10 48  1  0  0  0  0
 11 12  2  0  0  0  0
 11 13  2  0  0  0  0
 11 14  1  0  0  0  0
 14 15  1  0  0  0  0
 15 16  1  0  0  0  0
 15 49  1  0  0  0  0
 15 50  1  0  0  0  0
 16 17  1  6  0  0  0
 16 18  1  0  0  0  0
 16 23  1  0  0  0  0
 18 19  1  0  0  0  0
 19 21  1  0  0  0  0
 19 27  1  0  0  0  0
 19 20  1  6  0  0  0
 21 22  1  1  0  0  0
 21 23  1  0  0  0  0
 21 26  1  0  0  0  0
 23 24  1  1  0  0  0
 23 25  1  0  0  0  0
 25 51  1  0  0  0  0
 26 52  1  0  0  0  0
 27 28  1  0  0  0  0
 27 31  1  0  0  0  0
 28 29  2  0  0  0  0
 28 53  1  0  0  0  0
 29 30  1  0  0  0  0
 30 31  2  0  0  0  0
 30 35  1  0  0  0  0
 31 32  1  0  0  0  0
 32 33  2  0  0  0  0
 33 34  1  0  0  0  0
 33 54  1  0  0  0  0
 34 35  2  0  0  0  0
 35 36  1  0  0  0  0
 36 55  1  0  0  0  0
 36 56  1  0  0  0  0
 37 57  1  0  0  0  0
 37 58  1  0  0  0  0
M  END
$$$$
