KAI
 OpenBabel04121316143D

 30 30  0  0  1  0  0  0  0  0999 V2000
    0.9194   -0.2384   -0.4159 O   0  0  0  0  0  0  0  0  0  0  0  0
    2.1049   -0.7635   -0.0485 C   0  0  0  0  0  0  0  0  0  0  0  0
    2.3269   -1.1167    1.1039 O   0  0  0  0  0  0  0  0  0  0  0  0
    3.0721   -0.7592   -1.1967 C   0  0  0  0  0  0  0  0  0  0  0  0
    4.5471   -0.5085   -0.8406 C   0  0  1  0  0  0  0  0  0  0  0  0
    5.0838   -0.4590   -1.8040 H   0  0  0  0  0  0  0  0  0  0  0  0
    4.9369    0.7936   -0.0618 C   0  0  2  0  0  0  0  0  0  0  0  0
    5.0800    1.6237   -0.7700 H   0  0  0  0  0  0  0  0  0  0  0  0
    6.3187    0.3692    0.4797 C   0  0  0  0  0  0  0  0  0  0  0  0
    6.2053   -1.0537    0.8233 N   0  0  0  0  0  0  0  0  0  0  0  0
    5.1667   -1.6684   -0.0423 C   0  0  2  0  0  0  0  0  0  0  0  0
    4.4358   -2.1666    0.6011 H   0  0  0  0  0  0  0  0  0  0  0  0
    5.8175   -2.7742   -0.9154 C   0  0  0  0  0  0  0  0  0  0  0  0
    6.9852   -3.1332   -0.8418 O   0  0  0  0  0  0  0  0  0  0  0  0
    4.9800   -3.4042   -1.7743 O   0  0  0  0  0  0  0  0  0  0  0  0
    3.9835    1.2780    1.0447 C   0  0  0  0  0  0  0  0  0  0  0  0
    4.2087    1.0783    2.3570 C   0  0  0  0  0  0  0  0  0  0  0  0
    2.6582    1.8996    0.6719 C   0  0  0  0  0  0  0  0  0  0  0  0
    0.4806    0.0643    0.4074 H   0  0  0  0  0  0  0  0  0  0  0  0
    2.7599   -0.0203   -1.9444 H   0  0  0  0  0  0  0  0  0  0  0  0
    2.9263   -1.7343   -1.6591 H   0  0  0  0  0  0  0  0  0  0  0  0
    6.6555    0.9582    1.3409 H   0  0  0  0  0  0  0  0  0  0  0  0
    7.0996    0.4916   -0.2789 H   0  0  0  0  0  0  0  0  0  0  0  0
    5.9102   -1.1639    1.7927 H   0  0  0  0  0  0  0  0  0  0  0  0
    4.0393   -3.1774   -1.7354 H   0  0  0  0  0  0  0  0  0  0  0  0
    5.1115    0.6281    2.7492 H   0  0  0  0  0  0  0  0  0  0  0  0
    3.4436    1.2859    3.0966 H   0  0  0  0  0  0  0  0  0  0  0  0
    2.4600    1.8320   -0.4021 H   0  0  0  0  0  0  0  0  0  0  0  0
    2.5405    2.9399    0.9749 H   0  0  0  0  0  0  0  0  0  0  0  0
    1.8673    1.3664    1.2123 H   0  0  0  0  0  0  0  0  0  0  0  0
  1  2  1  0  0  0  0
  1 19  1  0  0  0  0
  2  3  2  0  0  0  0
  2  4  1  0  0  0  0
  4  5  1  0  0  0  0
  4 20  1  0  0  0  0
  4 21  1  0  0  0  0
  5  6  1  6  0  0  0
  5  7  1  0  0  0  0
  5 11  1  0  0  0  0
  7  8  1  6  0  0  0
  7  9  1  0  0  0  0
  7 16  1  0  0  0  0
  9 10  1  0  0  0  0
  9 22  1  0  0  0  0
  9 23  1  0  0  0  0
 10 11  1  0  0  0  0
 10 24  1  0  0  0  0
 11 12  1  1  0  0  0
 11 13  1  0  0  0  0
 13 14  2  0  0  0  0
 13 15  1  0  0  0  0
 15 25  1  0  0  0  0
 16 17  2  0  0  0  0
 16 18  1  0  0  0  0
 17 26  1  0  0  0  0
 17 27  1  0  0  0  0
 18 28  1  0  0  0  0
 18 29  1  0  0  0  0
 18 30  1  0  0  0  0
M  END
$$$$
