KAP
 OpenBabel04121316143D

 30 29  0  0  1  0  0  0  0  0999 V2000
    0.9060    0.0009    0.0589 O   0  0  0  0  0  0  0  0  0  0  0  0
    2.2506    0.0849    0.0648 C   0  0  0  0  0  0  0  0  0  0  0  0
    2.8159    1.1569    0.2487 O   0  0  0  0  0  0  0  0  0  0  0  0
    2.9493   -1.2393   -0.1347 C   0  0  0  0  0  0  0  0  0  0  0  0
    4.4607   -1.0261   -0.0950 C   0  0  0  0  0  0  0  0  0  0  0  0
    5.2249   -2.3295   -0.2619 C   0  0  0  0  0  0  0  0  0  0  0  0
    6.7178   -2.0515   -0.2212 C   0  0  0  0  0  0  0  0  0  0  0  0
    7.5155   -3.3324   -0.3955 C   0  0  0  0  0  0  0  0  0  0  0  0
    8.9972   -3.0188   -0.3704 C   0  0  0  0  0  0  0  0  0  0  0  0
    9.4045   -1.8726   -0.1650 O   0  0  0  0  0  0  0  0  0  0  0  0
    9.9535   -4.2031   -0.5298 C   0  0  1  0  0  0  0  0  0  0  0  0
    9.7655   -4.9070    0.2891 H   0  0  0  0  0  0  0  0  0  0  0  0
    9.7336   -4.8679   -1.8226 N   0  0  0  0  0  0  0  0  0  0  0  0
   11.3879   -3.6952   -0.4491 C   0  0  0  0  0  0  0  0  0  0  0  0
    0.5714   -0.4407   -0.7432 H   0  0  0  0  0  0  0  0  0  0  0  0
    2.6588   -1.6793   -1.0942 H   0  0  0  0  0  0  0  0  0  0  0  0
    2.6598   -1.9204    0.6745 H   0  0  0  0  0  0  0  0  0  0  0  0
    4.7451   -0.5586    0.8575 H   0  0  0  0  0  0  0  0  0  0  0  0
    4.7549   -0.3242   -0.8863 H   0  0  0  0  0  0  0  0  0  0  0  0
    4.9620   -2.7993   -1.2165 H   0  0  0  0  0  0  0  0  0  0  0  0
    4.9581   -3.0294    0.5383 H   0  0  0  0  0  0  0  0  0  0  0  0
    6.9852   -1.5748    0.7311 H   0  0  0  0  0  0  0  0  0  0  0  0
    6.9866   -1.3416   -1.0148 H   0  0  0  0  0  0  0  0  0  0  0  0
    7.2576   -3.7960   -1.3527 H   0  0  0  0  0  0  0  0  0  0  0  0
    7.2907   -4.0374    0.4125 H   0  0  0  0  0  0  0  0  0  0  0  0
    8.8072   -5.2890   -1.8592 H   0  0  0  0  0  0  0  0  0  0  0  0
   10.3972   -5.6349   -1.9253 H   0  0  0  0  0  0  0  0  0  0  0  0
   11.5627   -3.1990    0.5132 H   0  0  0  0  0  0  0  0  0  0  0  0
   11.5868   -2.9555   -1.2344 H   0  0  0  0  0  0  0  0  0  0  0  0
   12.1112   -4.5086   -0.5473 H   0  0  0  0  0  0  0  0  0  0  0  0
  1  2  1  0  0  0  0
  1 15  1  0  0  0  0
  2  3  2  0  0  0  0
  2  4  1  0  0  0  0
  4  5  1  0  0  0  0
  4 16  1  0  0  0  0
  4 17  1  0  0  0  0
  5  6  1  0  0  0  0
  5 18  1  0  0  0  0
  5 19  1  0  0  0  0
  6  7  1  0  0  0  0
  6 20  1  0  0  0  0
  6 21  1  0  0  0  0
  7  8  1  0  0  0  0
  7 22  1  0  0  0  0
  7 23  1  0  0  0  0
  8  9  1  0  0  0  0
  8 24  1  0  0  0  0
  8 25  1  0  0  0  0
  9 10  2  0  0  0  0
  9 11  1  0  0  0  0
 11 12  1  1  0  0  0
 11 13  1  0  0  0  0
 11 14  1  0  0  0  0
 13 26  1  0  0  0  0
 13 27  1  0  0  0  0
 14 28  1  0  0  0  0
 14 29  1  0  0  0  0
 14 30  1  0  0  0  0
M  END
$$$$
