KB2
 OpenBabel04121316143D

 63 65  0  0  1  0  0  0  0  0999 V2000
   10.2812   -5.4269   -5.9945 C   0  0  0  0  0  0  0  0  0  0  0  0
    9.7538   -5.0954   -7.3767 C   0  0  0  0  0  0  0  0  0  0  0  0
    8.6480   -4.0579   -7.2806 C   0  0  0  0  0  0  0  0  0  0  0  0
    8.1140   -3.7127   -8.6710 C   0  0  0  0  0  0  0  0  0  0  0  0
    7.0727   -2.5973   -8.5957 C   0  0  2  0  0  0  0  0  0  0  0  0
    7.5277   -1.7147   -8.1269 H   0  0  0  0  0  0  0  0  0  0  0  0
    5.9434   -2.9560   -7.7811 N   0  0  0  0  0  0  0  0  0  0  0  0
    5.4126   -4.1764   -7.8882 N   0  0  0  0  0  0  0  0  0  0  0  0
    4.4575   -4.2513   -6.9986 N   0  0  0  0  0  0  0  0  0  0  0  0
    4.3515   -3.0531   -6.3498 C   0  0  0  0  0  0  0  0  0  0  0  0
    5.3325   -2.2146   -6.8307 C   0  0  0  0  0  0  0  0  0  0  0  0
    3.3495   -2.8251   -5.2448 C   0  0  2  0  0  0  0  0  0  0  0  0
    3.9085   -3.1978   -3.8103 C   0  0  0  0  0  0  0  0  0  0  0  0
    5.4323   -3.0729   -3.7170 C   0  0  0  0  0  0  0  0  0  0  0  0
    3.5881   -4.5974   -3.2940 C   0  0  0  0  0  0  0  0  0  0  0  0
    2.0750   -3.4881   -5.6003 N   0  0  0  0  0  0  0  0  0  0  0  0
    2.1487   -4.9409   -5.7920 C   0  0  0  0  0  0  0  0  0  0  0  0
    0.8401   -5.6153   -5.9187 C   0  0  0  0  0  0  0  0  0  0  0  0
    0.8465   -7.0185   -5.9287 C   0  0  0  0  0  0  0  0  0  0  0  0
   -0.3360   -7.7028   -6.1197 C   0  0  0  0  0  0  0  0  0  0  0  0
   -1.5041   -6.9959   -6.3460 C   0  0  0  0  0  0  0  0  0  0  0  0
   -1.4769   -5.5795   -6.2931 C   0  0  0  0  0  0  0  0  0  0  0  0
   -0.3248   -4.8909   -6.0352 C   0  0  0  0  0  0  0  0  0  0  0  0
   -2.5910   -4.8330   -6.6165 C   0  0  0  0  0  0  0  0  0  0  0  0
   -3.6720   -5.5061   -7.1330 C   0  0  0  0  0  0  0  0  0  0  0  0
   -3.6606   -6.8919   -7.0872 C   0  0  0  0  0  0  0  0  0  0  0  0
   -2.6196   -7.6476   -6.6725 N   0  0  0  0  0  0  0  0  0  0  0  0
    3.0161   -1.2964   -5.2286 C   0  0  0  0  0  0  0  0  0  0  0  0
    6.5577   -2.1902   -9.9591 C   0  0  0  0  0  0  0  0  0  0  0  0
    6.6954   -1.0407  -10.3595 O   0  0  0  0  0  0  0  0  0  0  0  0
    5.8429   -3.2232  -10.8020 C   0  0  0  0  0  0  0  0  0  0  0  0
   11.0859   -6.1627   -6.0638 H   0  0  0  0  0  0  0  0  0  0  0  0
    9.4865   -5.8403   -5.3646 H   0  0  0  0  0  0  0  0  0  0  0  0
   10.6721   -4.5290   -5.5054 H   0  0  0  0  0  0  0  0  0  0  0  0
    9.3713   -6.0052   -7.8543 H   0  0  0  0  0  0  0  0  0  0  0  0
   10.5663   -4.7108   -8.0025 H   0  0  0  0  0  0  0  0  0  0  0  0
    9.0196   -3.1507   -6.7896 H   0  0  0  0  0  0  0  0  0  0  0  0
    7.8459   -4.4556   -6.6453 H   0  0  0  0  0  0  0  0  0  0  0  0
    7.6916   -4.6207   -9.1210 H   0  0  0  0  0  0  0  0  0  0  0  0
    8.9318   -3.3972   -9.3273 H   0  0  0  0  0  0  0  0  0  0  0  0
    5.6425   -1.2176   -6.5569 H   0  0  0  0  0  0  0  0  0  0  0  0
    3.4565   -2.5117   -3.0818 H   0  0  0  0  0  0  0  0  0  0  0  0
    5.9222   -3.7671   -4.4121 H   0  0  0  0  0  0  0  0  0  0  0  0
    5.7760   -3.3475   -2.7161 H   0  0  0  0  0  0  0  0  0  0  0  0
    5.7670   -2.0568   -3.9318 H   0  0  0  0  0  0  0  0  0  0  0  0
    4.0391   -5.3425   -3.9618 H   0  0  0  0  0  0  0  0  0  0  0  0
    2.5024   -4.7152   -3.1872 H   0  0  0  0  0  0  0  0  0  0  0  0
    4.0005   -4.8121   -2.3089 H   0  0  0  0  0  0  0  0  0  0  0  0
    1.7578   -3.0986   -6.4895 H   0  0  0  0  0  0  0  0  0  0  0  0
    2.5284   -5.4811   -4.9494 H   0  0  0  0  0  0  0  0  0  0  0  0
    2.7116   -5.2666   -6.6610 H   0  0  0  0  0  0  0  0  0  0  0  0
    1.7830   -7.5613   -5.7970 H   0  0  0  0  0  0  0  0  0  0  0  0
   -0.3251   -8.7870   -6.1523 H   0  0  0  0  0  0  0  0  0  0  0  0
   -0.3119   -3.8057   -5.9993 H   0  0  0  0  0  0  0  0  0  0  0  0
   -2.5818   -3.7485   -6.5468 H   0  0  0  0  0  0  0  0  0  0  0  0
   -4.4896   -4.9580   -7.5785 H   0  0  0  0  0  0  0  0  0  0  0  0
   -4.5244   -7.4591   -7.4078 H   0  0  0  0  0  0  0  0  0  0  0  0
    2.2613   -1.0450   -4.4758 H   0  0  0  0  0  0  0  0  0  0  0  0
    2.6448   -0.9455   -6.2023 H   0  0  0  0  0  0  0  0  0  0  0  0
    3.9082   -0.6986   -5.0013 H   0  0  0  0  0  0  0  0  0  0  0  0
    5.7990   -4.2003  -10.3192 H   0  0  0  0  0  0  0  0  0  0  0  0
    6.3858   -3.3465  -11.7392 H   0  0  0  0  0  0  0  0  0  0  0  0
    4.8177   -2.8893  -10.9793 H   0  0  0  0  0  0  0  0  0  0  0  0
  1  2  1  0  0  0  0
  1 32  1  0  0  0  0
  1 33  1  0  0  0  0
  1 34  1  0  0  0  0
  2  3  1  0  0  0  0
  2 35  1  0  0  0  0
  2 36  1  0  0  0  0
  3  4  1  0  0  0  0
  3 37  1  0  0  0  0
  3 38  1  0  0  0  0
  4 39  1  0  0  0  0
  4 40  1  0  0  0  0
  5  7  1  0  0  0  0
  5 29  1  0  0  0  0
  5  6  1  1  0  0  0
  5  4  1  0  0  0  0
  7  8  1  0  0  0  0
  7 11  1  0  0  0  0
  8  9  2  0  0  0  0
  9 10  1  0  0  0  0
 10 11  2  0  0  0  0
 11 41  1  0  0  0  0
 12 16  1  6  0  0  0
 12 28  1  0  0  0  0
 12 13  1  0  0  0  0
 12 10  1  0  0  0  0
 13 14  1  0  0  0  0
 13 15  1  0  0  0  0
 13 42  1  0  0  0  0
 14 43  1  0  0  0  0
 14 44  1  0  0  0  0
 14 45  1  0  0  0  0
 15 46  1  0  0  0  0
 15 47  1  0  0  0  0
 15 48  1  0  0  0  0
 16 17  1  0  0  0  0
 16 49  1  0  0  0  0
 17 18  1  0  0  0  0
 17 50  1  0  0  0  0
 17 51  1  0  0  0  0
 18 19  2  0  0  0  0
 18 23  1  0  0  0  0
 19 20  1  0  0  0  0
 19 52  1  0  0  0  0
 20 21  2  0  0  0  0
 20 53  1  0  0  0  0
 21 22  1  0  0  0  0
 21 27  1  0  0  0  0
 22 23  2  0  0  0  0
 22 24  1  0  0  0  0
 23 54  1  0  0  0  0
 24 25  2  0  0  0  0
 24 55  1  0  0  0  0
 25 26  1  0  0  0  0
 25 56  1  0  0  0  0
 26 27  2  0  0  0  0
 26 57  1  0  0  0  0
 28 58  1  0  0  0  0
 28 59  1  0  0  0  0
 28 60  1  0  0  0  0
 29 30  2  0  0  0  0
 29 31  1  0  0  0  0
 31 61  1  0  0  0  0
 31 62  1  0  0  0  0
 31 63  1  0  0  0  0
M  END
$$$$
