KBG
 OpenBabel04121316143D

 22 22  0  0  1  0  0  0  0  0999 V2000
    1.1266    0.1702    0.4983 O   0  0  0  0  0  0  0  0  0  0  0  0
    2.5072    0.0232    0.1493 C   0  0  0  0  0  0  0  0  0  0  0  0
    2.7768    0.3108   -1.3461 C   0  0  1  0  0  0  0  0  0  0  0  0
    3.8399    0.0886   -1.5100 H   0  0  0  0  0  0  0  0  0  0  0  0
    2.0838   -0.6065   -2.2120 O   0  0  0  0  0  0  0  0  0  0  0  0
    0.7225   -0.3136   -2.4816 C   0  0  1  0  0  0  0  0  0  0  0  0
    0.4530   -0.8873   -3.3757 H   0  0  0  0  0  0  0  0  0  0  0  0
   -0.0968   -0.8244   -1.4523 O   0  0  0  0  0  0  0  0  0  0  0  0
    0.4200    1.1636   -2.7954 C   0  0  0  0  0  0  0  0  0  0  0  0
   -0.3018    1.5195   -3.7199 O   0  0  0  0  0  0  0  0  0  0  0  0
    1.0726    2.1693   -1.8489 C   0  0  2  0  0  0  0  0  0  0  0  0
    0.9930    3.1438   -2.3412 H   0  0  0  0  0  0  0  0  0  0  0  0
    2.5543    1.7904   -1.7438 C   0  0  2  0  0  0  0  0  0  0  0  0
    3.0625    2.4323   -1.0159 H   0  0  0  0  0  0  0  0  0  0  0  0
    3.1950    2.0203   -3.0105 O   0  0  0  0  0  0  0  0  0  0  0  0
    0.4565    2.3484   -0.5855 O   0  0  0  0  0  0  0  0  0  0  0  0
    0.9843   -0.3339    1.3277 H   0  0  0  0  0  0  0  0  0  0  0  0
    2.8091   -0.9978    0.4014 H   0  0  0  0  0  0  0  0  0  0  0  0
    3.0630    0.7291    0.7732 H   0  0  0  0  0  0  0  0  0  0  0  0
    0.1227   -0.2900   -0.6676 H   0  0  0  0  0  0  0  0  0  0  0  0
    3.0281    2.9428   -3.2806 H   0  0  0  0  0  0  0  0  0  0  0  0
    0.6329    1.5724   -0.0153 H   0  0  0  0  0  0  0  0  0  0  0  0
  1  2  1  0  0  0  0
  1 17  1  0  0  0  0
  2  3  1  0  0  0  0
  2 18  1  0  0  0  0
  2 19  1  0  0  0  0
  3  4  1  6  0  0  0
  3  5  1  0  0  0  0
  3 13  1  0  0  0  0
  5  6  1  0  0  0  0
  6  9  1  0  0  0  0
  6  8  1  0  0  0  0
  6  7  1  6  0  0  0
  8 20  1  0  0  0  0
  9 10  2  0  0  0  0
  9 11  1  0  0  0  0
 11 13  1  0  0  0  0
 11 16  1  0  0  0  0
 11 12  1  6  0  0  0
 13 14  1  1  0  0  0
 13 15  1  0  0  0  0
 15 21  1  0  0  0  0
 16 22  1  0  0  0  0
M  END
$$$$
