KD0
 OpenBabel04121316143D

 35 34  0  0  1  0  0  0  0  0999 V2000
    2.8494   -3.1599    0.4323 O   0  0  0  0  0  0  0  0  0  0  0  0
    2.4308   -2.0719    1.2338 C   0  0  1  0  0  0  0  0  0  0  0  0
    2.2108   -2.4383    2.2428 H   0  0  0  0  0  0  0  0  0  0  0  0
    3.2610   -0.7466    1.2627 C   0  0  2  0  0  0  0  0  0  0  0  0
    2.9806   -0.0991    0.4099 H   0  0  0  0  0  0  0  0  0  0  0  0
    4.7189   -0.7787    1.1624 C   0  0  1  0  0  0  0  0  0  0  0  0
    5.0498    0.2639    1.2453 H   0  0  0  0  0  0  0  0  0  0  0  0
    5.1705   -1.5913    2.3824 C   0  0  1  0  0  0  0  0  0  0  0  0
    4.7472   -2.6005    2.3676 H   0  0  0  0  0  0  0  0  0  0  0  0
    6.6565   -1.6131    2.3839 C   0  0  0  0  0  0  0  0  0  0  0  0
    7.1591   -2.4206    1.2250 C   0  0  0  0  0  0  0  0  0  0  0  0
    6.5346   -3.1963    0.5063 O   0  0  0  0  0  0  0  0  0  0  0  0
    8.6290   -2.3118    0.9565 C   0  0  0  0  0  0  0  0  0  0  0  0
    9.3944   -1.7761    1.7476 O   0  0  0  0  0  0  0  0  0  0  0  0
    8.9491   -2.8956   -0.2069 O   0  0  0  0  0  0  0  0  0  0  0  0
    4.7755   -1.0116    3.6448 O   0  0  0  0  0  0  0  0  0  0  0  0
    5.1131   -1.2138   -0.1299 O   0  0  0  0  0  0  0  0  0  0  0  0
    2.9550   -0.0340    2.5083 O   0  0  0  0  0  0  0  0  0  0  0  0
    1.1952   -1.5012    0.6423 C   0  0  0  0  0  0  0  0  0  0  0  0
    1.0985   -0.2170    1.3093 O   0  0  0  0  0  0  0  0  0  0  0  0
   -0.1942    0.7057    0.6233 P   0  0  0  0  0  0  0  0  0  0  0  0
   -0.4924   -0.2746   -0.5055 O   0  0  0  0  0  0  0  0  0  0  0  0
   -1.1127    0.3470    1.9105 O   0  0  0  0  0  0  0  0  0  0  0  0
   -1.4868    1.6284   -0.0628 O   0  0  0  0  0  0  0  0  0  0  0  0
    2.2495   -3.9116    0.6212 H   0  0  0  0  0  0  0  0  0  0  0  0
    7.0034   -2.0547    3.3173 H   0  0  0  0  0  0  0  0  0  0  0  0
    7.0139   -0.5741    2.3445 H   0  0  0  0  0  0  0  0  0  0  0  0
    8.1217   -3.2523   -0.6178 H   0  0  0  0  0  0  0  0  0  0  0  0
    3.8144   -0.7961    3.5785 H   0  0  0  0  0  0  0  0  0  0  0  0
    4.5109   -0.8652   -0.8127 H   0  0  0  0  0  0  0  0  0  0  0  0
    2.8090    0.8952    2.2645 H   0  0  0  0  0  0  0  0  0  0  0  0
    0.2988   -2.1220    0.7467 H   0  0  0  0  0  0  0  0  0  0  0  0
    1.3937   -1.3436   -0.4341 H   0  0  0  0  0  0  0  0  0  0  0  0
   -0.5866   -0.0949    2.6001 H   0  0  0  0  0  0  0  0  0  0  0  0
   -1.2581    1.8265   -0.9875 H   0  0  0  0  0  0  0  0  0  0  0  0
  1  2  1  0  0  0  0
  1 25  1  0  0  0  0
  2  3  1  1  0  0  0
  2 19  1  0  0  0  0
  4  6  1  0  0  0  0
  4 18  1  0  0  0  0
  4  5  1  6  0  0  0
  4  2  1  0  0  0  0
  6  7  1  1  0  0  0
  6  8  1  0  0  0  0
  6 17  1  0  0  0  0
  8  9  1  6  0  0  0
  8 10  1  0  0  0  0
  8 16  1  0  0  0  0
 10 11  1  0  0  0  0
 10 26  1  0  0  0  0
 10 27  1  0  0  0  0
 11 12  2  0  0  0  0
 11 13  1  0  0  0  0
 13 14  2  0  0  0  0
 13 15  1  0  0  0  0
 15 28  1  0  0  0  0
 16 29  1  0  0  0  0
 17 30  1  0  0  0  0
 18 31  1  0  0  0  0
 19 20  1  0  0  0  0
 19 32  1  0  0  0  0
 19 33  1  0  0  0  0
 20 21  1  0  0  0  0
 21 22  2  0  0  0  0
 21 23  1  0  0  0  0
 21 24  1  0  0  0  0
 23 34  1  0  0  0  0
 24 35  1  0  0  0  0
M  END
$$$$
