KDA
 OpenBabel04121316143D

 37 37  0  0  1  0  0  0  0  0999 V2000
    4.0827    5.7461    3.7069 C   0  0  0  0  0  0  0  0  0  0  0  0
    4.1631    4.4188    3.5352 C   0  0  0  0  0  0  0  0  0  0  0  0
    4.6418    3.8634    2.2379 C   0  0  0  0  0  0  0  0  0  0  0  0
    4.7946    2.4532    2.3021 O   0  0  0  0  0  0  0  0  0  0  0  0
    5.0701    1.8592    1.0012 C   0  0  2  0  0  0  0  0  0  0  0  0
    6.4045    1.1043    1.1399 C   0  0  0  0  0  0  0  0  0  0  0  0
    6.9094    0.6256   -0.2143 C   0  0  1  0  0  0  0  0  0  0  0  0
    7.9103    0.1959   -0.1132 H   0  0  0  0  0  0  0  0  0  0  0  0
    6.1164   -0.4503   -0.7260 O   0  0  0  0  0  0  0  0  0  0  0  0
    6.9719    1.8056   -1.2230 C   0  0  2  0  0  0  0  0  0  0  0  0
    7.7679    2.4743   -0.8678 H   0  0  0  0  0  0  0  0  0  0  0  0
    5.6641    2.6253   -1.3058 C   0  0  2  0  0  0  0  0  0  0  0  0
    5.9062    3.6089   -1.7345 H   0  0  0  0  0  0  0  0  0  0  0  0
    5.1818    2.8907    0.0209 O   0  0  0  0  0  0  0  0  0  0  0  0
    4.4998    2.0353   -2.1520 C   0  0  1  0  0  0  0  0  0  0  0  0
    3.5848    2.1681   -1.5564 H   0  0  0  0  0  0  0  0  0  0  0  0
    4.1661    2.5830   -3.5085 C   0  0  0  0  0  0  0  0  0  0  0  0
    3.7422    3.9232   -3.4191 O   0  0  0  0  0  0  0  0  0  0  0  0
    4.7489    0.6454   -2.3884 O   0  0  0  0  0  0  0  0  0  0  0  0
    7.3399    1.3412   -2.5165 O   0  0  0  0  0  0  0  0  0  0  0  0
    3.9475    0.7452    0.9145 C   0  0  0  0  0  0  0  0  0  0  0  0
    3.4077    0.1754    1.8679 O   0  0  0  0  0  0  0  0  0  0  0  0
    3.7019    0.2562   -0.3086 O   0  0  0  0  0  0  0  0  0  0  0  0
    3.7395    6.1812    4.6374 H   0  0  0  0  0  0  0  0  0  0  0  0
    4.3610    6.4248    2.9033 H   0  0  0  0  0  0  0  0  0  0  0  0
    3.8717    3.7371    4.3289 H   0  0  0  0  0  0  0  0  0  0  0  0
    5.6273    4.2849    2.0151 H   0  0  0  0  0  0  0  0  0  0  0  0
    3.9103    4.1403    1.4681 H   0  0  0  0  0  0  0  0  0  0  0  0
    6.2843    0.2496    1.8189 H   0  0  0  0  0  0  0  0  0  0  0  0
    7.1638    1.7553    1.5926 H   0  0  0  0  0  0  0  0  0  0  0  0
    5.4647   -0.8036   -0.0904 H   0  0  0  0  0  0  0  0  0  0  0  0
    3.3347    1.9734   -3.8957 H   0  0  0  0  0  0  0  0  0  0  0  0
    5.0077    2.4507   -4.1915 H   0  0  0  0  0  0  0  0  0  0  0  0
    3.0478    3.9658   -2.7359 H   0  0  0  0  0  0  0  0  0  0  0  0
    3.9166    0.1562   -2.5575 H   0  0  0  0  0  0  0  0  0  0  0  0
    6.6443    0.6876   -2.7517 H   0  0  0  0  0  0  0  0  0  0  0  0
    4.4755    0.4415   -0.8957 H   0  0  0  0  0  0  0  0  0  0  0  0
  1  2  2  0  0  0  0
  1 24  1  0  0  0  0
  1 25  1  0  0  0  0
  2  3  1  0  0  0  0
  2 26  1  0  0  0  0
  3  4  1  0  0  0  0
  3 27  1  0  0  0  0
  3 28  1  0  0  0  0
  5  6  1  0  0  0  0
  5 14  1  0  0  0  0
  5 21  1  6  0  0  0
  5  4  1  0  0  0  0
  6  7  1  0  0  0  0
  6 29  1  0  0  0  0
  6 30  1  0  0  0  0
  7 10  1  0  0  0  0
  7  9  1  0  0  0  0
  7  8  1  1  0  0  0
  9 31  1  0  0  0  0
 10 12  1  0  0  0  0
 10 20  1  0  0  0  0
 10 11  1  1  0  0  0
 12 14  1  0  0  0  0
 12 15  1  0  0  0  0
 12 13  1  6  0  0  0
 15 16  1  1  0  0  0
 15 17  1  0  0  0  0
 15 19  1  0  0  0  0
 17 18  1  0  0  0  0
 17 32  1  0  0  0  0
 17 33  1  0  0  0  0
 18 34  1  0  0  0  0
 19 35  1  0  0  0  0
 20 36  1  0  0  0  0
 21 22  2  0  0  0  0
 21 23  1  0  0  0  0
 23 37  1  0  0  0  0
M  END
$$$$
