KDG
 OpenBabel04121316143D

 22 21  0  0  1  0  0  0  0  0999 V2000
    5.1392   -1.4603   -0.4582 O   0  0  0  0  0  0  0  0  0  0  0  0
    4.2990   -2.1601   -1.3527 C   0  0  0  0  0  0  0  0  0  0  0  0
    2.9856   -2.8050   -0.8395 C   0  0  2  0  0  0  0  0  0  0  0  0
    2.2026   -2.4855   -1.5427 H   0  0  0  0  0  0  0  0  0  0  0  0
    2.5197   -2.4821    0.5976 C   0  0  2  0  0  0  0  0  0  0  0  0
    2.7960   -1.4596    0.8689 H   0  0  0  0  0  0  0  0  0  0  0  0
    2.9829   -3.5079    1.6488 C   0  0  0  0  0  0  0  0  0  0  0  0
    4.4811   -3.5691    1.8243 C   0  0  0  0  0  0  0  0  0  0  0  0
    5.3268   -2.7791    1.4150 O   0  0  0  0  0  0  0  0  0  0  0  0
    5.0878   -4.6726    2.6629 C   0  0  0  0  0  0  0  0  0  0  0  0
    4.4551   -5.4238    3.3579 O   0  0  0  0  0  0  0  0  0  0  0  0
    6.4402   -4.6180    2.5431 O   0  0  0  0  0  0  0  0  0  0  0  0
    1.0684   -2.5074    0.5807 O   0  0  0  0  0  0  0  0  0  0  0  0
    3.0534   -4.2399   -0.9874 O   0  0  0  0  0  0  0  0  0  0  0  0
    5.8074   -2.0848   -0.1051 H   0  0  0  0  0  0  0  0  0  0  0  0
    4.9003   -2.8921   -1.9018 H   0  0  0  0  0  0  0  0  0  0  0  0
    4.0081   -1.3660   -2.0362 H   0  0  0  0  0  0  0  0  0  0  0  0
    2.5907   -4.5026    1.3965 H   0  0  0  0  0  0  0  0  0  0  0  0
    2.5386   -3.2521    2.6168 H   0  0  0  0  0  0  0  0  0  0  0  0
    6.6833   -3.8452    1.9730 H   0  0  0  0  0  0  0  0  0  0  0  0
    0.7372   -2.2495    1.4583 H   0  0  0  0  0  0  0  0  0  0  0  0
    3.1904   -4.4428   -1.9288 H   0  0  0  0  0  0  0  0  0  0  0  0
  1  2  1  0  0  0  0
  1 15  1  0  0  0  0
  2 16  1  0  0  0  0
  2 17  1  0  0  0  0
  3 14  1  0  0  0  0
  3  4  1  6  0  0  0
  3  2  1  0  0  0  0
  5  7  1  0  0  0  0
  5 13  1  0  0  0  0
  5  6  1  1  0  0  0
  5  3  1  0  0  0  0
  7  8  1  0  0  0  0
  7 18  1  0  0  0  0
  7 19  1  0  0  0  0
  8  9  2  0  0  0  0
  8 10  1  0  0  0  0
 10 11  2  0  0  0  0
 10 12  1  0  0  0  0
 12 20  1  0  0  0  0
 13 21  1  0  0  0  0
 14 22  1  0  0  0  0
M  END
$$$$
