KDH
 OpenBabel04121316143D

 51 54  0  0  1  0  0  0  0  0999 V2000
    1.1795    0.3281   -0.9766 O   0  0  0  0  0  0  0  0  0  0  0  0
    2.5472    0.3750   -0.8866 C   0  0  0  0  0  0  0  0  0  0  0  0
    3.1459    1.5138   -0.3817 C   0  0  0  0  0  0  0  0  0  0  0  0
    4.5221    1.4978   -0.2198 C   0  0  0  0  0  0  0  0  0  0  0  0
    5.1707    2.6549    0.1007 O   0  0  0  0  0  0  0  0  0  0  0  0
    5.2740    0.3213   -0.3836 C   0  0  0  0  0  0  0  0  0  0  0  0
    4.6683   -0.8395   -0.8613 C   0  0  0  0  0  0  0  0  0  0  0  0
    3.3083   -0.7711   -1.1842 C   0  0  0  0  0  0  0  0  0  0  0  0
    5.2773   -2.0946   -0.8780 O   0  0  0  0  0  0  0  0  0  0  0  0
    6.6978   -2.1635   -0.5681 C   0  0  1  0  0  0  0  0  0  0  0  0
    7.1629   -1.9767   -1.5412 H   0  0  0  0  0  0  0  0  0  0  0  0
    7.1222   -1.0734    0.4397 C   0  0  1  0  0  0  0  0  0  0  0  0
    8.2157   -1.0152    0.4593 H   0  0  0  0  0  0  0  0  0  0  0  0
    6.7208    0.2994   -0.0591 C   0  0  0  0  0  0  0  0  0  0  0  0
    6.7346   -1.4330    1.8106 O   0  0  0  0  0  0  0  0  0  0  0  0
    5.6557   -0.9096    2.4398 C   0  0  0  0  0  0  0  0  0  0  0  0
    5.7713   -0.0042    3.2750 O   0  0  0  0  0  0  0  0  0  0  0  0
    4.3246   -1.5354    2.1381 C   0  0  0  0  0  0  0  0  0  0  0  0
    4.2038   -2.8046    1.5447 C   0  0  0  0  0  0  0  0  0  0  0  0
    3.0205   -3.1407    0.8703 C   0  0  0  0  0  0  0  0  0  0  0  0
    2.9996   -4.0808   -0.1334 O   0  0  0  0  0  0  0  0  0  0  0  0
    1.8983   -2.3286    0.9611 C   0  0  0  0  0  0  0  0  0  0  0  0
    1.9639   -1.1507    1.7031 C   0  0  0  0  0  0  0  0  0  0  0  0
    3.1817   -0.7213    2.2383 C   0  0  0  0  0  0  0  0  0  0  0  0
    0.9228   -0.2588    1.6353 O   0  0  0  0  0  0  0  0  0  0  0  0
    0.8646   -2.4929    0.0623 O   0  0  0  0  0  0  0  0  0  0  0  0
    7.2976   -3.5471   -0.1456 C   0  0  0  0  0  0  0  0  0  0  0  0
    8.6088   -3.6005    0.4050 C   0  0  0  0  0  0  0  0  0  0  0  0
    9.2431   -4.8052    0.7056 C   0  0  0  0  0  0  0  0  0  0  0  0
   10.5200   -4.8371    1.1938 O   0  0  0  0  0  0  0  0  0  0  0  0
    8.5908   -6.0021    0.4857 C   0  0  0  0  0  0  0  0  0  0  0  0
    7.3032   -5.9882   -0.0307 C   0  0  0  0  0  0  0  0  0  0  0  0
    6.6661   -4.7826   -0.3626 C   0  0  0  0  0  0  0  0  0  0  0  0
    6.6433   -7.1648   -0.2532 O   0  0  0  0  0  0  0  0  0  0  0  0
    9.2140   -7.1906    0.7475 O   0  0  0  0  0  0  0  0  0  0  0  0
    0.8206    0.9824   -0.3432 H   0  0  0  0  0  0  0  0  0  0  0  0
    2.5515    2.3783   -0.1022 H   0  0  0  0  0  0  0  0  0  0  0  0
    4.5630    3.3935   -0.0751 H   0  0  0  0  0  0  0  0  0  0  0  0
    2.8089   -1.6755   -1.5089 H   0  0  0  0  0  0  0  0  0  0  0  0
    7.2352    0.5109   -1.0051 H   0  0  0  0  0  0  0  0  0  0  0  0
    7.0070    1.0569    0.6752 H   0  0  0  0  0  0  0  0  0  0  0  0
    5.0878   -3.4134    1.4184 H   0  0  0  0  0  0  0  0  0  0  0  0
    3.9192   -4.2547   -0.3932 H   0  0  0  0  0  0  0  0  0  0  0  0
    3.2879    0.3216    2.5349 H   0  0  0  0  0  0  0  0  0  0  0  0
    0.3961   -0.6036    0.8807 H   0  0  0  0  0  0  0  0  0  0  0  0
    1.2226   -3.0925   -0.6298 H   0  0  0  0  0  0  0  0  0  0  0  0
    9.1737   -2.6965    0.5975 H   0  0  0  0  0  0  0  0  0  0  0  0
   10.8331   -3.9212    1.3045 H   0  0  0  0  0  0  0  0  0  0  0  0
    5.6886   -4.8511   -0.8147 H   0  0  0  0  0  0  0  0  0  0  0  0
    7.2724   -7.8663    0.0148 H   0  0  0  0  0  0  0  0  0  0  0  0
   10.1027   -6.9328    1.0724 H   0  0  0  0  0  0  0  0  0  0  0  0
  1  2  1  0  0  0  0
  1 36  1  0  0  0  0
  2  3  2  0  0  0  0
  2  8  1  0  0  0  0
  3  4  1  0  0  0  0
  3 37  1  0  0  0  0
  4  5  1  0  0  0  0
  4  6  2  0  0  0  0
  5 38  1  0  0  0  0
  6  7  1  0  0  0  0
  6 14  1  0  0  0  0
  7  8  2  0  0  0  0
  7  9  1  0  0  0  0
  8 39  1  0  0  0  0
  9 10  1  0  0  0  0
 10 11  1  6  0  0  0
 10 12  1  0  0  0  0
 10 27  1  0  0  0  0
 12 14  1  0  0  0  0
 12 15  1  0  0  0  0
 12 13  1  6  0  0  0
 14 40  1  0  0  0  0
 14 41  1  0  0  0  0
 15 16  1  0  0  0  0
 16 17  2  0  0  0  0
 16 18  1  0  0  0  0
 18 19  2  0  0  0  0
 18 24  1  0  0  0  0
 19 20  1  0  0  0  0
 19 42  1  0  0  0  0
 20 21  1  0  0  0  0
 20 22  2  0  0  0  0
 21 43  1  0  0  0  0
 22 23  1  0  0  0  0
 22 26  1  0  0  0  0
 23 24  2  0  0  0  0
 23 25  1  0  0  0  0
 24 44  1  0  0  0  0
 25 45  1  0  0  0  0
 26 46  1  0  0  0  0
 27 28  2  0  0  0  0
 27 33  1  0  0  0  0
 28 29  1  0  0  0  0
 28 47  1  0  0  0  0
 29 30  1  0  0  0  0
 29 31  2  0  0  0  0
 30 48  1  0  0  0  0
 31 32  1  0  0  0  0
 31 35  1  0  0  0  0
 32 33  2  0  0  0  0
 32 34  1  0  0  0  0
 33 49  1  0  0  0  0
 34 50  1  0  0  0  0
 35 51  1  0  0  0  0
M  END
$$$$
