KDN
 OpenBabel04121316143D

 34 34  0  0  1  0  0  0  0  0999 V2000
    2.5179   -2.2496    2.2156 O   0  0  0  0  0  0  0  0  0  0  0  0
    2.1565   -2.9496    3.4024 C   0  0  0  0  0  0  0  0  0  0  0  0
    1.5512   -2.1498    4.5942 C   0  0  2  0  0  0  0  0  0  0  0  0
    0.4652   -2.1522    4.4369 H   0  0  0  0  0  0  0  0  0  0  0  0
    1.9564   -0.6494    4.7916 C   0  0  2  0  0  0  0  0  0  0  0  0
    1.0642   -0.0435    4.5811 H   0  0  0  0  0  0  0  0  0  0  0  0
    3.0658   -0.1958    3.8298 C   0  0  2  0  0  0  0  0  0  0  0  0
    2.6280   -0.2954    2.8367 H   0  0  0  0  0  0  0  0  0  0  0  0
    4.1938   -1.0644    3.9855 O   0  0  0  0  0  0  0  0  0  0  0  0
    5.2773   -0.8907    3.0949 C   0  0  1  0  0  0  0  0  0  0  0  0
    4.9157   -1.2368    1.7543 O   0  0  0  0  0  0  0  0  0  0  0  0
    5.7485    0.5493    3.1440 C   0  0  0  0  0  0  0  0  0  0  0  0
    4.5839    1.4930    2.8575 C   0  0  1  0  0  0  0  0  0  0  0  0
    4.2030    1.3258    1.8403 H   0  0  0  0  0  0  0  0  0  0  0  0
    3.4324    1.2839    3.8654 C   0  0  1  0  0  0  0  0  0  0  0  0
    3.7343    1.6112    4.8639 H   0  0  0  0  0  0  0  0  0  0  0  0
    2.2855    2.0558    3.4677 O   0  0  0  0  0  0  0  0  0  0  0  0
    5.0503    2.8344    2.8826 O   0  0  0  0  0  0  0  0  0  0  0  0
    6.4482   -1.8739    3.4769 C   0  0  0  0  0  0  0  0  0  0  0  0
    6.4191   -2.6900    4.3773 O   0  0  0  0  0  0  0  0  0  0  0  0
    7.5352   -1.7790    2.6556 O   0  0  0  0  0  0  0  0  0  0  0  0
    2.3286   -0.3455    6.1435 O   0  0  0  0  0  0  0  0  0  0  0  0
    1.7485   -2.9476    5.7768 O   0  0  0  0  0  0  0  0  0  0  0  0
    3.4647   -2.4730    2.0735 H   0  0  0  0  0  0  0  0  0  0  0  0
    3.0151   -3.5408    3.7437 H   0  0  0  0  0  0  0  0  0  0  0  0
    1.4003   -3.6507    3.0512 H   0  0  0  0  0  0  0  0  0  0  0  0
    4.1346   -0.7120    1.5075 H   0  0  0  0  0  0  0  0  0  0  0  0
    6.5475    0.7253    2.4155 H   0  0  0  0  0  0  0  0  0  0  0  0
    6.1630    0.7726    4.1343 H   0  0  0  0  0  0  0  0  0  0  0  0
    2.0238    1.7957    2.5671 H   0  0  0  0  0  0  0  0  0  0  0  0
    5.7405    2.9240    2.2038 H   0  0  0  0  0  0  0  0  0  0  0  0
    7.4071   -1.1833    1.8953 H   0  0  0  0  0  0  0  0  0  0  0  0
    1.5702   -0.5148    6.7231 H   0  0  0  0  0  0  0  0  0  0  0  0
    1.2262   -2.5823    6.5068 H   0  0  0  0  0  0  0  0  0  0  0  0
  1  2  1  0  0  0  0
  1 24  1  0  0  0  0
  2 25  1  0  0  0  0
  2 26  1  0  0  0  0
  3 23  1  0  0  0  0
  3  4  1  6  0  0  0
  3  2  1  0  0  0  0
  5 22  1  0  0  0  0
  5  6  1  6  0  0  0
  5  3  1  0  0  0  0
  7  9  1  0  0  0  0
  7 15  1  0  0  0  0
  7  8  1  6  0  0  0
  7  5  1  0  0  0  0
  9 10  1  0  0  0  0
 10 11  1  6  0  0  0
 10 12  1  0  0  0  0
 10 19  1  0  0  0  0
 11 27  1  0  0  0  0
 12 13  1  0  0  0  0
 12 28  1  0  0  0  0
 12 29  1  0  0  0  0
 13 14  1  6  0  0  0
 13 15  1  0  0  0  0
 13 18  1  0  0  0  0
 15 17  1  0  0  0  0
 15 16  1  1  0  0  0
 17 30  1  0  0  0  0
 18 31  1  0  0  0  0
 19 20  2  0  0  0  0
 19 21  1  0  0  0  0
 21 32  1  0  0  0  0
 22 33  1  0  0  0  0
 23 34  1  0  0  0  0
M  END
$$$$
