KDO
 OpenBabel04121316143D

 30 30  0  0  1  0  0  0  0  0999 V2000
    3.8471    0.9310   -3.1365 O   0  0  0  0  0  0  0  0  0  0  0  0
    3.1715    0.1886   -2.1366 C   0  0  0  0  0  0  0  0  0  0  0  0
    3.2494    0.9544   -0.8280 C   0  0  2  0  0  0  0  0  0  0  0  0
    2.7913    0.3308   -0.0448 H   0  0  0  0  0  0  0  0  0  0  0  0
    2.3590    2.2731   -0.8742 C   0  0  1  0  0  0  0  0  0  0  0  0
    2.1496    2.4642    0.1934 H   0  0  0  0  0  0  0  0  0  0  0  0
    2.7871    3.5874   -1.2927 O   0  0  0  0  0  0  0  0  0  0  0  0
    3.0131    3.8526   -2.6754 C   0  0  2  0  0  0  0  0  0  0  0  0
    3.1738    5.2708   -2.9150 O   0  0  0  0  0  0  0  0  0  0  0  0
    1.7902    3.4246   -3.5585 C   0  0  0  0  0  0  0  0  0  0  0  0
    1.2056    2.0241   -3.2922 C   0  0  2  0  0  0  0  0  0  0  0  0
    0.1830    1.8920   -3.6578 H   0  0  0  0  0  0  0  0  0  0  0  0
    1.0539    1.8955   -1.6530 C   0  0  1  0  0  0  0  0  0  0  0  0
    0.3262    2.6813   -1.3987 H   0  0  0  0  0  0  0  0  0  0  0  0
    0.3966    0.7211   -1.1502 O   0  0  0  0  0  0  0  0  0  0  0  0
    1.8387    1.1879   -4.3040 O   0  0  0  0  0  0  0  0  0  0  0  0
    4.5138    3.4357   -2.9255 C   0  0  0  0  0  0  0  0  0  0  0  0
    5.3544    3.3424   -2.0098 O   0  0  0  0  0  0  0  0  0  0  0  0
    4.8498    3.1360   -4.1966 O   0  0  0  0  0  0  0  0  0  0  0  0
    4.6197    0.9565   -0.4842 O   0  0  0  0  0  0  0  0  0  0  0  0
    3.3327    1.7113   -3.3772 H   0  0  0  0  0  0  0  0  0  0  0  0
    3.6619   -0.7697   -2.1779 H   0  0  0  0  0  0  0  0  0  0  0  0
    2.1455   -0.0450   -2.4389 H   0  0  0  0  0  0  0  0  0  0  0  0
    2.3209    5.7181   -2.8211 H   0  0  0  0  0  0  0  0  0  0  0  0
    2.0263    3.5591   -4.6218 H   0  0  0  0  0  0  0  0  0  0  0  0
    0.9585    4.1141   -3.3521 H   0  0  0  0  0  0  0  0  0  0  0  0
    0.9934    0.0007   -0.8816 H   0  0  0  0  0  0  0  0  0  0  0  0
    2.6154    0.5930   -4.1787 H   0  0  0  0  0  0  0  0  0  0  0  0
    4.1292    3.1300   -4.8504 H   0  0  0  0  0  0  0  0  0  0  0  0
    4.9134    1.7997   -0.1173 H   0  0  0  0  0  0  0  0  0  0  0  0
  1  2  1  0  0  0  0
  1 21  1  0  0  0  0
  2 22  1  0  0  0  0
  2 23  1  0  0  0  0
  3  5  1  0  0  0  0
  3 20  1  0  0  0  0
  3  4  1  1  0  0  0
  3  2  1  0  0  0  0
  5  6  1  1  0  0  0
  5  7  1  0  0  0  0
  5 13  1  0  0  0  0
  7  8  1  0  0  0  0
  8 10  1  0  0  0  0
  8 17  1  6  0  0  0
  8  9  1  0  0  0  0
  9 24  1  0  0  0  0
 10 11  1  0  0  0  0
 10 25  1  0  0  0  0
 10 26  1  0  0  0  0
 11 13  1  0  0  0  0
 11 16  1  0  0  0  0
 11 12  1  6  0  0  0
 13 15  1  0  0  0  0
 13 14  1  1  0  0  0
 15 27  1  0  0  0  0
 16 28  1  0  0  0  0
 17 18  2  0  0  0  0
 17 19  1  0  0  0  0
 19 29  1  0  0  0  0
 20 30  1  0  0  0  0
M  END
$$$$
