KEN
 OpenBabel04121316143D

 13 12  0  0  0  0  0  0  0  0999 V2000
    0.9546   -0.0871   -0.0076 C   0  0  0  0  0  0  0  0  0  0  0  0
    2.4171   -0.0643   -0.0108 N   0  0  0  0  0  0  0  0  0  0  0  0
    2.9154    0.4331   -1.2928 C   0  0  0  0  0  0  0  0  0  0  0  0
    2.9154    0.7657    1.0855 C   0  0  0  0  0  0  0  0  0  0  0  0
    0.5779   -0.7386   -0.8039 H   0  0  0  0  0  0  0  0  0  0  0  0
    0.5252    0.9118   -0.1473 H   0  0  0  0  0  0  0  0  0  0  0  0
    0.5779   -0.4952    0.9368 H   0  0  0  0  0  0  0  0  0  0  0  0
    2.5756   -0.2086   -2.1133 H   0  0  0  0  0  0  0  0  0  0  0  0
    4.0107    0.4156   -1.3132 H   0  0  0  0  0  0  0  0  0  0  0  0
    2.5831    1.4579   -1.4961 H   0  0  0  0  0  0  0  0  0  0  0  0
    2.5756    0.3737    2.0505 H   0  0  0  0  0  0  0  0  0  0  0  0
    2.5831    1.8069    0.9999 H   0  0  0  0  0  0  0  0  0  0  0  0
    4.0107    0.7545    1.1099 H   0  0  0  0  0  0  0  0  0  0  0  0
  1  2  1  0  0  0  0
  1  5  1  0  0  0  0
  1  6  1  0  0  0  0
  1  7  1  0  0  0  0
  2  3  1  0  0  0  0
  2  4  1  0  0  0  0
  3  8  1  0  0  0  0
  3  9  1  0  0  0  0
  3 10  1  0  0  0  0
  4 11  1  0  0  0  0
  4 12  1  0  0  0  0
  4 13  1  0  0  0  0
M  END
$$$$
