KFN
 OpenBabel04121316143D

 31 31  0  0  1  0  0  0  0  0999 V2000
    6.1802   -5.3633   -0.8666 O   0  0  0  0  0  0  0  0  0  0  0  0
    5.1481   -5.8839   -0.0463 C   0  0  0  0  0  0  0  0  0  0  0  0
    4.6763   -4.8249    0.9435 C   0  0  2  0  0  0  0  0  0  0  0  0
    4.5608   -5.3400    1.9049 H   0  0  0  0  0  0  0  0  0  0  0  0
    3.3157   -4.1344    0.6756 C   0  0  2  0  0  0  0  0  0  0  0  0
    2.5650   -4.7795    1.1530 H   0  0  0  0  0  0  0  0  0  0  0  0
    2.7644   -3.8733   -0.7589 C   0  0  2  0  0  0  0  0  0  0  0  0
    2.1260   -2.9868   -0.6197 H   0  0  0  0  0  0  0  0  0  0  0  0
    1.8043   -4.9107   -1.0818 O   0  0  0  0  0  0  0  0  0  0  0  0
    2.3096   -6.0458   -1.6892 C   0  0  0  0  0  0  0  0  0  0  0  0
    3.2421   -5.9503   -2.6511 C   0  0  0  0  0  0  0  0  0  0  0  0
    3.8819   -4.6492   -3.0046 C   0  0  1  0  0  0  0  0  0  0  0  0
    3.5079   -4.3587   -3.9921 H   0  0  0  0  0  0  0  0  0  0  0  0
    3.6500   -3.5084   -1.9739 C   0  0  1  0  0  0  0  0  0  0  0  0
    4.5766   -3.0093   -1.6667 H   0  0  0  0  0  0  0  0  0  0  0  0
    2.8960   -2.5221   -2.7369 O   0  0  0  0  0  0  0  0  0  0  0  0
    5.2859   -4.8822   -3.1632 O   0  0  0  0  0  0  0  0  0  0  0  0
    1.9258   -7.3564   -1.0435 C   0  0  0  0  0  0  0  0  0  0  0  0
    1.4003   -7.4048    0.0522 O   0  0  0  0  0  0  0  0  0  0  0  0
    2.3407   -8.4773   -1.6730 O   0  0  0  0  0  0  0  0  0  0  0  0
    3.2213   -2.9103    1.4432 O   0  0  0  0  0  0  0  0  0  0  0  0
    5.7071   -3.8560    1.1622 O   0  0  0  0  0  0  0  0  0  0  0  0
    5.9645   -5.5384   -1.8060 H   0  0  0  0  0  0  0  0  0  0  0  0
    5.5690   -6.7600    0.4455 H   0  0  0  0  0  0  0  0  0  0  0  0
    4.3335   -6.2835   -0.6164 H   0  0  0  0  0  0  0  0  0  0  0  0
    3.6764   -6.8146   -3.1343 H   0  0  0  0  0  0  0  0  0  0  0  0
    2.0411   -2.9408   -2.9525 H   0  0  0  0  0  0  0  0  0  0  0  0
    5.4376   -5.5340   -3.8687 H   0  0  0  0  0  0  0  0  0  0  0  0
    2.7468   -8.3825   -2.5466 H   0  0  0  0  0  0  0  0  0  0  0  0
    3.5507   -3.1045    2.3399 H   0  0  0  0  0  0  0  0  0  0  0  0
    6.5249   -4.2531    0.7996 H   0  0  0  0  0  0  0  0  0  0  0  0
  1  2  1  0  0  0  0
  1 23  1  0  0  0  0
  2 24  1  0  0  0  0
  2 25  1  0  0  0  0
  3 22  1  0  0  0  0
  3  4  1  1  0  0  0
  3  2  1  0  0  0  0
  5 21  1  0  0  0  0
  5  6  1  1  0  0  0
  5  3  1  0  0  0  0
  7  9  1  0  0  0  0
  7 14  1  0  0  0  0
  7  8  1  1  0  0  0
  7  5  1  0  0  0  0
  9 10  1  0  0  0  0
 10 11  2  0  0  0  0
 10 18  1  0  0  0  0
 11 12  1  0  0  0  0
 11 26  1  0  0  0  0
 12 13  1  6  0  0  0
 12 14  1  0  0  0  0
 12 17  1  0  0  0  0
 14 16  1  0  0  0  0
 14 15  1  1  0  0  0
 16 27  1  0  0  0  0
 17 28  1  0  0  0  0
 18 19  2  0  0  0  0
 18 20  1  0  0  0  0
 20 29  1  0  0  0  0
 21 30  1  0  0  0  0
 22 31  1  0  0  0  0
M  END
$$$$
