KIF
 OpenBabel04121316143D

 28 29  0  0  1  0  0  0  0  0999 V2000
    0.9033    0.0536    0.1901 O   0  0  0  0  0  0  0  0  0  0  0  0
    2.3133   -0.0441    0.0319 C   0  0  0  0  0  0  0  0  0  0  0  0
    2.8902    1.2570   -0.5493 C   0  0  2  0  0  0  0  0  0  0  0  0
    3.7127    0.9505   -1.2125 H   0  0  0  0  0  0  0  0  0  0  0  0
    3.5091    2.1061    0.5862 C   0  0  1  0  0  0  0  0  0  0  0  0
    3.4432    1.5754    1.5418 H   0  0  0  0  0  0  0  0  0  0  0  0
    4.9109    2.2415    0.3006 O   0  0  0  0  0  0  0  0  0  0  0  0
    2.9240    3.5066    0.7934 C   0  0  2  0  0  0  0  0  0  0  0  0
    3.6671    4.1137    1.3248 H   0  0  0  0  0  0  0  0  0  0  0  0
    1.7598    3.4971    1.6351 O   0  0  0  0  0  0  0  0  0  0  0  0
    2.5934    4.1898   -0.5379 C   0  0  1  0  0  0  0  0  0  0  0  0
    3.5041    4.3187   -1.1327 H   0  0  0  0  0  0  0  0  0  0  0  0
    1.5844    3.3285   -1.2957 C   0  0  2  0  0  0  0  0  0  0  0  0
    0.6196    3.3449   -0.7675 H   0  0  0  0  0  0  0  0  0  0  0  0
    1.9735    1.9571   -1.4394 N   0  0  0  0  0  0  0  0  0  0  0  0
    1.5261    1.4510   -2.6445 C   0  0  0  0  0  0  0  0  0  0  0  0
    1.7468    0.3632   -3.1377 O   0  0  0  0  0  0  0  0  0  0  0  0
    0.8758    2.6650   -3.3576 C   0  0  0  0  0  0  0  0  0  0  0  0
    0.1757    2.6449   -4.3496 O   0  0  0  0  0  0  0  0  0  0  0  0
    1.3078    3.7522   -2.6326 N   0  0  0  0  0  0  0  0  0  0  0  0
    2.0440    5.4898   -0.2875 O   0  0  0  0  0  0  0  0  0  0  0  0
    0.6000   -0.8380    0.4405 H   0  0  0  0  0  0  0  0  0  0  0  0
    2.5677   -0.8893   -0.6176 H   0  0  0  0  0  0  0  0  0  0  0  0
    2.7342   -0.2673    1.0171 H   0  0  0  0  0  0  0  0  0  0  0  0
    5.0110    2.6760   -0.5653 H   0  0  0  0  0  0  0  0  0  0  0  0
    1.1308    2.8161    1.3333 H   0  0  0  0  0  0  0  0  0  0  0  0
    1.1333    4.7079   -2.9133 H   0  0  0  0  0  0  0  0  0  0  0  0
    1.4038    5.3887    0.4462 H   0  0  0  0  0  0  0  0  0  0  0  0
  1  2  1  0  0  0  0
  1 22  1  0  0  0  0
  2  3  1  0  0  0  0
  2 23  1  0  0  0  0
  2 24  1  0  0  0  0
  3  4  1  6  0  0  0
  3  5  1  0  0  0  0
  3 15  1  0  0  0  0
  5  8  1  0  0  0  0
  5  7  1  0  0  0  0
  5  6  1  1  0  0  0
  7 25  1  0  0  0  0
  8 11  1  0  0  0  0
  8 10  1  0  0  0  0
  8  9  1  1  0  0  0
 10 26  1  0  0  0  0
 11 13  1  0  0  0  0
 11 21  1  0  0  0  0
 11 12  1  6  0  0  0
 13 14  1  1  0  0  0
 13 15  1  0  0  0  0
 13 20  1  0  0  0  0
 15 16  1  0  0  0  0
 16 17  2  0  0  0  0
 16 18  1  0  0  0  0
 18 19  2  0  0  0  0
 18 20  1  0  0  0  0
 20 27  1  0  0  0  0
 21 28  1  0  0  0  0
M  END
$$$$
