KIN
 OpenBabel04121316143D

 41 43  0  0  0  0  0  0  0  0999 V2000
    0.9200    0.3483   -0.0186 O   0  0  0  0  0  0  0  0  0  0  0  0
    2.1323    0.1164    0.0163 C   0  0  0  0  0  0  0  0  0  0  0  0
    2.7061   -1.0809    0.3249 N   0  0  0  0  0  0  0  0  0  0  0  0
    2.0968   -2.2236    0.8219 C   0  0  0  0  0  0  0  0  0  0  0  0
    2.7807   -3.4370    0.6981 C   0  0  0  0  0  0  0  0  0  0  0  0
    2.1318   -4.6237    1.0106 C   0  0  0  0  0  0  0  0  0  0  0  0
    0.7778   -4.5870    1.3376 C   0  0  0  0  0  0  0  0  0  0  0  0
    0.1147   -3.3602    1.4987 C   0  0  0  0  0  0  0  0  0  0  0  0
    0.8230   -2.1768    1.3483 C   0  0  0  0  0  0  0  0  0  0  0  0
   -1.3615   -3.2886    1.7475 C   0  0  0  0  0  0  0  0  0  0  0  0
   -2.0757   -3.8633    0.7409 F   0  0  0  0  0  0  0  0  0  0  0  0
   -1.7205   -3.9306    2.8890 F   0  0  0  0  0  0  0  0  0  0  0  0
   -1.8390   -2.0178    1.8621 F   0  0  0  0  0  0  0  0  0  0  0  0
    2.9931    1.1148   -0.3406 N   0  0  0  0  0  0  0  0  0  0  0  0
    4.3961    1.1689   -0.2799 C   0  0  0  0  0  0  0  0  0  0  0  0
    5.1853    0.2215    0.3892 C   0  0  0  0  0  0  0  0  0  0  0  0
    6.5530    0.3419    0.4915 C   0  0  0  0  0  0  0  0  0  0  0  0
    7.1715    1.4072   -0.1124 C   0  0  0  0  0  0  0  0  0  0  0  0
    6.4207    2.3107   -0.8834 C   0  0  0  0  0  0  0  0  0  0  0  0
    5.0284    2.2379   -0.9068 C   0  0  0  0  0  0  0  0  0  0  0  0
    8.5157    1.4699    0.1624 O   0  0  0  0  0  0  0  0  0  0  0  0
    9.1523    2.5813   -0.2964 C   0  0  0  0  0  0  0  0  0  0  0  0
    8.8211    3.8438    0.1821 C   0  0  0  0  0  0  0  0  0  0  0  0
    9.2747    4.9097   -0.5565 C   0  0  0  0  0  0  0  0  0  0  0  0
   10.1418    4.7842   -1.5865 N   0  0  0  0  0  0  0  0  0  0  0  0
   10.5501    3.5346   -1.9115 C   0  0  0  0  0  0  0  0  0  0  0  0
   10.0482    2.3962   -1.3312 C   0  0  0  0  0  0  0  0  0  0  0  0
    3.5534   -1.2636   -0.1842 H   0  0  0  0  0  0  0  0  0  0  0  0
    3.8005   -3.4726    0.3211 H   0  0  0  0  0  0  0  0  0  0  0  0
    2.6614   -5.5703    0.9461 H   0  0  0  0  0  0  0  0  0  0  0  0
    0.2288   -5.5178    1.4554 H   0  0  0  0  0  0  0  0  0  0  0  0
    0.3421   -1.2239    1.5554 H   0  0  0  0  0  0  0  0  0  0  0  0
    2.4944    1.9345   -0.6685 H   0  0  0  0  0  0  0  0  0  0  0  0
    4.8152   -0.6334    0.9321 H   0  0  0  0  0  0  0  0  0  0  0  0
    7.1113   -0.3862    1.0708 H   0  0  0  0  0  0  0  0  0  0  0  0
    6.8953    3.1007   -1.4583 H   0  0  0  0  0  0  0  0  0  0  0  0
    4.4690    3.0165   -1.4225 H   0  0  0  0  0  0  0  0  0  0  0  0
    8.1380    3.9730    1.0143 H   0  0  0  0  0  0  0  0  0  0  0  0
    8.9147    5.9144   -0.3592 H   0  0  0  0  0  0  0  0  0  0  0  0
   11.3057    3.4707   -2.6858 H   0  0  0  0  0  0  0  0  0  0  0  0
   10.2998    1.4025   -1.6820 H   0  0  0  0  0  0  0  0  0  0  0  0
  1  2  2  0  0  0  0
  2  3  1  0  0  0  0
  2 14  1  0  0  0  0
  3  4  1  0  0  0  0
  3 28  1  0  0  0  0
  4  5  2  0  0  0  0
  4  9  1  0  0  0  0
  5  6  1  0  0  0  0
  5 29  1  0  0  0  0
  6  7  2  0  0  0  0
  6 30  1  0  0  0  0
  7  8  1  0  0  0  0
  7 31  1  0  0  0  0
  8  9  2  0  0  0  0
  8 10  1  0  0  0  0
  9 32  1  0  0  0  0
 10 11  1  0  0  0  0
 10 12  1  0  0  0  0
 10 13  1  0  0  0  0
 14 15  1  0  0  0  0
 14 33  1  0  0  0  0
 15 16  2  0  0  0  0
 15 20  1  0  0  0  0
 16 17  1  0  0  0  0
 16 34  1  0  0  0  0
 17 18  2  0  0  0  0
 17 35  1  0  0  0  0
 18 19  1  0  0  0  0
 18 21  1  0  0  0  0
 19 20  2  0  0  0  0
 19 36  1  0  0  0  0
 20 37  1  0  0  0  0
 21 22  1  0  0  0  0
 22 23  2  0  0  0  0
 22 27  1  0  0  0  0
 23 24  1  0  0  0  0
 23 38  1  0  0  0  0
 24 25  2  0  0  0  0
 24 39  1  0  0  0  0
 25 26  1  0  0  0  0
 26 27  2  0  0  0  0
 26 40  1  0  0  0  0
 27 41  1  0  0  0  0
M  END
$$$$
