KKK
 OpenBabel04121316143D

 64 68  0  0  1  0  0  0  0  0999 V2000
    0.9992    0.1010    0.0831 Cl  0  0  0  0  0  0  0  0  0  0  0  0
    2.7188    0.0580    0.0548 C   0  0  0  0  0  0  0  0  0  0  0  0
    3.4496    1.2377   -0.0107 C   0  0  0  0  0  0  0  0  0  0  0  0
    4.8512    1.1880   -0.0641 C   0  0  0  0  0  0  0  0  0  0  0  0
    5.5436   -0.0453   -0.1707 C   0  0  0  0  0  0  0  0  0  0  0  0
    4.7610   -1.2208   -0.1309 C   0  0  0  0  0  0  0  0  0  0  0  0
    3.3729   -1.1654    0.0527 C   0  0  0  0  0  0  0  0  0  0  0  0
    5.3836   -2.8052   -0.4454 Cl  0  0  0  0  0  0  0  0  0  0  0  0
    7.0446   -0.0417   -0.5449 C   0  0  1  0  0  0  0  0  0  0  0  0
    7.7316    1.0592    0.0812 O   0  0  0  0  0  0  0  0  0  0  0  0
    9.0635    0.5832    0.3318 C   0  0  0  0  0  0  0  0  0  0  0  0
    8.9306   -0.9117    0.5269 C   0  0  1  0  0  0  0  0  0  0  0  0
    8.8199   -1.1560    1.5869 H   0  0  0  0  0  0  0  0  0  0  0  0
    7.7032   -1.2480   -0.1384 O   0  0  0  0  0  0  0  0  0  0  0  0
   10.1077   -1.7103   -0.0584 C   0  0  0  0  0  0  0  0  0  0  0  0
    9.9935   -3.1176    0.1832 O   0  0  0  0  0  0  0  0  0  0  0  0
   10.7838   -3.9252   -0.6024 C   0  0  0  0  0  0  0  0  0  0  0  0
   11.7975   -3.5062   -1.4628 C   0  0  0  0  0  0  0  0  0  0  0  0
   12.4577   -4.4290   -2.2883 C   0  0  0  0  0  0  0  0  0  0  0  0
   12.2258   -5.8052   -2.1892 C   0  0  0  0  0  0  0  0  0  0  0  0
   11.3041   -6.2207   -1.2212 C   0  0  0  0  0  0  0  0  0  0  0  0
   10.5429   -5.2918   -0.4900 C   0  0  0  0  0  0  0  0  0  0  0  0
   12.9034   -6.6805   -3.0099 N   0  0  0  0  0  0  0  0  0  0  0  0
   13.4676   -7.9466   -2.5242 C   0  0  0  0  0  0  0  0  0  0  0  0
   12.7939   -9.1448   -3.2125 C   0  0  0  0  0  0  0  0  0  0  0  0
   12.8235   -9.0066   -4.6777 N   0  0  0  0  0  0  0  0  0  0  0  0
   12.2205   -7.7470   -5.1479 C   0  0  0  0  0  0  0  0  0  0  0  0
   12.8786   -6.5183   -4.4747 C   0  0  0  0  0  0  0  0  0  0  0  0
   13.4595   -9.9679   -5.4318 C   0  0  0  0  0  0  0  0  0  0  0  0
   14.0043  -10.9538   -4.9070 O   0  0  0  0  0  0  0  0  0  0  0  0
   13.5026   -9.8492   -6.9331 C   0  0  0  0  0  0  0  0  0  0  0  0
    7.0520    0.0987   -2.1019 C   0  0  0  0  0  0  0  0  0  0  0  0
    8.3634    0.0858   -2.7128 N   0  0  0  0  0  0  0  0  0  0  0  0
    9.1860    1.1600   -2.8956 C   0  0  0  0  0  0  0  0  0  0  0  0
   10.4068    0.7731   -3.1950 N   0  0  0  0  0  0  0  0  0  0  0  0
   10.3372   -0.5898   -3.3067 C   0  0  0  0  0  0  0  0  0  0  0  0
    9.0558   -1.0356   -3.0690 C   0  0  0  0  0  0  0  0  0  0  0  0
    2.9333    2.1958   -0.0342 H   0  0  0  0  0  0  0  0  0  0  0  0
    5.3965    2.1322   -0.0783 H   0  0  0  0  0  0  0  0  0  0  0  0
    2.8012   -2.0860    0.1431 H   0  0  0  0  0  0  0  0  0  0  0  0
    9.5031    1.0945    1.1918 H   0  0  0  0  0  0  0  0  0  0  0  0
    9.6994    0.8378   -0.5154 H   0  0  0  0  0  0  0  0  0  0  0  0
   11.0664   -1.3468    0.3210 H   0  0  0  0  0  0  0  0  0  0  0  0
   10.0993   -1.5772   -1.1227 H   0  0  0  0  0  0  0  0  0  0  0  0
   12.1127   -2.4705   -1.5214 H   0  0  0  0  0  0  0  0  0  0  0  0
   13.2087   -4.0649   -2.9861 H   0  0  0  0  0  0  0  0  0  0  0  0
   11.1290   -7.2773   -1.0418 H   0  0  0  0  0  0  0  0  0  0  0  0
    9.7565   -5.6419    0.1738 H   0  0  0  0  0  0  0  0  0  0  0  0
   13.4022   -8.0420   -1.4356 H   0  0  0  0  0  0  0  0  0  0  0  0
   14.5358   -7.9444   -2.7777 H   0  0  0  0  0  0  0  0  0  0  0  0
   11.7385   -9.1975   -2.9212 H   0  0  0  0  0  0  0  0  0  0  0  0
   13.2758  -10.0706   -2.8844 H   0  0  0  0  0  0  0  0  0  0  0  0
   11.1571   -7.7948   -4.8832 H   0  0  0  0  0  0  0  0  0  0  0  0
   12.2747   -7.6296   -6.2280 H   0  0  0  0  0  0  0  0  0  0  0  0
   12.3457   -5.6143   -4.7918 H   0  0  0  0  0  0  0  0  0  0  0  0
   13.9136   -6.4316   -4.8270 H   0  0  0  0  0  0  0  0  0  0  0  0
   13.0246   -8.9640   -7.3390 H   0  0  0  0  0  0  0  0  0  0  0  0
   13.0016  -10.7201   -7.3665 H   0  0  0  0  0  0  0  0  0  0  0  0
   14.5486   -9.8376   -7.2546 H   0  0  0  0  0  0  0  0  0  0  0  0
    6.5730    1.0337   -2.4186 H   0  0  0  0  0  0  0  0  0  0  0  0
    6.5006   -0.7314   -2.5617 H   0  0  0  0  0  0  0  0  0  0  0  0
    8.8823    2.1801   -2.6960 H   0  0  0  0  0  0  0  0  0  0  0  0
   11.2243   -1.1946   -3.4439 H   0  0  0  0  0  0  0  0  0  0  0  0
    8.6525   -2.0328   -2.9319 H   0  0  0  0  0  0  0  0  0  0  0  0
  1  2  1  0  0  0  0
  2  3  2  0  0  0  0
  2  7  1  0  0  0  0
  3  4  1  0  0  0  0
  3 38  1  0  0  0  0
  4  5  2  0  0  0  0
  4 39  1  0  0  0  0
  5  6  1  0  0  0  0
  6  7  2  0  0  0  0
  6  8  1  0  0  0  0
  7 40  1  0  0  0  0
  9  5  1  1  0  0  0
  9 10  1  0  0  0  0
  9 14  1  0  0  0  0
  9 32  1  0  0  0  0
 10 11  1  0  0  0  0
 11 12  1  0  0  0  0
 11 41  1  0  0  0  0
 11 42  1  0  0  0  0
 12 13  1  1  0  0  0
 12 14  1  0  0  0  0
 12 15  1  0  0  0  0
 15 16  1  0  0  0  0
 15 43  1  0  0  0  0
 15 44  1  0  0  0  0
 16 17  1  0  0  0  0
 17 18  2  0  0  0  0
 17 22  1  0  0  0  0
 18 19  1  0  0  0  0
 18 45  1  0  0  0  0
 19 20  2  0  0  0  0
 19 46  1  0  0  0  0
 20 21  1  0  0  0  0
 20 23  1  0  0  0  0
 21 22  2  0  0  0  0
 21 47  1  0  0  0  0
 22 48  1  0  0  0  0
 23 24  1  0  0  0  0
 23 28  1  0  0  0  0
 24 25  1  0  0  0  0
 24 49  1  0  0  0  0
 24 50  1  0  0  0  0
 25 26  1  0  0  0  0
 25 51  1  0  0  0  0
 25 52  1  0  0  0  0
 26 27  1  0  0  0  0
 26 29  1  0  0  0  0
 27 28  1  0  0  0  0
 27 53  1  0  0  0  0
 27 54  1  0  0  0  0
 28 55  1  0  0  0  0
 28 56  1  0  0  0  0
 29 30  2  0  0  0  0
 29 31  1  0  0  0  0
 31 57  1  0  0  0  0
 31 58  1  0  0  0  0
 31 59  1  0  0  0  0
 32 33  1  0  0  0  0
 32 60  1  0  0  0  0
 32 61  1  0  0  0  0
 33 34  1  0  0  0  0
 33 37  1  0  0  0  0
 34 35  2  0  0  0  0
 34 62  1  0  0  0  0
 35 36  1  0  0  0  0
 36 37  2  0  0  0  0
 36 63  1  0  0  0  0
 37 64  1  0  0  0  0
M  END
$$$$
