KMH
 OpenBabel04121316143D

 21 20  0  0  1  0  0  0  0  0999 V2000
    1.0394   -0.0190   -0.0791 C   0  0  0  0  0  0  0  0  0  0  0  0
    2.5737   -0.0775   -0.0343 C   0  0  1  0  0  0  0  0  0  0  0  0
    2.9326    0.5427    0.7982 H   0  0  0  0  0  0  0  0  0  0  0  0
    3.0938   -1.5176    0.1476 C   0  0  0  0  0  0  0  0  0  0  0  0
    2.6379   -2.0392    1.4978 C   0  0  0  0  0  0  0  0  0  0  0  0
    2.0945   -1.2712    2.2910 O   0  0  0  0  0  0  0  0  0  0  0  0
    2.9268   -3.4791    1.8610 C   0  0  0  0  0  0  0  0  0  0  0  0
    2.3047   -3.8835    3.1859 C   0  0  0  0  0  0  0  0  0  0  0  0
    1.5747   -3.1976    3.8899 O   0  0  0  0  0  0  0  0  0  0  0  0
    2.5998   -5.1448    3.5713 O   0  0  0  0  0  0  0  0  0  0  0  0
    3.1096    0.4945   -1.2748 N   0  0  0  0  0  0  0  0  0  0  0  0
    0.5719   -0.3998    0.8338 H   0  0  0  0  0  0  0  0  0  0  0  0
    0.6478   -0.6190   -0.9062 H   0  0  0  0  0  0  0  0  0  0  0  0
    0.6886    1.0117   -0.1882 H   0  0  0  0  0  0  0  0  0  0  0  0
    4.1911   -1.5298    0.1361 H   0  0  0  0  0  0  0  0  0  0  0  0
    2.7287   -2.1663   -0.6566 H   0  0  0  0  0  0  0  0  0  0  0  0
    4.0151   -3.5881    1.9251 H   0  0  0  0  0  0  0  0  0  0  0  0
    2.5376   -4.1328    1.0718 H   0  0  0  0  0  0  0  0  0  0  0  0
    3.1698   -5.6601    2.9766 H   0  0  0  0  0  0  0  0  0  0  0  0
    2.7585    1.4505   -1.3649 H   0  0  0  0  0  0  0  0  0  0  0  0
    2.7297   -0.0080   -2.0755 H   0  0  0  0  0  0  0  0  0  0  0  0
  1  2  1  0  0  0  0
  1 12  1  0  0  0  0
  1 13  1  0  0  0  0
  1 14  1  0  0  0  0
  2  3  1  1  0  0  0
  2  4  1  0  0  0  0
  2 11  1  0  0  0  0
  4  5  1  0  0  0  0
  4 15  1  0  0  0  0
  4 16  1  0  0  0  0
  5  6  2  0  0  0  0
  5  7  1  0  0  0  0
  7  8  1  0  0  0  0
  7 17  1  0  0  0  0
  7 18  1  0  0  0  0
  8  9  2  0  0  0  0
  8 10  1  0  0  0  0
 10 19  1  0  0  0  0
 11 20  1  0  0  0  0
 11 21  1  0  0  0  0
M  END
$$$$
