KO2
 OpenBabel04121316143D

 38 38  0  0  1  0  0  0  0  0999 V2000
    0.9065   -0.0717   -0.0751 C   0  0  0  0  0  0  0  0  0  0  0  0
    2.2440   -0.0564   -0.1275 C   0  0  0  0  0  0  0  0  0  0  0  0
    2.9374    1.1032   -0.7399 C   0  0  0  0  0  0  0  0  0  0  0  0
    4.3172    0.9817   -0.5630 O   0  0  0  0  0  0  0  0  0  0  0  0
    5.1481    1.9933   -1.1561 C   0  0  1  0  0  0  0  0  0  0  0  0
    4.5778    2.9416   -2.0895 O   0  0  0  0  0  0  0  0  0  0  0  0
    3.6863    3.9372   -1.5973 C   0  0  2  0  0  0  0  0  0  0  0  0
    2.7682    3.4639   -1.2600 H   0  0  0  0  0  0  0  0  0  0  0  0
    3.2182    4.8752   -2.7277 C   0  0  1  0  0  0  0  0  0  0  0  0
    4.0626    5.4410   -3.1335 H   0  0  0  0  0  0  0  0  0  0  0  0
    2.5768    4.0990   -3.8872 C   0  0  0  0  0  0  0  0  0  0  0  0
    3.4703    3.2114   -4.5389 O   0  0  0  0  0  0  0  0  0  0  0  0
    2.2425    5.7951   -2.2217 O   0  0  0  0  0  0  0  0  0  0  0  0
    4.2788    4.7041   -0.4118 C   0  0  1  0  0  0  0  0  0  0  0  0
    3.5193    5.3462    0.0465 H   0  0  0  0  0  0  0  0  0  0  0  0
    4.7806    3.6997    0.6376 C   0  0  1  0  0  0  0  0  0  0  0  0
    3.9251    3.1400    1.0305 H   0  0  0  0  0  0  0  0  0  0  0  0
    5.8185    2.7149    0.0327 C   0  0  2  0  0  0  0  0  0  0  0  0
    6.1160    2.0029    0.8119 H   0  0  0  0  0  0  0  0  0  0  0  0
    7.0010    3.4263   -0.3510 O   0  0  0  0  0  0  0  0  0  0  0  0
    5.3332    4.4018    1.7578 O   0  0  0  0  0  0  0  0  0  0  0  0
    5.3538    5.5640   -0.7989 O   0  0  0  0  0  0  0  0  0  0  0  0
    6.1066    1.1709   -2.0883 C   0  0  0  0  0  0  0  0  0  0  0  0
    6.0797   -0.0412   -2.2285 O   0  0  0  0  0  0  0  0  0  0  0  0
    6.9217    1.9368   -2.8710 O   0  0  0  0  0  0  0  0  0  0  0  0
    0.3679   -0.8923    0.3791 H   0  0  0  0  0  0  0  0  0  0  0  0
    0.3316    0.7479   -0.5003 H   0  0  0  0  0  0  0  0  0  0  0  0
    2.8363   -0.8599    0.3015 H   0  0  0  0  0  0  0  0  0  0  0  0
    2.6016    1.9616   -0.1593 H   0  0  0  0  0  0  0  0  0  0  0  0
    2.6906    1.1920   -1.8006 H   0  0  0  0  0  0  0  0  0  0  0  0
    2.1917    4.8013   -4.6322 H   0  0  0  0  0  0  0  0  0  0  0  0
    1.7210    3.5195   -3.5237 H   0  0  0  0  0  0  0  0  0  0  0  0
    4.3032    3.6787   -4.7194 H   0  0  0  0  0  0  0  0  0  0  0  0
    2.6389    6.3642   -1.5410 H   0  0  0  0  0  0  0  0  0  0  0  0
    7.1859    4.0228    0.4063 H   0  0  0  0  0  0  0  0  0  0  0  0
    4.6562    5.0376    2.0583 H   0  0  0  0  0  0  0  0  0  0  0  0
    5.1040    6.1232   -1.5504 H   0  0  0  0  0  0  0  0  0  0  0  0
    6.8044    2.8841   -2.6596 H   0  0  0  0  0  0  0  0  0  0  0  0
  1  2  2  0  0  0  0
  1 26  1  0  0  0  0
  1 27  1  0  0  0  0
  2  3  1  0  0  0  0
  2 28  1  0  0  0  0
  3  4  1  0  0  0  0
  3 29  1  0  0  0  0
  3 30  1  0  0  0  0
  5  4  1  1  0  0  0
  5  6  1  0  0  0  0
  5 18  1  0  0  0  0
  5 23  1  0  0  0  0
  6  7  1  0  0  0  0
  7  8  1  1  0  0  0
  7  9  1  0  0  0  0
  7 14  1  0  0  0  0
  9 10  1  6  0  0  0
  9 11  1  0  0  0  0
  9 13  1  0  0  0  0
 11 12  1  0  0  0  0
 11 31  1  0  0  0  0
 11 32  1  0  0  0  0
 12 33  1  0  0  0  0
 13 34  1  0  0  0  0
 14 15  1  1  0  0  0
 14 16  1  0  0  0  0
 14 22  1  0  0  0  0
 16 17  1  1  0  0  0
 16 18  1  0  0  0  0
 16 21  1  0  0  0  0
 18 19  1  1  0  0  0
 18 20  1  0  0  0  0
 20 35  1  0  0  0  0
 21 36  1  0  0  0  0
 22 37  1  0  0  0  0
 23 24  2  0  0  0  0
 23 25  1  0  0  0  0
 25 38  1  0  0  0  0
M  END
$$$$
