KOU
 OpenBabel04121316143D

 37 37  0  0  1  0  0  0  0  0999 V2000
    1.0207   -0.0665   -0.0155 O   0  0  0  0  0  0  0  0  0  0  0  0
    2.4500   -0.0455   -0.0529 C   0  0  0  0  0  0  0  0  0  0  0  0
    2.9827   -1.2721   -0.7850 C   0  0  1  0  0  0  0  0  0  0  0  0
    2.6052   -2.1828   -0.3163 H   0  0  0  0  0  0  0  0  0  0  0  0
    2.5000   -1.2928   -2.2460 C   0  0  0  0  0  0  0  0  0  0  0  0
    3.2097   -1.3567   -3.2298 O   0  0  0  0  0  0  0  0  0  0  0  0
    1.1438   -1.3528   -2.3508 O   0  0  0  0  0  0  0  0  0  0  0  0
    4.4524   -1.2183   -0.6910 N   0  0  0  0  0  0  0  0  0  0  0  0
    5.0524   -2.2152   -1.2389 C   0  0  0  0  0  0  0  0  0  0  0  0
    6.5073   -2.2850   -1.1996 C   0  0  0  0  0  0  0  0  0  0  0  0
    7.1523   -2.8569   -0.0964 C   0  0  0  0  0  0  0  0  0  0  0  0
    8.5410   -2.8406   -0.1819 C   0  0  0  0  0  0  0  0  0  0  0  0
    9.2641   -2.3137   -1.2086 N   0  0  0  0  0  0  0  0  0  0  0  0
    8.5945   -1.7517   -2.2454 C   0  0  0  0  0  0  0  0  0  0  0  0
    7.2077   -1.7291   -2.2839 C   0  0  0  0  0  0  0  0  0  0  0  0
    6.5052   -1.1955   -3.3280 O   0  0  0  0  0  0  0  0  0  0  0  0
    9.4246   -1.1574   -3.3475 C   0  0  0  0  0  0  0  0  0  0  0  0
    6.4928   -3.4696    1.1373 C   0  0  0  0  0  0  0  0  0  0  0  0
    5.1148   -3.1923    1.2516 O   0  0  0  0  0  0  0  0  0  0  0  0
    3.9565   -4.1485    1.7827 P   0  0  0  0  0  0  0  0  0  0  0  0
    2.5752   -3.6964    1.4546 O   0  0  0  0  0  0  0  0  0  0  0  0
    4.3317   -5.6113    1.2823 O   0  0  0  0  0  0  0  0  0  0  0  0
    4.1598   -4.2528    3.3617 O   0  0  0  0  0  0  0  0  0  0  0  0
    0.7622    0.7506    0.4529 H   0  0  0  0  0  0  0  0  0  0  0  0
    2.8179   -0.0274    0.9810 H   0  0  0  0  0  0  0  0  0  0  0  0
    2.7785    0.8750   -0.5471 H   0  0  0  0  0  0  0  0  0  0  0  0
    0.7128   -1.2199   -1.4743 H   0  0  0  0  0  0  0  0  0  0  0  0
    4.5365   -3.0560   -1.7372 H   0  0  0  0  0  0  0  0  0  0  0  0
    9.1555   -3.2613    0.6108 H   0  0  0  0  0  0  0  0  0  0  0  0
    7.0851   -0.7734   -3.9811 H   0  0  0  0  0  0  0  0  0  0  0  0
   10.4943   -1.2684   -3.1449 H   0  0  0  0  0  0  0  0  0  0  0  0
    9.2120   -0.0874   -3.4502 H   0  0  0  0  0  0  0  0  0  0  0  0
    9.2071   -1.6565   -4.2976 H   0  0  0  0  0  0  0  0  0  0  0  0
    6.9702   -3.0220    2.0139 H   0  0  0  0  0  0  0  0  0  0  0  0
    6.6936   -4.5467    1.1397 H   0  0  0  0  0  0  0  0  0  0  0  0
    4.7935   -5.6124    0.4285 H   0  0  0  0  0  0  0  0  0  0  0  0
    3.2790   -4.1520    3.7809 H   0  0  0  0  0  0  0  0  0  0  0  0
  1  2  1  0  0  0  0
  1 24  1  0  0  0  0
  2  3  1  0  0  0  0
  2 25  1  0  0  0  0
  2 26  1  0  0  0  0
  3  4  1  1  0  0  0
  3  5  1  0  0  0  0
  3  8  1  0  0  0  0
  5  6  2  0  0  0  0
  5  7  1  0  0  0  0
  7 27  1  0  0  0  0
  8  9  2  0  0  0  0
  9 10  1  0  0  0  0
  9 28  1  0  0  0  0
 10 11  2  0  0  0  0
 10 15  1  0  0  0  0
 11 12  1  0  0  0  0
 11 18  1  0  0  0  0
 12 13  2  0  0  0  0
 12 29  1  0  0  0  0
 13 14  1  0  0  0  0
 14 15  2  0  0  0  0
 14 17  1  0  0  0  0
 15 16  1  0  0  0  0
 16 30  1  0  0  0  0
 17 31  1  0  0  0  0
 17 32  1  0  0  0  0
 17 33  1  0  0  0  0
 18 19  1  0  0  0  0
 18 34  1  0  0  0  0
 18 35  1  0  0  0  0
 19 20  1  0  0  0  0
 20 21  2  0  0  0  0
 20 22  1  0  0  0  0
 20 23  1  0  0  0  0
 22 36  1  0  0  0  0
 23 37  1  0  0  0  0
M  END
$$$$
