KPA
 OpenBabel04121316143D

 21 20  0  0  0  0  0  0  0  0999 V2000
    1.0878    0.0139    0.1793 O   0  0  0  0  0  0  0  0  0  0  0  0
    2.4213    0.1256    0.1198 C   0  0  0  0  0  0  0  0  0  0  0  0
    3.0790    1.0270    0.6179 O   0  0  0  0  0  0  0  0  0  0  0  0
    3.0869   -0.9982   -0.6595 C   0  0  0  0  0  0  0  0  0  0  0  0
    2.3694   -1.8233   -1.2154 O   0  0  0  0  0  0  0  0  0  0  0  0
    4.6013   -0.9762   -0.6632 C   0  0  0  0  0  0  0  0  0  0  0  0
    5.1382   -2.1363   -1.4654 C   0  0  0  0  0  0  0  0  0  0  0  0
    6.6747   -2.1761   -1.5172 C   0  0  0  0  0  0  0  0  0  0  0  0
    7.2847   -3.5928   -2.5021 P   0  0  0  0  0  0  0  0  0  0  0  0
    6.4573   -4.5583   -1.6613 O   0  0  0  0  0  0  0  0  0  0  0  0
    6.4608   -3.1210   -3.8292 O   0  0  0  0  0  0  0  0  0  0  0  0
    7.8614   -4.9320   -3.4331 O   0  0  0  0  0  0  0  0  0  0  0  0
    0.7873   -0.8631   -0.1510 H   0  0  0  0  0  0  0  0  0  0  0  0
    4.9604   -1.0449    0.3682 H   0  0  0  0  0  0  0  0  0  0  0  0
    4.9446   -0.0353   -1.1058 H   0  0  0  0  0  0  0  0  0  0  0  0
    4.7158   -2.0860   -2.4742 H   0  0  0  0  0  0  0  0  0  0  0  0
    4.7536   -3.0711   -1.0412 H   0  0  0  0  0  0  0  0  0  0  0  0
    7.0770   -2.2668   -0.5015 H   0  0  0  0  0  0  0  0  0  0  0  0
    7.0757   -1.2517   -1.9467 H   0  0  0  0  0  0  0  0  0  0  0  0
    6.0592   -2.2373   -3.8508 H   0  0  0  0  0  0  0  0  0  0  0  0
    8.1606   -5.6258   -2.8168 H   0  0  0  0  0  0  0  0  0  0  0  0
  1  2  1  0  0  0  0
  1 13  1  0  0  0  0
  2  3  2  0  0  0  0
  2  4  1  0  0  0  0
  4  5  2  0  0  0  0
  4  6  1  0  0  0  0
  6  7  1  0  0  0  0
  6 14  1  0  0  0  0
  6 15  1  0  0  0  0
  7  8  1  0  0  0  0
  7 16  1  0  0  0  0
  7 17  1  0  0  0  0
  8  9  1  0  0  0  0
  8 18  1  0  0  0  0
  8 19  1  0  0  0  0
  9 10  2  0  0  0  0
  9 11  1  0  0  0  0
  9 12  1  0  0  0  0
 11 20  1  0  0  0  0
 12 21  1  0  0  0  0
M  END
$$$$
