KRV
 OpenBabel04121316143D

 43 44  0  0  0  0  0  0  0  0999 V2000
    0.7111    0.0674    0.0844 N   0  0  0  0  0  0  0  0  0  0  0  0
    1.8527    0.4662   -0.0378 C   0  0  0  0  0  0  0  0  0  0  0  0
    3.2703    0.6595   -0.2771 C   0  0  0  0  0  0  0  0  0  0  0  0
    4.1107    1.6485    0.0901 C   0  0  0  0  0  0  0  0  0  0  0  0
    5.5725    1.5115    0.0808 C   0  0  0  0  0  0  0  0  0  0  0  0
    6.3861    2.7312    0.1161 C   0  0  0  0  0  0  0  0  0  0  0  0
    6.3559    0.4005   -0.1679 C   0  0  0  0  0  0  0  0  0  0  0  0
    5.6327   -0.6082   -0.7026 C   0  0  0  0  0  0  0  0  0  0  0  0
    4.0347   -0.3298   -0.8655 C   0  0  0  0  0  0  0  0  0  0  0  0
    6.4957   -2.0717   -0.2837 C   0  0  0  0  0  0  0  0  0  0  0  0
    7.5867   -1.7202    0.1824 O   0  0  0  0  0  0  0  0  0  0  0  0
    5.7982   -3.7706   -0.0806 C   0  0  0  0  0  0  0  0  0  0  0  0
    6.5709   -4.9428    0.0323 N   0  0  0  0  0  0  0  0  0  0  0  0
    8.0241   -4.9991    0.0689 C   0  0  0  0  0  0  0  0  0  0  0  0
    8.7111   -3.6965    0.0856 C   0  0  0  0  0  0  0  0  0  0  0  0
    5.9783   -6.2252    0.0813 C   0  0  0  0  0  0  0  0  0  0  0  0
    6.6206   -7.2737    0.0889 O   0  0  0  0  0  0  0  0  0  0  0  0
    4.6203   -6.3190    0.0917 N   0  0  0  0  0  0  0  0  0  0  0  0
    4.1753   -7.2201    0.0915 H   0  0  0  0  0  0  0  0  0  0  0  0
    3.7745   -5.2944    0.0902 C   0  0  0  0  0  0  0  0  0  0  0  0
    2.5554   -5.4093    0.0592 O   0  0  0  0  0  0  0  0  0  0  0  0
    4.4381   -4.0123    0.1076 C   0  0  0  0  0  0  0  0  0  0  0  0
    3.3610   -3.0029    0.3245 C   0  0  0  0  0  0  0  0  0  0  0  0
    2.4967   -2.7766    1.5043 C   0  0  0  0  0  0  0  0  0  0  0  0
    4.3647   -2.0450    0.6943 C   0  0  0  0  0  0  0  0  0  0  0  0
    3.6518    2.6077    0.2352 H   0  0  0  0  0  0  0  0  0  0  0  0
    5.6731    3.5421    0.0898 H   0  0  0  0  0  0  0  0  0  0  0  0
    6.9849    2.7091   -0.8048 H   0  0  0  0  0  0  0  0  0  0  0  0
    7.0010    2.6976    1.0112 H   0  0  0  0  0  0  0  0  0  0  0  0
    7.4368    0.3610    0.0566 H   0  0  0  0  0  0  0  0  0  0  0  0
    3.2659   -1.1136   -0.8403 H   0  0  0  0  0  0  0  0  0  0  0  0
    8.3380   -5.5301   -0.8277 H   0  0  0  0  0  0  0  0  0  0  0  0
    8.3217   -5.5295    0.9788 H   0  0  0  0  0  0  0  0  0  0  0  0
    8.4034   -3.2348   -0.8656 H   0  0  0  0  0  0  0  0  0  0  0  0
    9.7863   -3.5880    0.0888 H   0  0  0  0  0  0  0  0  0  0  0  0
    8.3876   -3.2618    1.0459 H   0  0  0  0  0  0  0  0  0  0  0  0
    2.8396   -2.8880   -0.6568 H   0  0  0  0  0  0  0  0  0  0  0  0
    3.1321   -2.7070    2.3939 H   0  0  0  0  0  0  0  0  0  0  0  0
    1.7584   -3.5489    1.5798 H   0  0  0  0  0  0  0  0  0  0  0  0
    2.0098   -1.7989    1.4173 H   0  0  0  0  0  0  0  0  0  0  0  0
    5.0659   -2.2969    1.4974 H   0  0  0  0  0  0  0  0  0  0  0  0
    4.2531   -1.0390    1.0765 H   0  0  0  0  0  0  0  0  0  0  0  0
    4.6255   -2.1465   -0.4488 H   0  0  0  0  0  0  0  0  0  0  0  0
  1  2  3  0  0  0  0
  2  3  1  0  0  0  0
  3  4  2  0  0  0  0
  3  9  1  0  0  0  0
  4  5  1  0  0  0  0
  4 26  1  0  0  0  0
  5  6  1  0  0  0  0
  5  7  2  0  0  0  0
  6 27  1  0  0  0  0
  6 28  1  0  0  0  0
  6 29  1  0  0  0  0
  7  8  1  0  0  0  0
  7 30  1  0  0  0  0
  8  9  2  0  0  0  0
  8 10  1  0  0  0  0
  9 31  1  0  0  0  0
 10 11  2  0  0  0  0
 10 12  1  0  0  0  0
 12 13  1  0  0  0  0
 12 22  2  0  0  0  0
 13 14  1  0  0  0  0
 13 16  1  0  0  0  0
 14 15  1  0  0  0  0
 14 32  1  0  0  0  0
 14 33  1  0  0  0  0
 15 34  1  0  0  0  0
 15 35  1  0  0  0  0
 15 36  1  0  0  0  0
 16 17  2  0  0  0  0
 16 18  1  0  0  0  0
 18 19  1  0  0  0  0
 18 20  1  0  0  0  0
 20 21  2  0  0  0  0
 20 22  1  0  0  0  0
 22 23  1  0  0  0  0
 23 24  1  0  0  0  0
 23 25  1  0  0  0  0
 23 37  1  0  0  0  0
 24 38  1  0  0  0  0
 24 39  1  0  0  0  0
 24 40  1  0  0  0  0
 25 41  1  0  0  0  0
 25 42  1  0  0  0  0
 25 43  1  0  0  0  0
M  END
$$$$
