KS5
 OpenBabel04121316143D

 39 42  0  0  0  0  0  0  0  0999 V2000
    0.9948    0.0794   -0.0919 C   0  0  0  0  0  0  0  0  0  0  0  0
    2.5208   -0.0469   -0.1062 C   0  0  0  0  0  0  0  0  0  0  0  0
    2.9688   -1.4246   -0.3378 N   0  0  0  0  0  0  0  0  0  0  0  0
    4.1481   -1.6413   -0.9615 N   0  0  0  0  0  0  0  0  0  0  0  0
    4.2422   -2.9779   -1.0528 C   0  0  0  0  0  0  0  0  0  0  0  0
    3.0864   -3.6387   -0.4854 C   0  0  0  0  0  0  0  0  0  0  0  0
    2.3328   -2.5913    0.0204 C   0  0  0  0  0  0  0  0  0  0  0  0
    1.1840   -2.7071    0.7081 N   0  0  0  0  0  0  0  0  0  0  0  0
    0.8019   -3.9760    0.8667 C   0  0  0  0  0  0  0  0  0  0  0  0
    1.4271   -5.0769    0.4397 N   0  0  0  0  0  0  0  0  0  0  0  0
    2.5652   -4.9451   -0.2647 C   0  0  0  0  0  0  0  0  0  0  0  0
    3.0910   -6.1646   -0.6514 N   0  0  0  0  0  0  0  0  0  0  0  0
    5.4171   -3.5971   -1.6677 C   0  0  0  0  0  0  0  0  0  0  0  0
    6.3711   -2.9412   -2.4305 C   0  0  0  0  0  0  0  0  0  0  0  0
    7.3855   -3.6955   -3.0580 C   0  0  0  0  0  0  0  0  0  0  0  0
    7.3787   -5.0985   -3.0455 C   0  0  0  0  0  0  0  0  0  0  0  0
    6.4171   -5.7287   -2.2707 C   0  0  0  0  0  0  0  0  0  0  0  0
    5.5980   -4.9543   -1.4633 C   0  0  0  0  0  0  0  0  0  0  0  0
    6.2393   -7.1202   -2.3253 C   0  0  0  0  0  0  0  0  0  0  0  0
    7.0086   -7.8409   -3.2173 C   0  0  0  0  0  0  0  0  0  0  0  0
    8.0544   -7.1735   -3.8201 C   0  0  0  0  0  0  0  0  0  0  0  0
    8.2644   -5.8337   -3.7481 N   0  0  0  0  0  0  0  0  0  0  0  0
    3.0620    0.9379   -1.1584 C   0  0  0  0  0  0  0  0  0  0  0  0
    0.5476   -0.4916    0.7243 H   0  0  0  0  0  0  0  0  0  0  0  0
    0.5738   -0.2840   -1.0365 H   0  0  0  0  0  0  0  0  0  0  0  0
    0.6762    1.1141    0.0586 H   0  0  0  0  0  0  0  0  0  0  0  0
    2.9217    0.2365    0.8761 H   0  0  0  0  0  0  0  0  0  0  0  0
   -0.1326   -4.1425    1.3898 H   0  0  0  0  0  0  0  0  0  0  0  0
    2.5882   -6.9736   -0.3129 H   0  0  0  0  0  0  0  0  0  0  0  0
    3.6037   -6.2597   -1.5138 H   0  0  0  0  0  0  0  0  0  0  0  0
    6.3685   -1.8553   -2.5143 H   0  0  0  0  0  0  0  0  0  0  0  0
    8.1727   -3.1854   -3.6006 H   0  0  0  0  0  0  0  0  0  0  0  0
    5.1046   -5.4181   -0.6325 H   0  0  0  0  0  0  0  0  0  0  0  0
    5.4815   -7.6297   -1.7379 H   0  0  0  0  0  0  0  0  0  0  0  0
    6.8043   -8.8858   -3.4217 H   0  0  0  0  0  0  0  0  0  0  0  0
    8.7856   -7.7193   -4.4086 H   0  0  0  0  0  0  0  0  0  0  0  0
    2.7309    0.6549   -2.1645 H   0  0  0  0  0  0  0  0  0  0  0  0
    4.1568    0.9716   -1.1635 H   0  0  0  0  0  0  0  0  0  0  0  0
    2.7081    1.9566   -0.9622 H   0  0  0  0  0  0  0  0  0  0  0  0
  1  2  1  0  0  0  0
  1 24  1  0  0  0  0
  1 25  1  0  0  0  0
  1 26  1  0  0  0  0
  2  3  1  0  0  0  0
  2 23  1  0  0  0  0
  2 27  1  0  0  0  0
  3  4  1  0  0  0  0
  3  7  1  0  0  0  0
  4  5  2  0  0  0  0
  5  6  1  0  0  0  0
  5 13  1  0  0  0  0
  6  7  2  0  0  0  0
  6 11  1  0  0  0  0
  7  8  1  0  0  0  0
  8  9  2  0  0  0  0
  9 10  1  0  0  0  0
  9 28  1  0  0  0  0
 10 11  2  0  0  0  0
 11 12  1  0  0  0  0
 12 29  1  0  0  0  0
 12 30  1  0  0  0  0
 13 14  2  0  0  0  0
 13 18  1  0  0  0  0
 14 15  1  0  0  0  0
 14 31  1  0  0  0  0
 15 16  2  0  0  0  0
 15 32  1  0  0  0  0
 16 17  1  0  0  0  0
 16 22  1  0  0  0  0
 17 18  2  0  0  0  0
 17 19  1  0  0  0  0
 18 33  1  0  0  0  0
 19 20  2  0  0  0  0
 19 34  1  0  0  0  0
 20 21  1  0  0  0  0
 20 35  1  0  0  0  0
 21 22  2  0  0  0  0
 21 36  1  0  0  0  0
 23 37  1  0  0  0  0
 23 38  1  0  0  0  0
 23 39  1  0  0  0  0
M  END
$$$$
