KSS
 OpenBabel04121316143D

 39 41  0  0  0  0  0  0  0  0999 V2000
    1.0489   -0.0623    0.1021 C   0  0  0  0  0  0  0  0  0  0  0  0
    2.5744   -0.0859    0.1252 C   0  0  0  0  0  0  0  0  0  0  0  0
    3.1277   -0.8376    1.6841 S   0  0  0  0  0  0  0  0  0  0  0  0
    4.8854   -0.7802    1.5880 C   0  0  0  0  0  0  0  0  0  0  0  0
    5.5292   -1.9152    1.6682 N   0  0  0  0  0  0  0  0  0  0  0  0
    6.9225   -1.8988    1.7001 C   0  0  0  0  0  0  0  0  0  0  0  0
    7.6321   -0.7497    1.6426 C   0  0  0  0  0  0  0  0  0  0  0  0
    6.9583    0.4756    1.5479 C   0  0  0  0  0  0  0  0  0  0  0  0
    5.5847    0.4340    1.5335 N   0  0  0  0  0  0  0  0  0  0  0  0
    5.1639    1.7433    1.4975 C   0  0  0  0  0  0  0  0  0  0  0  0
    6.3119    2.5002    1.4477 C   0  0  0  0  0  0  0  0  0  0  0  0
    7.4217    1.7057    1.4802 N   0  0  0  0  0  0  0  0  0  0  0  0
    7.6535   -3.2079    1.7789 C   0  0  0  0  0  0  0  0  0  0  0  0
    9.0490   -3.3044    1.6593 C   0  0  0  0  0  0  0  0  0  0  0  0
    9.7081   -4.5333    1.6616 C   0  0  0  0  0  0  0  0  0  0  0  0
    8.9827   -5.7200    1.6615 C   0  0  0  0  0  0  0  0  0  0  0  0
    7.5862   -5.6613    1.8041 C   0  0  0  0  0  0  0  0  0  0  0  0
    6.9478   -4.4128    1.9320 C   0  0  0  0  0  0  0  0  0  0  0  0
    6.9261   -6.8668    1.7847 O   0  0  0  0  0  0  0  0  0  0  0  0
    5.5084   -6.8163    1.8566 C   0  0  0  0  0  0  0  0  0  0  0  0
    9.5539   -6.9598    1.5131 O   0  0  0  0  0  0  0  0  0  0  0  0
   10.9616   -6.9852    1.3048 C   0  0  0  0  0  0  0  0  0  0  0  0
    0.6877    0.3996   -0.8236 H   0  0  0  0  0  0  0  0  0  0  0  0
    0.6411    0.5223    0.9355 H   0  0  0  0  0  0  0  0  0  0  0  0
    0.6285   -1.0726    0.1507 H   0  0  0  0  0  0  0  0  0  0  0  0
    2.9337    0.9411    0.0296 H   0  0  0  0  0  0  0  0  0  0  0  0
    2.9506   -0.6574   -0.7282 H   0  0  0  0  0  0  0  0  0  0  0  0
    8.7084   -0.6914    1.6667 H   0  0  0  0  0  0  0  0  0  0  0  0
    4.1252    2.0297    1.5160 H   0  0  0  0  0  0  0  0  0  0  0  0
    6.3987    3.5782    1.4014 H   0  0  0  0  0  0  0  0  0  0  0  0
    9.6835   -2.4329    1.5411 H   0  0  0  0  0  0  0  0  0  0  0  0
   10.7918   -4.5169    1.6297 H   0  0  0  0  0  0  0  0  0  0  0  0
    5.8816   -4.3584    2.1293 H   0  0  0  0  0  0  0  0  0  0  0  0
    5.1246   -7.8340    1.7435 H   0  0  0  0  0  0  0  0  0  0  0  0
    5.0846   -6.2116    1.0468 H   0  0  0  0  0  0  0  0  0  0  0  0
    5.1941   -6.4449    2.8368 H   0  0  0  0  0  0  0  0  0  0  0  0
   11.2667   -8.0204    1.1317 H   0  0  0  0  0  0  0  0  0  0  0  0
   11.4846   -6.6258    2.1974 H   0  0  0  0  0  0  0  0  0  0  0  0
   11.2489   -6.4041    0.4202 H   0  0  0  0  0  0  0  0  0  0  0  0
  1  2  1  0  0  0  0
  1 23  1  0  0  0  0
  1 24  1  0  0  0  0
  1 25  1  0  0  0  0
  2  3  1  0  0  0  0
  2 26  1  0  0  0  0
  2 27  1  0  0  0  0
  3  4  1  0  0  0  0
  4  5  2  0  0  0  0
  4  9  1  0  0  0  0
  5  6  1  0  0  0  0
  6  7  2  0  0  0  0
  6 13  1  0  0  0  0
  7  8  1  0  0  0  0
  7 28  1  0  0  0  0
  8  9  1  0  0  0  0
  8 12  2  0  0  0  0
  9 10  1  0  0  0  0
 10 11  2  0  0  0  0
 10 29  1  0  0  0  0
 11 12  1  0  0  0  0
 11 30  1  0  0  0  0
 13 14  2  0  0  0  0
 13 18  1  0  0  0  0
 14 15  1  0  0  0  0
 14 31  1  0  0  0  0
 15 16  2  0  0  0  0
 15 32  1  0  0  0  0
 16 17  1  0  0  0  0
 16 21  1  0  0  0  0
 17 18  2  0  0  0  0
 17 19  1  0  0  0  0
 18 33  1  0  0  0  0
 19 20  1  0  0  0  0
 20 34  1  0  0  0  0
 20 35  1  0  0  0  0
 20 36  1  0  0  0  0
 21 22  1  0  0  0  0
 22 37  1  0  0  0  0
 22 38  1  0  0  0  0
 22 39  1  0  0  0  0
M  END
$$$$
