KT5
 OpenBabel04121316143D

128129  0  0  1  0  0  0  0  0999 V2000
    0.9019    0.0266   -0.1513 O   0  0  0  0  0  0  0  0  0  0  0  0
    2.1278    0.1047   -0.0751 C   0  0  0  0  0  0  0  0  0  0  0  0
    2.7924    1.2655   -0.3110 N   0  0  0  0  0  0  0  0  0  0  0  0
    2.0671    2.4633   -0.6867 C   0  0  1  0  0  0  0  0  0  0  0  0
    1.4134    2.2271   -1.5357 H   0  0  0  0  0  0  0  0  0  0  0  0
    1.2326    2.9515    0.5228 C   0  0  0  0  0  0  0  0  0  0  0  0
    1.4383    4.0016    1.1191 O   0  0  0  0  0  0  0  0  0  0  0  0
    0.2250    2.1364    0.8974 O   0  0  0  0  0  0  0  0  0  0  0  0
    3.0698    3.5318   -1.0982 C   0  0  0  0  0  0  0  0  0  0  0  0
    2.3732    4.8145   -1.5400 C   0  0  0  0  0  0  0  0  0  0  0  0
    3.4115    5.8605   -1.7797 C   0  0  0  0  0  0  0  0  0  0  0  0
    4.6142    5.6716   -1.6056 O   0  0  0  0  0  0  0  0  0  0  0  0
    2.9394    7.0362   -2.2882 N   0  0  0  0  0  0  0  0  0  0  0  0
    3.8750    8.1007   -2.6327 C   0  0  1  0  0  0  0  0  0  0  0  0
    4.5281    8.2821   -1.7689 H   0  0  0  0  0  0  0  0  0  0  0  0
    4.7307    7.6736   -3.8569 C   0  0  0  0  0  0  0  0  0  0  0  0
    4.6963    8.2257   -4.9498 O   0  0  0  0  0  0  0  0  0  0  0  0
    5.5718    6.6394   -3.6431 O   0  0  0  0  0  0  0  0  0  0  0  0
    3.1181    9.3819   -2.9583 C   0  0  0  0  0  0  0  0  0  0  0  0
    4.0625   10.5431   -3.2840 C   0  0  0  0  0  0  0  0  0  0  0  0
    3.2459   11.7101   -3.7398 C   0  0  0  0  0  0  0  0  0  0  0  0
    2.0210   11.6752   -3.8451 O   0  0  0  0  0  0  0  0  0  0  0  0
    3.9455   12.8624   -3.9637 N   0  0  0  0  0  0  0  0  0  0  0  0
    3.2306   14.0798   -4.3378 C   0  0  1  0  0  0  0  0  0  0  0  0
    2.5725   13.8495   -5.1862 H   0  0  0  0  0  0  0  0  0  0  0  0
    2.3819   14.5814   -3.1371 C   0  0  0  0  0  0  0  0  0  0  0  0
    2.5740   15.6397   -2.5510 O   0  0  0  0  0  0  0  0  0  0  0  0
    1.3622   13.7761   -2.7710 O   0  0  0  0  0  0  0  0  0  0  0  0
    4.2151   15.1663   -4.7571 C   0  0  0  0  0  0  0  0  0  0  0  0
    3.5073   16.4523   -5.2009 C   0  0  0  0  0  0  0  0  0  0  0  0
    4.5370   17.5121   -5.4445 C   0  0  0  0  0  0  0  0  0  0  0  0
    5.7412   17.3303   -5.2703 O   0  0  0  0  0  0  0  0  0  0  0  0
    4.0623   18.6902   -5.9528 N   0  0  0  0  0  0  0  0  0  0  0  0
    4.9911   19.7677   -6.3001 C   0  0  1  0  0  0  0  0  0  0  0  0
    5.6455   19.9471   -5.4365 H   0  0  0  0  0  0  0  0  0  0  0  0
    5.8537   19.3397   -7.5195 C   0  0  0  0  0  0  0  0  0  0  0  0
    5.8361   19.9038   -8.6063 O   0  0  0  0  0  0  0  0  0  0  0  0
    6.6902   18.3004   -7.3077 O   0  0  0  0  0  0  0  0  0  0  0  0
    4.2264   21.0575   -6.6246 C   0  0  0  0  0  0  0  0  0  0  0  0
    5.1510   22.2443   -6.9414 C   0  0  0  0  0  0  0  0  0  0  0  0
    4.3440   23.4526   -7.3380 C   0  0  0  0  0  0  0  0  0  0  0  0
    3.1192   23.4965   -7.3473 O   0  0  0  0  0  0  0  0  0  0  0  0
    5.1041   24.5128   -7.6847 O   0  0  0  0  0  0  0  0  0  0  0  0
    2.9250   -1.0796    0.3361 C   0  0  0  0  0  0  0  0  0  0  0  0
    4.4275   -0.9272    0.2760 C   0  0  0  0  0  0  0  0  0  0  0  0
    5.1406   -2.2145    0.6607 C   0  0  1  0  0  0  0  0  0  0  0  0
    4.8634   -2.5428    1.6687 H   0  0  0  0  0  0  0  0  0  0  0  0
    4.8627   -3.3507   -0.3622 C   0  0  0  0  0  0  0  0  0  0  0  0
    5.6651   -3.7349   -1.2077 O   0  0  0  0  0  0  0  0  0  0  0  0
    3.6140   -3.8717   -0.3163 O   0  0  0  0  0  0  0  0  0  0  0  0
    6.5575   -1.9140    0.7060 N   0  0  0  0  0  0  0  0  0  0  0  0
    7.4270   -2.9014    1.0819 C   0  0  0  0  0  0  0  0  0  0  0  0
    7.0576   -4.0080    1.4909 O   0  0  0  0  0  0  0  0  0  0  0  0
    8.8468   -2.6010    0.8969 C   0  0  0  0  0  0  0  0  0  0  0  0
    9.3102   -1.2850    0.8340 C   0  0  0  0  0  0  0  0  0  0  0  0
   10.6112   -1.0430    0.4379 C   0  0  0  0  0  0  0  0  0  0  0  0
   11.5173   -2.1012    0.3426 C   0  0  0  0  0  0  0  0  0  0  0  0
   11.0533   -3.4111    0.5655 C   0  0  0  0  0  0  0  0  0  0  0  0
    9.7151   -3.6690    0.7474 C   0  0  0  0  0  0  0  0  0  0  0  0
   12.9800   -1.8306    0.0278 C   0  0  1  0  0  0  0  0  0  0  0  0
   13.0004   -1.3237   -0.9517 H   0  0  0  0  0  0  0  0  0  0  0  0
   13.6614   -0.8556    1.0696 C   0  0  0  0  0  0  0  0  0  0  0  0
   13.6754   -1.5128    2.4997 C   0  0  0  0  0  0  0  0  0  0  0  0
   14.3583   -2.6779    2.5302 F   0  0  0  0  0  0  0  0  0  0  0  0
   14.2337   -0.6946    3.4208 F   0  0  0  0  0  0  0  0  0  0  0  0
   12.4162   -1.7671    2.9303 F   0  0  0  0  0  0  0  0  0  0  0  0
   14.9844   -0.4778    0.6578 O   0  0  0  0  0  0  0  0  0  0  0  0
   12.9979    0.4189    1.0379 O   0  0  0  0  0  0  0  0  0  0  0  0
   13.6852   -3.2032   -0.1520 C   0  0  0  0  0  0  0  0  0  0  0  0
   15.0999   -3.0176   -0.5322 C   0  0  0  0  0  0  0  0  0  0  0  0
   15.9610   -4.2264   -0.6765 C   0  0  0  0  0  0  0  0  0  0  0  0
   17.3590   -3.8168   -1.0659 C   0  0  0  0  0  0  0  0  0  0  0  0
   17.8852   -2.5314   -1.2090 C   0  0  0  0  0  0  0  0  0  0  0  0
   17.1844   -1.3418   -1.1913 N   0  0  0  0  0  0  0  0  0  0  0  0
   19.1557   -2.3329   -1.5585 N   0  0  0  0  0  0  0  0  0  0  0  0
   19.9266   -3.3965   -1.7686 C   0  0  0  0  0  0  0  0  0  0  0  0
   19.5464   -4.6703   -1.6398 N   0  0  0  0  0  0  0  0  0  0  0  0
   18.2698   -4.8303   -1.2840 C   0  0  0  0  0  0  0  0  0  0  0  0
   17.8594   -6.1302   -1.1431 O   0  0  0  0  0  0  0  0  0  0  0  0
   21.1989   -3.1006   -2.1539 N   0  0  0  0  0  0  0  0  0  0  0  0
    3.8029    1.2907   -0.3745 H   0  0  0  0  0  0  0  0  0  0  0  0
    0.2145    1.2724    0.4137 H   0  0  0  0  0  0  0  0  0  0  0  0
    3.7154    3.1649   -1.9121 H   0  0  0  0  0  0  0  0  0  0  0  0
    3.7534    3.7357   -0.2604 H   0  0  0  0  0  0  0  0  0  0  0  0
    1.7024    5.2163   -0.7793 H   0  0  0  0  0  0  0  0  0  0  0  0
    1.7885    4.6359   -2.4483 H   0  0  0  0  0  0  0  0  0  0  0  0
    1.9399    7.2215   -2.2844 H   0  0  0  0  0  0  0  0  0  0  0  0
    5.4537    6.2239   -2.7531 H   0  0  0  0  0  0  0  0  0  0  0  0
    2.4680    9.6684   -2.1174 H   0  0  0  0  0  0  0  0  0  0  0  0
    2.4386    9.1980   -3.8029 H   0  0  0  0  0  0  0  0  0  0  0  0
    4.7525   10.3184   -4.0991 H   0  0  0  0  0  0  0  0  0  0  0  0
    4.6578   10.8116   -2.4047 H   0  0  0  0  0  0  0  0  0  0  0  0
    4.9600   12.8344   -4.0182 H   0  0  0  0  0  0  0  0  0  0  0  0
    1.3546   12.9148   -3.2585 H   0  0  0  0  0  0  0  0  0  0  0  0
    4.8579   14.8062   -5.5748 H   0  0  0  0  0  0  0  0  0  0  0  0
    4.8973   15.3793   -3.9218 H   0  0  0  0  0  0  0  0  0  0  0  0
    2.8338   16.8527   -4.4412 H   0  0  0  0  0  0  0  0  0  0  0  0
    2.9203   16.2721   -6.1078 H   0  0  0  0  0  0  0  0  0  0  0  0
    3.0622   18.8709   -5.9511 H   0  0  0  0  0  0  0  0  0  0  0  0
    6.5717   17.8760   -6.4214 H   0  0  0  0  0  0  0  0  0  0  0  0
    3.5749   21.3280   -5.7812 H   0  0  0  0  0  0  0  0  0  0  0  0
    3.5525   20.8747   -7.4727 H   0  0  0  0  0  0  0  0  0  0  0  0
    5.8167   22.0245   -7.7795 H   0  0  0  0  0  0  0  0  0  0  0  0
    5.7673   22.4815   -6.0682 H   0  0  0  0  0  0  0  0  0  0  0  0
    6.0664   24.3477   -7.6721 H   0  0  0  0  0  0  0  0  0  0  0  0
    2.5943   -1.8262   -0.3848 H   0  0  0  0  0  0  0  0  0  0  0  0
    2.6148   -1.3748    1.3453 H   0  0  0  0  0  0  0  0  0  0  0  0
    4.7459   -0.1166    0.9497 H   0  0  0  0  0  0  0  0  0  0  0  0
    4.7315   -0.6231   -0.7354 H   0  0  0  0  0  0  0  0  0  0  0  0
    3.0243   -3.5580    0.3936 H   0  0  0  0  0  0  0  0  0  0  0  0
    6.9105   -1.1027    0.2113 H   0  0  0  0  0  0  0  0  0  0  0  0
    8.6744   -0.4408    1.0734 H   0  0  0  0  0  0  0  0  0  0  0  0
   10.8971   -0.0155    0.2319 H   0  0  0  0  0  0  0  0  0  0  0  0
   11.7018   -4.2822    0.5852 H   0  0  0  0  0  0  0  0  0  0  0  0
    9.3689   -4.6988    0.7773 H   0  0  0  0  0  0  0  0  0  0  0  0
   14.8527    0.0230   -0.1656 H   0  0  0  0  0  0  0  0  0  0  0  0
   12.3115    0.3949    1.7285 H   0  0  0  0  0  0  0  0  0  0  0  0
   13.1942   -3.7915   -0.9374 H   0  0  0  0  0  0  0  0  0  0  0  0
   13.6622   -3.7893    0.7712 H   0  0  0  0  0  0  0  0  0  0  0  0
   15.5552   -2.5000    0.3087 H   0  0  0  0  0  0  0  0  0  0  0  0
   15.0873   -2.4581   -1.4735 H   0  0  0  0  0  0  0  0  0  0  0  0
   15.5239   -4.9032   -1.4176 H   0  0  0  0  0  0  0  0  0  0  0  0
   15.9889   -4.7510    0.2905 H   0  0  0  0  0  0  0  0  0  0  0  0
   16.3424   -1.2139   -0.6628 H   0  0  0  0  0  0  0  0  0  0  0  0
   17.7746   -0.5193   -1.1792 H   0  0  0  0  0  0  0  0  0  0  0  0
   18.6569   -6.6411   -1.3565 H   0  0  0  0  0  0  0  0  0  0  0  0
   21.4157   -2.1189   -2.2168 H   0  0  0  0  0  0  0  0  0  0  0  0
   21.8602   -3.8347   -2.3097 H   0  0  0  0  0  0  0  0  0  0  0  0
  1  2  2  0  0  0  0
  2  3  1  0  0  0  0
  2 44  1  0  0  0  0
  3  4  1  0  0  0  0
  3 81  1  0  0  0  0
  4  5  1  6  0  0  0
  4  6  1  0  0  0  0
  4  9  1  0  0  0  0
  6  7  2  0  0  0  0
  6  8  1  0  0  0  0
  8 82  1  0  0  0  0
  9 10  1  0  0  0  0
  9 83  1  0  0  0  0
  9 84  1  0  0  0  0
 10 11  1  0  0  0  0
 10 85  1  0  0  0  0
 10 86  1  0  0  0  0
 11 12  2  0  0  0  0
 11 13  1  0  0  0  0
 13 14  1  0  0  0  0
 13 87  1  0  0  0  0
 14 15  1  1  0  0  0
 14 16  1  0  0  0  0
 14 19  1  0  0  0  0
 16 17  2  0  0  0  0
 16 18  1  0  0  0  0
 18 88  1  0  0  0  0
 19 20  1  0  0  0  0
 19 89  1  0  0  0  0
 19 90  1  0  0  0  0
 20 21  1  0  0  0  0
 20 91  1  0  0  0  0
 20 92  1  0  0  0  0
 21 22  2  0  0  0  0
 21 23  1  0  0  0  0
 23 24  1  0  0  0  0
 23 93  1  0  0  0  0
 24 25  1  6  0  0  0
 24 26  1  0  0  0  0
 24 29  1  0  0  0  0
 26 27  2  0  0  0  0
 26 28  1  0  0  0  0
 28 94  1  0  0  0  0
 29 30  1  0  0  0  0
 29 95  1  0  0  0  0
 29 96  1  0  0  0  0
 30 31  1  0  0  0  0
 30 97  1  0  0  0  0
 30 98  1  0  0  0  0
 31 32  2  0  0  0  0
 31 33  1  0  0  0  0
 33 34  1  0  0  0  0
 33 99  1  0  0  0  0
 34 35  1  1  0  0  0
 34 36  1  0  0  0  0
 34 39  1  0  0  0  0
 36 37  2  0  0  0  0
 36 38  1  0  0  0  0
 38100  1  0  0  0  0
 39 40  1  0  0  0  0
 39101  1  0  0  0  0
 39102  1  0  0  0  0
 40 41  1  0  0  0  0
 40103  1  0  0  0  0
 40104  1  0  0  0  0
 41 42  2  0  0  0  0
 41 43  1  0  0  0  0
 43105  1  0  0  0  0
 44 45  1  0  0  0  0
 44106  1  0  0  0  0
 44107  1  0  0  0  0
 45 46  1  0  0  0  0
 45108  1  0  0  0  0
 45109  1  0  0  0  0
 46 47  1  1  0  0  0
 46 48  1  0  0  0  0
 46 51  1  0  0  0  0
 48 49  2  0  0  0  0
 48 50  1  0  0  0  0
 50110  1  0  0  0  0
 51 52  1  0  0  0  0
 51111  1  0  0  0  0
 52 53  2  0  0  0  0
 52 54  1  0  0  0  0
 54 55  2  0  0  0  0
 54 59  1  0  0  0  0
 55 56  1  0  0  0  0
 55112  1  0  0  0  0
 56 57  2  0  0  0  0
 56113  1  0  0  0  0
 57 58  1  0  0  0  0
 57 60  1  0  0  0  0
 58 59  2  0  0  0  0
 58114  1  0  0  0  0
 59115  1  0  0  0  0
 60 61  1  6  0  0  0
 60 62  1  0  0  0  0
 60 69  1  0  0  0  0
 62 63  1  0  0  0  0
 62 67  1  0  0  0  0
 62 68  1  0  0  0  0
 63 64  1  0  0  0  0
 63 65  1  0  0  0  0
 63 66  1  0  0  0  0
 67116  1  0  0  0  0
 68117  1  0  0  0  0
 69 70  1  0  0  0  0
 69118  1  0  0  0  0
 69119  1  0  0  0  0
 70 71  1  0  0  0  0
 70120  1  0  0  0  0
 70121  1  0  0  0  0
 71 72  1  0  0  0  0
 71122  1  0  0  0  0
 71123  1  0  0  0  0
 72 73  2  0  0  0  0
 72 78  1  0  0  0  0
 73 74  1  0  0  0  0
 73 75  1  0  0  0  0
 74124  1  0  0  0  0
 74125  1  0  0  0  0
 75 76  2  0  0  0  0
 76 77  1  0  0  0  0
 76 80  1  0  0  0  0
 77 78  2  0  0  0  0
 78 79  1  0  0  0  0
 79126  1  0  0  0  0
 80127  1  0  0  0  0
 80128  1  0  0  0  0
M  END
$$$$
