KTN
 OpenBabel04121316143D

 64 68  0  0  1  0  0  0  0  0999 V2000
    6.7947    0.4671   -6.5519 Cl  0  0  0  0  0  0  0  0  0  0  0  0
    7.0324    0.3039   -4.8603 C   0  0  0  0  0  0  0  0  0  0  0  0
    6.9383   -0.9405   -4.2683 C   0  0  0  0  0  0  0  0  0  0  0  0
    7.1662   -1.0560   -2.8989 C   0  0  0  0  0  0  0  0  0  0  0  0
    7.2759    0.0757   -2.0560 C   0  0  0  0  0  0  0  0  0  0  0  0
    7.3382    1.3279   -2.6911 C   0  0  0  0  0  0  0  0  0  0  0  0
    7.3096    1.4228   -4.0860 C   0  0  0  0  0  0  0  0  0  0  0  0
    7.3657    2.8397   -1.8526 Cl  0  0  0  0  0  0  0  0  0  0  0  0
    7.1528   -0.0912   -0.5252 C   0  0  2  0  0  0  0  0  0  0  0  0
    7.8005    0.9651    0.2038 O   0  0  0  0  0  0  0  0  0  0  0  0
    9.1706    0.5587    0.2755 C   0  0  0  0  0  0  0  0  0  0  0  0
    9.0755   -0.9308    0.4779 C   0  0  1  0  0  0  0  0  0  0  0  0
    9.0527   -1.1927    1.5417 H   0  0  0  0  0  0  0  0  0  0  0  0
    7.8113   -1.2845   -0.0858 O   0  0  0  0  0  0  0  0  0  0  0  0
   10.1704   -1.7011   -0.2492 C   0  0  0  0  0  0  0  0  0  0  0  0
   10.0601   -3.0948    0.0709 O   0  0  0  0  0  0  0  0  0  0  0  0
   10.8796   -3.9314   -0.6372 C   0  0  0  0  0  0  0  0  0  0  0  0
   11.9074   -3.5219   -1.4789 C   0  0  0  0  0  0  0  0  0  0  0  0
   12.5782   -4.4564   -2.2717 C   0  0  0  0  0  0  0  0  0  0  0  0
   12.3393   -5.8300   -2.1569 C   0  0  0  0  0  0  0  0  0  0  0  0
   11.4162   -6.2360   -1.1860 C   0  0  0  0  0  0  0  0  0  0  0  0
   10.6485   -5.2963   -0.4789 C   0  0  0  0  0  0  0  0  0  0  0  0
   13.0114   -6.7096   -2.9760 N   0  0  0  0  0  0  0  0  0  0  0  0
   13.5733   -7.9746   -2.4895 C   0  0  0  0  0  0  0  0  0  0  0  0
   12.8987   -9.1715   -3.1782 C   0  0  0  0  0  0  0  0  0  0  0  0
   12.9287   -9.0326   -4.6435 N   0  0  0  0  0  0  0  0  0  0  0  0
   12.3252   -7.7736   -5.1136 C   0  0  0  0  0  0  0  0  0  0  0  0
   12.9842   -6.5461   -4.4406 C   0  0  0  0  0  0  0  0  0  0  0  0
   13.5649   -9.9935   -5.3977 C   0  0  0  0  0  0  0  0  0  0  0  0
   14.1109  -10.9787   -4.8730 O   0  0  0  0  0  0  0  0  0  0  0  0
   13.6075   -9.8746   -6.8990 C   0  0  0  0  0  0  0  0  0  0  0  0
    5.6304   -0.1516   -0.1848 C   0  0  0  0  0  0  0  0  0  0  0  0
    4.9526   -1.4285   -0.4092 N   0  0  0  0  0  0  0  0  0  0  0  0
    5.4954   -2.6407   -0.7334 C   0  0  0  0  0  0  0  0  0  0  0  0
    4.5945   -3.5702   -0.9226 N   0  0  0  0  0  0  0  0  0  0  0  0
    3.4186   -2.9780   -0.5842 C   0  0  0  0  0  0  0  0  0  0  0  0
    3.6050   -1.6498   -0.2693 C   0  0  0  0  0  0  0  0  0  0  0  0
    6.6918   -1.8272   -4.8491 H   0  0  0  0  0  0  0  0  0  0  0  0
    7.2036   -2.0698   -2.5168 H   0  0  0  0  0  0  0  0  0  0  0  0
    7.4576    2.3866   -4.5625 H   0  0  0  0  0  0  0  0  0  0  0  0
    9.6885    1.0690    1.0918 H   0  0  0  0  0  0  0  0  0  0  0  0
    9.6708    0.8228   -0.6641 H   0  0  0  0  0  0  0  0  0  0  0  0
   11.1484   -1.3342    0.0755 H   0  0  0  0  0  0  0  0  0  0  0  0
   10.0427   -1.5619   -1.3321 H   0  0  0  0  0  0  0  0  0  0  0  0
   12.2146   -2.4856   -1.5524 H   0  0  0  0  0  0  0  0  0  0  0  0
   13.3332   -4.1008   -2.9677 H   0  0  0  0  0  0  0  0  0  0  0  0
   11.2381   -7.2907   -0.9965 H   0  0  0  0  0  0  0  0  0  0  0  0
    9.8594   -5.6367    0.1882 H   0  0  0  0  0  0  0  0  0  0  0  0
   13.5069   -8.0691   -1.4009 H   0  0  0  0  0  0  0  0  0  0  0  0
   14.6414   -7.9722   -2.7425 H   0  0  0  0  0  0  0  0  0  0  0  0
   11.8432   -9.2232   -2.8872 H   0  0  0  0  0  0  0  0  0  0  0  0
   13.3802  -10.0973   -2.8503 H   0  0  0  0  0  0  0  0  0  0  0  0
   11.2618   -7.8211   -4.8487 H   0  0  0  0  0  0  0  0  0  0  0  0
   12.3793   -7.6554   -6.1937 H   0  0  0  0  0  0  0  0  0  0  0  0
   12.4507   -5.6419   -4.7570 H   0  0  0  0  0  0  0  0  0  0  0  0
   14.0187   -6.4581   -4.7935 H   0  0  0  0  0  0  0  0  0  0  0  0
   13.1294   -8.9893   -7.3047 H   0  0  0  0  0  0  0  0  0  0  0  0
   13.1064  -10.7455   -7.3324 H   0  0  0  0  0  0  0  0  0  0  0  0
   14.6534   -9.8628   -7.2206 H   0  0  0  0  0  0  0  0  0  0  0  0
    5.4525    0.1132    0.8649 H   0  0  0  0  0  0  0  0  0  0  0  0
    5.0840    0.5998   -0.7782 H   0  0  0  0  0  0  0  0  0  0  0  0
    6.5493   -2.8398   -0.8339 H   0  0  0  0  0  0  0  0  0  0  0  0
    2.5075   -3.5571   -0.5733 H   0  0  0  0  0  0  0  0  0  0  0  0
    2.9114   -0.8866    0.0508 H   0  0  0  0  0  0  0  0  0  0  0  0
  1  2  1  0  0  0  0
  2  3  2  0  0  0  0
  2  7  1  0  0  0  0
  3  4  1  0  0  0  0
  3 38  1  0  0  0  0
  4  5  2  0  0  0  0
  4 39  1  0  0  0  0
  5  6  1  0  0  0  0
  6  7  2  0  0  0  0
  6  8  1  0  0  0  0
  7 40  1  0  0  0  0
  9 10  1  0  0  0  0
  9 14  1  0  0  0  0
  9 32  1  1  0  0  0
  9  5  1  0  0  0  0
 10 11  1  0  0  0  0
 11 12  1  0  0  0  0
 11 41  1  0  0  0  0
 11 42  1  0  0  0  0
 12 13  1  1  0  0  0
 12 14  1  0  0  0  0
 12 15  1  0  0  0  0
 15 16  1  0  0  0  0
 15 43  1  0  0  0  0
 15 44  1  0  0  0  0
 16 17  1  0  0  0  0
 17 18  2  0  0  0  0
 17 22  1  0  0  0  0
 18 19  1  0  0  0  0
 18 45  1  0  0  0  0
 19 20  2  0  0  0  0
 19 46  1  0  0  0  0
 20 21  1  0  0  0  0
 20 23  1  0  0  0  0
 21 22  2  0  0  0  0
 21 47  1  0  0  0  0
 22 48  1  0  0  0  0
 23 24  1  0  0  0  0
 23 28  1  0  0  0  0
 24 25  1  0  0  0  0
 24 49  1  0  0  0  0
 24 50  1  0  0  0  0
 25 26  1  0  0  0  0
 25 51  1  0  0  0  0
 25 52  1  0  0  0  0
 26 27  1  0  0  0  0
 26 29  1  0  0  0  0
 27 28  1  0  0  0  0
 27 53  1  0  0  0  0
 27 54  1  0  0  0  0
 28 55  1  0  0  0  0
 28 56  1  0  0  0  0
 29 30  2  0  0  0  0
 29 31  1  0  0  0  0
 31 57  1  0  0  0  0
 31 58  1  0  0  0  0
 31 59  1  0  0  0  0
 32 33  1  0  0  0  0
 32 60  1  0  0  0  0
 32 61  1  0  0  0  0
 33 34  1  0  0  0  0
 33 37  1  0  0  0  0
 34 35  2  0  0  0  0
 34 62  1  0  0  0  0
 35 36  1  0  0  0  0
 36 37  2  0  0  0  0
 36 63  1  0  0  0  0
 37 64  1  0  0  0  0
M  END
$$$$
