KZM
 OpenBabel04121316143D

 68 72  0  0  1  0  0  0  0  0999 V2000
   -0.7448   -1.8737    4.8344 C   0  0  0  0  0  0  0  0  0  0  0  0
   -0.9289   -0.4588    4.6860 O   0  0  0  0  0  0  0  0  0  0  0  0
    0.2239    0.0071    4.1148 C   0  0  0  0  0  0  0  0  0  0  0  0
    1.1647    0.7033    4.8913 C   0  0  0  0  0  0  0  0  0  0  0  0
    2.4020    1.0186    4.3172 C   0  0  0  0  0  0  0  0  0  0  0  0
    2.6904    0.4164    3.0874 C   0  0  0  0  0  0  0  0  0  0  0  0
    1.6559    0.0007    2.2327 C   0  0  0  0  0  0  0  0  0  0  0  0
    0.4097   -0.2252    2.7559 C   0  0  0  0  0  0  0  0  0  0  0  0
    1.9202    0.1169    0.8934 O   0  0  0  0  0  0  0  0  0  0  0  0
    0.8761   -0.1248   -0.0475 C   0  0  0  0  0  0  0  0  0  0  0  0
    3.1627    2.1505    4.7397 N   0  0  0  0  0  0  0  0  0  0  0  0
    4.2072    2.8681    4.0845 C   0  0  0  0  0  0  0  0  0  0  0  0
    5.1039    3.4417    4.9790 N   0  0  0  0  0  0  0  0  0  0  0  0
    6.1288    4.1278    4.5567 C   0  0  0  0  0  0  0  0  0  0  0  0
    6.9649    4.8065    5.3929 N   0  0  0  0  0  0  0  0  0  0  0  0
    6.8629    4.9117    6.8318 C   0  0  2  0  0  0  0  0  0  0  0  0
    7.2175    3.9655    7.2593 H   0  0  0  0  0  0  0  0  0  0  0  0
    5.4326    5.1712    7.3483 C   0  0  0  0  0  0  0  0  0  0  0  0
    5.4410    5.3169    8.8680 C   0  0  0  0  0  0  0  0  0  0  0  0
    6.3676    6.4380    9.3201 C   0  0  0  0  0  0  0  0  0  0  0  0
    7.7833    6.2138    8.7941 C   0  0  0  0  0  0  0  0  0  0  0  0
    7.8095    6.0675    7.2733 C   0  0  2  0  0  0  0  0  0  0  0  0
    8.8306    5.8252    6.9541 H   0  0  0  0  0  0  0  0  0  0  0  0
    7.4496    7.3363    6.6041 N   0  0  0  0  0  0  0  0  0  0  0  0
    6.4053    4.2073    3.1867 N   0  0  0  0  0  0  0  0  0  0  0  0
    5.5991    3.6858    2.2343 C   0  0  0  0  0  0  0  0  0  0  0  0
    4.3715    3.1094    2.7340 C   0  0  0  0  0  0  0  0  0  0  0  0
    3.3645    2.7766    1.6847 C   0  0  0  0  0  0  0  0  0  0  0  0
    3.6810    2.3319    0.6056 O   0  0  0  0  0  0  0  0  0  0  0  0
    2.0385    2.9117    2.0229 N   0  0  0  0  0  0  0  0  0  0  0  0
    6.1977    3.8808    1.0581 N   0  0  0  0  0  0  0  0  0  0  0  0
    7.3702    4.5848    1.3498 C   0  0  0  0  0  0  0  0  0  0  0  0
    7.5015    4.8197    2.6726 N   0  0  0  0  0  0  0  0  0  0  0  0
    8.3604    5.1002    0.3511 C   0  0  0  0  0  0  0  0  0  0  0  0
    9.3550    6.0194    0.7604 C   0  0  0  0  0  0  0  0  0  0  0  0
   10.3128    6.5449   -0.1286 C   0  0  0  0  0  0  0  0  0  0  0  0
   10.2425    6.2485   -1.4833 C   0  0  0  0  0  0  0  0  0  0  0  0
    9.2741    5.3458   -1.9113 C   0  0  0  0  0  0  0  0  0  0  0  0
    8.3787    4.7323   -1.0067 C   0  0  0  0  0  0  0  0  0  0  0  0
    9.1722    5.0400   -3.2419 O   0  0  0  0  0  0  0  0  0  0  0  0
   -1.6328   -2.2847    5.3134 H   0  0  0  0  0  0  0  0  0  0  0  0
    0.1280   -2.0724    5.4680 H   0  0  0  0  0  0  0  0  0  0  0  0
   -0.6150   -2.3774    3.8661 H   0  0  0  0  0  0  0  0  0  0  0  0
    0.8827    1.0120    5.8955 H   0  0  0  0  0  0  0  0  0  0  0  0
    3.6777    0.5718    2.6659 H   0  0  0  0  0  0  0  0  0  0  0  0
   -0.4177   -0.5572    2.1409 H   0  0  0  0  0  0  0  0  0  0  0  0
    1.2455    0.1292   -1.0481 H   0  0  0  0  0  0  0  0  0  0  0  0
   -0.0301    0.4778    0.1110 H   0  0  0  0  0  0  0  0  0  0  0  0
    0.6442   -1.1896   -0.0295 H   0  0  0  0  0  0  0  0  0  0  0  0
    3.1702    2.3155    5.7473 H   0  0  0  0  0  0  0  0  0  0  0  0
    7.6978    5.3662    4.9502 H   0  0  0  0  0  0  0  0  0  0  0  0
    4.7543    4.3474    7.1128 H   0  0  0  0  0  0  0  0  0  0  0  0
    4.9946    6.0632    6.8821 H   0  0  0  0  0  0  0  0  0  0  0  0
    5.7759    4.3696    9.3099 H   0  0  0  0  0  0  0  0  0  0  0  0
    4.4246    5.5003    9.2303 H   0  0  0  0  0  0  0  0  0  0  0  0
    6.3814    6.4890   10.4129 H   0  0  0  0  0  0  0  0  0  0  0  0
    5.9788    7.3985    8.9624 H   0  0  0  0  0  0  0  0  0  0  0  0
    8.1905    5.2965    9.2406 H   0  0  0  0  0  0  0  0  0  0  0  0
    8.4381    7.0335    9.1085 H   0  0  0  0  0  0  0  0  0  0  0  0
    8.0225    8.0979    6.9610 H   0  0  0  0  0  0  0  0  0  0  0  0
    6.4866    7.5857    6.8347 H   0  0  0  0  0  0  0  0  0  0  0  0
    1.7891    2.8986    3.0058 H   0  0  0  0  0  0  0  0  0  0  0  0
    1.4987    2.2409    1.4814 H   0  0  0  0  0  0  0  0  0  0  0  0
    9.3970    6.3479    1.7969 H   0  0  0  0  0  0  0  0  0  0  0  0
   11.1060    7.1921    0.2409 H   0  0  0  0  0  0  0  0  0  0  0  0
   10.9437    6.7133   -2.1734 H   0  0  0  0  0  0  0  0  0  0  0  0
    7.7053    3.9683   -1.3856 H   0  0  0  0  0  0  0  0  0  0  0  0
    9.7523    5.6332   -3.7509 H   0  0  0  0  0  0  0  0  0  0  0  0
  1  2  1  0  0  0  0
  1 41  1  0  0  0  0
  1 42  1  0  0  0  0
  1 43  1  0  0  0  0
  2  3  1  0  0  0  0
  3  4  2  0  0  0  0
  3  8  1  0  0  0  0
  4  5  1  0  0  0  0
  4 44  1  0  0  0  0
  5  6  2  0  0  0  0
  5 11  1  0  0  0  0
  6  7  1  0  0  0  0
  6 45  1  0  0  0  0
  7  8  2  0  0  0  0
  7  9  1  0  0  0  0
  8 46  1  0  0  0  0
  9 10  1  0  0  0  0
 10 47  1  0  0  0  0
 10 48  1  0  0  0  0
 10 49  1  0  0  0  0
 11 12  1  0  0  0  0
 11 50  1  0  0  0  0
 12 13  1  0  0  0  0
 12 27  2  0  0  0  0
 13 14  2  0  0  0  0
 14 15  1  0  0  0  0
 14 25  1  0  0  0  0
 15 51  1  0  0  0  0
 16 18  1  0  0  0  0
 16 22  1  0  0  0  0
 16 17  1  1  0  0  0
 16 15  1  0  0  0  0
 18 19  1  0  0  0  0
 18 52  1  0  0  0  0
 18 53  1  0  0  0  0
 19 20  1  0  0  0  0
 19 54  1  0  0  0  0
 19 55  1  0  0  0  0
 20 21  1  0  0  0  0
 20 56  1  0  0  0  0
 20 57  1  0  0  0  0
 21 22  1  0  0  0  0
 21 58  1  0  0  0  0
 21 59  1  0  0  0  0
 22 23  1  6  0  0  0
 22 24  1  0  0  0  0
 24 60  1  0  0  0  0
 24 61  1  0  0  0  0
 25 26  1  0  0  0  0
 25 33  1  0  0  0  0
 26 27  1  0  0  0  0
 26 31  2  0  0  0  0
 27 28  1  0  0  0  0
 28 29  2  0  0  0  0
 28 30  1  0  0  0  0
 30 62  1  0  0  0  0
 30 63  1  0  0  0  0
 31 32  1  0  0  0  0
 32 33  2  0  0  0  0
 32 34  1  0  0  0  0
 34 35  2  0  0  0  0
 34 39  1  0  0  0  0
 35 36  1  0  0  0  0
 35 64  1  0  0  0  0
 36 37  2  0  0  0  0
 36 65  1  0  0  0  0
 37 38  1  0  0  0  0
 37 66  1  0  0  0  0
 38 39  2  0  0  0  0
 38 40  1  0  0  0  0
 39 67  1  0  0  0  0
 40 68  1  0  0  0  0
M  END
$$$$
