L05
 OpenBabel04121316143D

 49 52  0  0  0  0  0  0  0  0999 V2000
    1.0300    0.0447    0.0973 C   0  0  0  0  0  0  0  0  0  0  0  0
    2.4498    0.1857    0.0386 O   0  0  0  0  0  0  0  0  0  0  0  0
    2.7865    0.2612   -1.2858 C   0  0  0  0  0  0  0  0  0  0  0  0
    3.3761    1.4140   -1.7905 C   0  0  0  0  0  0  0  0  0  0  0  0
    3.8051    1.4504   -3.1293 C   0  0  0  0  0  0  0  0  0  0  0  0
    3.7175    0.3034   -3.9375 C   0  0  0  0  0  0  0  0  0  0  0  0
    3.0292   -0.8104   -3.4193 C   0  0  0  0  0  0  0  0  0  0  0  0
    2.6120   -0.8504   -2.0948 C   0  0  0  0  0  0  0  0  0  0  0  0
    4.5886    0.1569   -5.0534 N   0  0  0  0  0  0  0  0  0  0  0  0
    5.0206   -1.0576   -5.5712 C   0  0  0  0  0  0  0  0  0  0  0  0
    5.3933   -2.2273   -4.9958 C   0  0  0  0  0  0  0  0  0  0  0  0
    5.5459   -2.5776   -3.5341 C   0  0  0  0  0  0  0  0  0  0  0  0
    5.4035   -3.8905   -3.0652 C   0  0  0  0  0  0  0  0  0  0  0  0
    5.0250   -4.1649   -1.7377 C   0  0  0  0  0  0  0  0  0  0  0  0
    4.8387   -3.1350   -0.8311 C   0  0  0  0  0  0  0  0  0  0  0  0
    5.2447   -1.8655   -1.2004 C   0  0  0  0  0  0  0  0  0  0  0  0
    5.6393   -1.6013   -2.5277 C   0  0  0  0  0  0  0  0  0  0  0  0
    5.2706   -3.2336   -6.0991 C   0  0  0  0  0  0  0  0  0  0  0  0
    5.5049   -4.4156   -5.9410 O   0  0  0  0  0  0  0  0  0  0  0  0
    4.8532   -2.6137   -7.2351 N   0  0  0  0  0  0  0  0  0  0  0  0
    5.0130   -1.2912   -7.0485 C   0  0  0  0  0  0  0  0  0  0  0  0
    5.1559   -0.4074   -7.8968 O   0  0  0  0  0  0  0  0  0  0  0  0
    4.4704   -3.2366   -8.5083 C   0  0  0  0  0  0  0  0  0  0  0  0
    4.2903   -4.7369   -8.4725 C   0  0  0  0  0  0  0  0  0  0  0  0
    5.4207   -5.5651   -8.5573 C   0  0  0  0  0  0  0  0  0  0  0  0
    5.2942   -6.9522   -8.5412 C   0  0  0  0  0  0  0  0  0  0  0  0
    4.0438   -7.5300   -8.3457 C   0  0  0  0  0  0  0  0  0  0  0  0
    2.9255   -6.7196   -8.1523 C   0  0  0  0  0  0  0  0  0  0  0  0
    3.0357   -5.3303   -8.2677 C   0  0  0  0  0  0  0  0  0  0  0  0
    0.7180    0.0139    1.1418 H   0  0  0  0  0  0  0  0  0  0  0  0
    0.6880   -0.8814   -0.3816 H   0  0  0  0  0  0  0  0  0  0  0  0
    0.5687    0.9097   -0.3900 H   0  0  0  0  0  0  0  0  0  0  0  0
    3.5590    2.2530   -1.1247 H   0  0  0  0  0  0  0  0  0  0  0  0
    4.3115    2.3420   -3.4873 H   0  0  0  0  0  0  0  0  0  0  0  0
    3.0282   -1.7644   -3.9385 H   0  0  0  0  0  0  0  0  0  0  0  0
    2.3580   -1.8123   -1.6495 H   0  0  0  0  0  0  0  0  0  0  0  0
    4.7320    0.9763   -5.6393 H   0  0  0  0  0  0  0  0  0  0  0  0
    5.5291   -4.7404   -3.7276 H   0  0  0  0  0  0  0  0  0  0  0  0
    4.8321   -5.1876   -1.4288 H   0  0  0  0  0  0  0  0  0  0  0  0
    4.3722   -3.3045    0.1368 H   0  0  0  0  0  0  0  0  0  0  0  0
    5.0814   -1.0347   -0.5134 H   0  0  0  0  0  0  0  0  0  0  0  0
    5.7944   -0.5557   -2.7785 H   0  0  0  0  0  0  0  0  0  0  0  0
    5.1831   -2.9629   -9.2983 H   0  0  0  0  0  0  0  0  0  0  0  0
    3.5220   -2.7761   -8.8271 H   0  0  0  0  0  0  0  0  0  0  0  0
    6.4155   -5.1241   -8.5669 H   0  0  0  0  0  0  0  0  0  0  0  0
    6.1773   -7.5759   -8.6451 H   0  0  0  0  0  0  0  0  0  0  0  0
    3.9473   -8.6118   -8.3208 H   0  0  0  0  0  0  0  0  0  0  0  0
    1.9698   -7.1734   -7.9013 H   0  0  0  0  0  0  0  0  0  0  0  0
    2.1396   -4.7219   -8.1714 H   0  0  0  0  0  0  0  0  0  0  0  0
  1  2  1  0  0  0  0
  1 30  1  0  0  0  0
  1 31  1  0  0  0  0
  1 32  1  0  0  0  0
  2  3  1  0  0  0  0
  3  4  2  0  0  0  0
  3  8  1  0  0  0  0
  4  5  1  0  0  0  0
  4 33  1  0  0  0  0
  5  6  2  0  0  0  0
  5 34  1  0  0  0  0
  6  7  1  0  0  0  0
  6  9  1  0  0  0  0
  7  8  2  0  0  0  0
  7 35  1  0  0  0  0
  8 36  1  0  0  0  0
  9 10  1  0  0  0  0
  9 37  1  0  0  0  0
 10 11  2  0  0  0  0
 10 21  1  0  0  0  0
 11 12  1  0  0  0  0
 11 18  1  0  0  0  0
 12 13  2  0  0  0  0
 12 17  1  0  0  0  0
 13 14  1  0  0  0  0
 13 38  1  0  0  0  0
 14 15  2  0  0  0  0
 14 39  1  0  0  0  0
 15 16  1  0  0  0  0
 15 40  1  0  0  0  0
 16 17  2  0  0  0  0
 16 41  1  0  0  0  0
 17 42  1  0  0  0  0
 18 19  2  0  0  0  0
 18 20  1  0  0  0  0
 20 21  1  0  0  0  0
 20 23  1  0  0  0  0
 21 22  2  0  0  0  0
 23 24  1  0  0  0  0
 23 43  1  0  0  0  0
 23 44  1  0  0  0  0
 24 25  2  0  0  0  0
 24 29  1  0  0  0  0
 25 26  1  0  0  0  0
 25 45  1  0  0  0  0
 26 27  2  0  0  0  0
 26 46  1  0  0  0  0
 27 28  1  0  0  0  0
 27 47  1  0  0  0  0
 28 29  2  0  0  0  0
 28 48  1  0  0  0  0
 29 49  1  0  0  0  0
M  END
$$$$
