L13
 OpenBabel04121316143D

 24 25  0  0  0  0  0  0  0  0999 V2000
    1.1663    0.4219    0.0822 C   0  0  0  0  0  0  0  0  0  0  0  0
    2.6158    0.1205    0.0190 C   0  0  0  0  0  0  0  0  0  0  0  0
    3.4188    1.2784    0.0171 C   0  0  0  0  0  0  0  0  0  0  0  0
    4.7788    1.2045   -0.1912 C   0  0  0  0  0  0  0  0  0  0  0  0
    5.3731   -0.0455   -0.2727 C   0  0  0  0  0  0  0  0  0  0  0  0
    4.5935   -1.2144   -0.1742 C   0  0  0  0  0  0  0  0  0  0  0  0
    3.1803   -1.1709   -0.1036 C   0  0  0  0  0  0  0  0  0  0  0  0
    2.4447   -2.5062   -0.1618 C   0  0  0  0  0  0  0  0  0  0  0  0
    3.1170   -3.6473   -0.0412 N   0  0  0  0  0  0  0  0  0  0  0  0
    2.1795   -4.6449   -0.1392 N   0  0  0  0  0  0  0  0  0  0  0  0
    2.4192   -5.6340   -0.1479 H   0  0  0  0  0  0  0  0  0  0  0  0
    0.9223   -4.1202   -0.3261 C   0  0  0  0  0  0  0  0  0  0  0  0
   -0.4804   -4.9924   -0.5087 S   0  0  0  0  0  0  0  0  0  0  0  0
    1.0933   -2.7501   -0.3353 N   0  0  0  0  0  0  0  0  0  0  0  0
    0.0439   -1.9290   -0.7592 N   0  0  0  0  0  0  0  0  0  0  0  0
    0.9211    1.4741    0.2411 H   0  0  0  0  0  0  0  0  0  0  0  0
    0.7398   -0.1148    0.9311 H   0  0  0  0  0  0  0  0  0  0  0  0
    0.7618    0.2001   -0.9072 H   0  0  0  0  0  0  0  0  0  0  0  0
    2.9516    2.2554    0.1397 H   0  0  0  0  0  0  0  0  0  0  0  0
    5.3526    2.1207   -0.2916 H   0  0  0  0  0  0  0  0  0  0  0  0
    6.4476   -0.1068   -0.4240 H   0  0  0  0  0  0  0  0  0  0  0  0
    5.1244   -2.1678   -0.1800 H   0  0  0  0  0  0  0  0  0  0  0  0
   -0.7832   -2.5283   -0.8620 H   0  0  0  0  0  0  0  0  0  0  0  0
   -0.2385   -1.3618    0.0330 H   0  0  0  0  0  0  0  0  0  0  0  0
  1  2  1  0  0  0  0
  1 16  1  0  0  0  0
  1 17  1  0  0  0  0
  1 18  1  0  0  0  0
  2  3  2  0  0  0  0
  2  7  1  0  0  0  0
  3  4  1  0  0  0  0
  3 19  1  0  0  0  0
  4  5  2  0  0  0  0
  4 20  1  0  0  0  0
  5  6  1  0  0  0  0
  5 21  1  0  0  0  0
  6  7  2  0  0  0  0
  6 22  1  0  0  0  0
  7  8  1  0  0  0  0
  8  9  2  0  0  0  0
  8 14  1  0  0  0  0
  9 10  1  0  0  0  0
 10 11  1  0  0  0  0
 10 12  1  0  0  0  0
 12 13  2  0  0  0  0
 12 14  1  0  0  0  0
 14 15  1  0  0  0  0
 15 23  1  0  0  0  0
 15 24  1  0  0  0  0
M  END
$$$$
