L15
 OpenBabel04121316143D

 30 31  0  0  0  0  0  0  0  0999 V2000
    0.9623    0.0528    0.0239 N   0  0  0  0  0  0  0  0  0  0  0  0
    2.4169    0.0628    0.0202 C   0  0  0  0  0  0  0  0  0  0  0  0
    2.9854    1.4564   -0.2859 C   0  0  0  0  0  0  0  0  0  0  0  0
    4.4918    1.4967   -0.2946 C   0  0  0  0  0  0  0  0  0  0  0  0
    5.1718    2.7204   -0.3127 C   0  0  0  0  0  0  0  0  0  0  0  0
    6.5623    2.7559   -0.4961 C   0  0  0  0  0  0  0  0  0  0  0  0
    7.2952    1.5704   -0.5723 C   0  0  0  0  0  0  0  0  0  0  0  0
    6.6099    0.3706   -0.4004 C   0  0  0  0  0  0  0  0  0  0  0  0
    5.2312    0.3251   -0.3358 C   0  0  0  0  0  0  0  0  0  0  0  0
    8.7225    1.5450   -0.8771 C   0  0  0  0  0  0  0  0  0  0  0  0
    9.5117    2.6493   -1.0894 C   0  0  0  0  0  0  0  0  0  0  0  0
   10.7598    2.1854   -1.3855 N   0  0  0  0  0  0  0  0  0  0  0  0
   11.5940    2.7193   -1.5873 H   0  0  0  0  0  0  0  0  0  0  0  0
   10.8412    0.8477   -1.4141 N   0  0  0  0  0  0  0  0  0  0  0  0
    9.6013    0.4417   -1.1170 C   0  0  0  0  0  0  0  0  0  0  0  0
    9.2886   -1.0102   -1.0831 C   0  0  0  0  0  0  0  0  0  0  0  0
    0.6518   -0.9038    0.1923 H   0  0  0  0  0  0  0  0  0  0  0  0
    0.6350    0.2935   -0.9110 H   0  0  0  0  0  0  0  0  0  0  0  0
    2.7438   -0.6592   -0.7388 H   0  0  0  0  0  0  0  0  0  0  0  0
    2.7889   -0.2890    0.9908 H   0  0  0  0  0  0  0  0  0  0  0  0
    2.6181    2.1746    0.4552 H   0  0  0  0  0  0  0  0  0  0  0  0
    2.6420    1.7799   -1.2769 H   0  0  0  0  0  0  0  0  0  0  0  0
    4.6280    3.6551   -0.2123 H   0  0  0  0  0  0  0  0  0  0  0  0
    7.0434    3.7242   -0.5928 H   0  0  0  0  0  0  0  0  0  0  0  0
    7.0844   -0.5913   -0.3355 H   0  0  0  0  0  0  0  0  0  0  0  0
    4.7869   -0.6643   -0.3265 H   0  0  0  0  0  0  0  0  0  0  0  0
    9.3145    3.7141   -1.0664 H   0  0  0  0  0  0  0  0  0  0  0  0
   10.1369   -1.6444   -1.3394 H   0  0  0  0  0  0  0  0  0  0  0  0
    8.4835   -1.2361   -1.7942 H   0  0  0  0  0  0  0  0  0  0  0  0
    8.9686   -1.2941   -0.0733 H   0  0  0  0  0  0  0  0  0  0  0  0
  1  2  1  0  0  0  0
  1 17  1  0  0  0  0
  1 18  1  0  0  0  0
  2  3  1  0  0  0  0
  2 19  1  0  0  0  0
  2 20  1  0  0  0  0
  3  4  1  0  0  0  0
  3 21  1  0  0  0  0
  3 22  1  0  0  0  0
  4  5  2  0  0  0  0
  4  9  1  0  0  0  0
  5  6  1  0  0  0  0
  5 23  1  0  0  0  0
  6  7  2  0  0  0  0
  6 24  1  0  0  0  0
  7  8  1  0  0  0  0
  7 10  1  0  0  0  0
  8  9  2  0  0  0  0
  8 25  1  0  0  0  0
  9 26  1  0  0  0  0
 10 11  2  0  0  0  0
 10 15  1  0  0  0  0
 11 12  1  0  0  0  0
 11 27  1  0  0  0  0
 12 13  1  0  0  0  0
 12 14  1  0  0  0  0
 14 15  2  0  0  0  0
 15 16  1  0  0  0  0
 16 28  1  0  0  0  0
 16 29  1  0  0  0  0
 16 30  1  0  0  0  0
M  END
$$$$
