L1O
 OpenBabel04121316143D

 24 24  0  0  0  0  0  0  0  0999 V2000
    0.9169    0.0723   -0.0557 N   0  0  0  0  0  0  0  0  0  0  0  0
    2.3768    0.0672   -0.0697 C   0  0  0  0  0  0  0  0  0  0  0  0
    2.9253   -0.2910   -1.4498 C   0  0  0  0  0  0  0  0  0  0  0  0
    4.3549   -0.3153   -1.3452 O   0  0  0  0  0  0  0  0  0  0  0  0
    4.9366   -0.6060   -2.5500 C   0  0  0  0  0  0  0  0  0  0  0  0
    5.5250    0.4200   -3.2956 C   0  0  0  0  0  0  0  0  0  0  0  0
    5.4552    2.0659   -2.7783 Cl  0  0  0  0  0  0  0  0  0  0  0  0
    6.1890    0.1278   -4.4878 C   0  0  0  0  0  0  0  0  0  0  0  0
    6.2875   -1.1961   -4.9463 C   0  0  0  0  0  0  0  0  0  0  0  0
    5.7129   -2.2228   -4.1894 C   0  0  0  0  0  0  0  0  0  0  0  0
    5.0516   -1.9281   -2.9934 C   0  0  0  0  0  0  0  0  0  0  0  0
    4.4213   -3.2600   -2.0869 Cl  0  0  0  0  0  0  0  0  0  0  0  0
    7.0204   -1.4142   -6.2258 C   0  0  0  0  0  0  0  0  0  0  0  0
    7.5074   -0.4827   -6.8489 O   0  0  0  0  0  0  0  0  0  0  0  0
    7.1170   -2.6831   -6.6624 O   0  0  0  0  0  0  0  0  0  0  0  0
    0.5950    0.2864    0.8875 H   0  0  0  0  0  0  0  0  0  0  0  0
    0.5714   -0.8634   -0.2675 H   0  0  0  0  0  0  0  0  0  0  0  0
    2.7548   -0.6474    0.6717 H   0  0  0  0  0  0  0  0  0  0  0  0
    2.7577    1.0504    0.2288 H   0  0  0  0  0  0  0  0  0  0  0  0
    2.6027    0.4488   -2.1932 H   0  0  0  0  0  0  0  0  0  0  0  0
    2.5385   -1.2730   -1.7449 H   0  0  0  0  0  0  0  0  0  0  0  0
    6.6404    0.9376   -5.0618 H   0  0  0  0  0  0  0  0  0  0  0  0
    5.7670   -3.2637   -4.4836 H   0  0  0  0  0  0  0  0  0  0  0  0
    6.7207   -3.3959   -6.1377 H   0  0  0  0  0  0  0  0  0  0  0  0
  1  2  1  0  0  0  0
  1 16  1  0  0  0  0
  1 17  1  0  0  0  0
  2  3  1  0  0  0  0
  2 18  1  0  0  0  0
  2 19  1  0  0  0  0
  3  4  1  0  0  0  0
  3 20  1  0  0  0  0
  3 21  1  0  0  0  0
  4  5  1  0  0  0  0
  5  6  2  0  0  0  0
  5 11  1  0  0  0  0
  6  7  1  0  0  0  0
  6  8  1  0  0  0  0
  8  9  2  0  0  0  0
  8 22  1  0  0  0  0
  9 10  1  0  0  0  0
  9 13  1  0  0  0  0
 10 11  2  0  0  0  0
 10 23  1  0  0  0  0
 11 12  1  0  0  0  0
 13 14  2  0  0  0  0
 13 15  1  0  0  0  0
 15 24  1  0  0  0  0
M  END
$$$$
