L21
 OpenBabel04121316143D

 28 29  0  0  0  0  0  0  0  0999 V2000
    0.9030    0.0079    0.1329 C   0  0  0  0  0  0  0  0  0  0  0  0
    2.4054    0.0518    0.0667 C   0  0  0  0  0  0  0  0  0  0  0  0
    3.0681    0.6888   -0.9155 C   0  0  0  0  0  0  0  0  0  0  0  0
    2.3594    1.3934   -2.0320 C   0  0  0  0  0  0  0  0  0  0  0  0
    3.3032    2.0169   -2.9216 N   0  0  0  0  0  0  0  0  0  0  0  0
    4.1727    1.2864   -3.6975 C   0  0  0  0  0  0  0  0  0  0  0  0
    4.9918    1.7736   -4.5803 N   0  0  0  0  0  0  0  0  0  0  0  0
    4.9802    3.1515   -4.7749 C   0  0  0  0  0  0  0  0  0  0  0  0
    4.1553    3.9750   -4.0856 C   0  0  0  0  0  0  0  0  0  0  0  0
    3.2607    3.3671   -3.1044 C   0  0  0  0  0  0  0  0  0  0  0  0
    2.5421    4.3085   -2.5659 N   0  0  0  0  0  0  0  0  0  0  0  0
    2.9935    5.4587   -3.1946 C   0  0  0  0  0  0  0  0  0  0  0  0
    3.9318    5.3235   -4.0896 N   0  0  0  0  0  0  0  0  0  0  0  0
    5.8314    3.6698   -5.7045 N   0  0  0  0  0  0  0  0  0  0  0  0
    3.1582   -0.6475    1.1594 C   0  0  0  0  0  0  0  0  0  0  0  0
    0.4200    0.5388   -0.6937 H   0  0  0  0  0  0  0  0  0  0  0  0
    0.5518    0.4797    1.0543 H   0  0  0  0  0  0  0  0  0  0  0  0
    0.5515   -1.0257    0.0877 H   0  0  0  0  0  0  0  0  0  0  0  0
    4.1573    0.7040   -0.9010 H   0  0  0  0  0  0  0  0  0  0  0  0
    1.6871    2.1425   -1.5959 H   0  0  0  0  0  0  0  0  0  0  0  0
    1.7450    0.6834   -2.5976 H   0  0  0  0  0  0  0  0  0  0  0  0
    4.1391    0.1979   -3.5164 H   0  0  0  0  0  0  0  0  0  0  0  0
    2.5569    6.4338   -2.9267 H   0  0  0  0  0  0  0  0  0  0  0  0
    6.4352    3.0251   -6.1932 H   0  0  0  0  0  0  0  0  0  0  0  0
    5.8362    4.6674   -5.8678 H   0  0  0  0  0  0  0  0  0  0  0  0
    2.4741   -1.1102    1.8770 H   0  0  0  0  0  0  0  0  0  0  0  0
    3.7901    0.0602    1.7061 H   0  0  0  0  0  0  0  0  0  0  0  0
    3.7907   -1.4386    0.7425 H   0  0  0  0  0  0  0  0  0  0  0  0
  1  2  1  0  0  0  0
  1 16  1  0  0  0  0
  1 17  1  0  0  0  0
  1 18  1  0  0  0  0
  2  3  2  0  0  0  0
  2 15  1  0  0  0  0
  3  4  1  0  0  0  0
  3 19  1  0  0  0  0
  4  5  1  0  0  0  0
  4 20  1  0  0  0  0
  4 21  1  0  0  0  0
  5  6  1  0  0  0  0
  5 10  1  0  0  0  0
  6  7  2  0  0  0  0
  6 22  1  0  0  0  0
  7  8  1  0  0  0  0
  8  9  2  0  0  0  0
  8 14  1  0  0  0  0
  9 10  1  0  0  0  0
  9 13  1  0  0  0  0
 10 11  2  0  0  0  0
 11 12  1  0  0  0  0
 12 13  2  0  0  0  0
 12 23  1  0  0  0  0
 14 24  1  0  0  0  0
 14 25  1  0  0  0  0
 15 26  1  0  0  0  0
 15 27  1  0  0  0  0
 15 28  1  0  0  0  0
M  END
$$$$
