L22
 OpenBabel04121316143D

 20 21  0  0  0  0  0  0  0  0999 V2000
    1.0108   -0.0420    0.0599 N   0  0  0  0  0  0  0  0  0  0  0  0
    2.3518    0.0013    0.0303 C   0  0  0  0  0  0  0  0  0  0  0  0
    3.1192    1.5341    0.0468 S   0  0  0  0  0  0  0  0  0  0  0  0
    4.6306    0.7511    0.0034 C   0  0  0  0  0  0  0  0  0  0  0  0
    4.4824   -0.6257   -0.0366 C   0  0  0  0  0  0  0  0  0  0  0  0
    3.1458   -1.0371   -0.0097 N   0  0  0  0  0  0  0  0  0  0  0  0
    5.6365   -1.5472   -0.0256 C   0  0  0  0  0  0  0  0  0  0  0  0
    6.9172   -1.0409    0.0945 C   0  0  0  0  0  0  0  0  0  0  0  0
    7.8983   -1.9434    0.3985 C   0  0  0  0  0  0  0  0  0  0  0  0
    7.7035   -3.2666    0.3789 N   0  0  0  0  0  0  0  0  0  0  0  0
    6.4631   -3.6831    0.1023 C   0  0  0  0  0  0  0  0  0  0  0  0
    5.4022   -2.8790   -0.0488 N   0  0  0  0  0  0  0  0  0  0  0  0
    6.2933   -5.0351   -0.0422 N   0  0  0  0  0  0  0  0  0  0  0  0
    0.4683    0.8087    0.0496 H   0  0  0  0  0  0  0  0  0  0  0  0
    0.5208   -0.9239    0.0376 H   0  0  0  0  0  0  0  0  0  0  0  0
    5.5257    1.3518    0.0217 H   0  0  0  0  0  0  0  0  0  0  0  0
    7.1605    0.0070    0.0193 H   0  0  0  0  0  0  0  0  0  0  0  0
    8.8870   -1.6075    0.6951 H   0  0  0  0  0  0  0  0  0  0  0  0
    7.1376   -5.5654   -0.1913 H   0  0  0  0  0  0  0  0  0  0  0  0
    5.4093   -5.3286   -0.4223 H   0  0  0  0  0  0  0  0  0  0  0  0
  1  2  1  0  0  0  0
  1 14  1  0  0  0  0
  1 15  1  0  0  0  0
  2  3  1  0  0  0  0
  2  6  2  0  0  0  0
  3  4  1  0  0  0  0
  4  5  2  0  0  0  0
  4 16  1  0  0  0  0
  5  6  1  0  0  0  0
  5  7  1  0  0  0  0
  7  8  2  0  0  0  0
  7 12  1  0  0  0  0
  8  9  1  0  0  0  0
  8 17  1  0  0  0  0
  9 10  2  0  0  0  0
  9 18  1  0  0  0  0
 10 11  1  0  0  0  0
 11 12  2  0  0  0  0
 11 13  1  0  0  0  0
 13 19  1  0  0  0  0
 13 20  1  0  0  0  0
M  END
$$$$
