L3A
 OpenBabel04121316143D

 35 34  0  0  1  0  0  0  0  0999 V2000
    2.9965    0.8424   -1.0138 N   0  0  0  0  0  0  0  0  0  0  0  0
    2.3936    0.0282    0.0581 C   0  0  2  0  0  0  0  0  0  0  0  0
    1.3576   -0.1826   -0.1971 H   0  0  0  0  0  0  0  0  0  0  0  0
    3.0036    0.1420    1.7797 P   0  0  1  0  0  0  0  0  0  0  0  0
    2.4468   -1.1911    2.2171 O   0  0  0  0  0  0  0  0  0  0  0  0
    2.6406    1.9364    1.9928 C   0  0  0  0  0  0  0  0  0  0  0  0
    2.0045    2.6142    0.8060 C   0  0  1  0  0  0  0  0  0  0  0  0
    2.7583    2.4944    0.0454 H   0  0  0  0  0  0  0  0  0  0  0  0
    0.5741    2.0978    0.5052 C   0  0  0  0  0  0  0  0  0  0  0  0
   -0.1628    2.7007   -0.2332 O   0  0  0  0  0  0  0  0  0  0  0  0
    0.1074    0.9469    1.0560 O   0  0  0  0  0  0  0  0  0  0  0  0
    1.9962    4.1198    0.6198 C   0  0  0  0  0  0  0  0  0  0  0  0
    3.5803    0.2497    3.4072 O   0  0  0  0  0  0  0  0  0  0  0  0
    3.0390   -1.3177   -0.5191 C   0  0  0  0  0  0  0  0  0  0  0  0
    4.5984   -1.3535   -0.6398 C   0  0  0  0  0  0  0  0  0  0  0  0
    5.3770   -1.2225    0.6663 C   0  0  0  0  0  0  0  0  0  0  0  0
    4.9992   -2.6578   -1.3055 C   0  0  0  0  0  0  0  0  0  0  0  0
    3.9258    1.2065   -0.8267 H   0  0  0  0  0  0  0  0  0  0  0  0
    2.3744    1.5271   -1.4410 H   0  0  0  0  0  0  0  0  0  0  0  0
    3.6625    2.3673    2.1016 H   0  0  0  0  0  0  0  0  0  0  0  0
    2.1113    2.1677    2.9110 H   0  0  0  0  0  0  0  0  0  0  0  0
    0.5459    0.1639    1.4448 H   0  0  0  0  0  0  0  0  0  0  0  0
    2.9923    4.5673    0.7102 H   0  0  0  0  0  0  0  0  0  0  0  0
    1.2792    4.5803    1.2864 H   0  0  0  0  0  0  0  0  0  0  0  0
    1.6892    4.3236   -0.4239 H   0  0  0  0  0  0  0  0  0  0  0  0
    3.7826   -0.6755    3.6687 H   0  0  0  0  0  0  0  0  0  0  0  0
    2.6320   -1.4673   -1.5366 H   0  0  0  0  0  0  0  0  0  0  0  0
    2.6665   -2.1825    0.0404 H   0  0  0  0  0  0  0  0  0  0  0  0
    4.9434   -0.5503   -1.3031 H   0  0  0  0  0  0  0  0  0  0  0  0
    5.0772   -2.0043    1.3697 H   0  0  0  0  0  0  0  0  0  0  0  0
    5.2556   -0.2368    1.1161 H   0  0  0  0  0  0  0  0  0  0  0  0
    6.4559   -1.3161    0.5061 H   0  0  0  0  0  0  0  0  0  0  0  0
    4.6234   -3.5072   -0.7285 H   0  0  0  0  0  0  0  0  0  0  0  0
    6.0889   -2.7252   -1.3656 H   0  0  0  0  0  0  0  0  0  0  0  0
    4.5930   -2.7091   -2.3196 H   0  0  0  0  0  0  0  0  0  0  0  0
  1 18  1  0  0  0  0
  1 19  1  0  0  0  0
  2  4  1  0  0  0  0
  2 14  1  0  0  0  0
  2  3  1  6  0  0  0
  2  1  1  0  0  0  0
  4  5  2  6  0  0  0
  4  6  1  0  0  0  0
  4 13  1  0  0  0  0
  6  7  1  0  0  0  0
  6 20  1  0  0  0  0
  6 21  1  0  0  0  0
  7  8  1  6  0  0  0
  7  9  1  0  0  0  0
  7 12  1  0  0  0  0
  9 10  2  0  0  0  0
  9 11  1  0  0  0  0
 11 22  1  0  0  0  0
 12 23  1  0  0  0  0
 12 24  1  0  0  0  0
 12 25  1  0  0  0  0
 13 26  1  0  0  0  0
 14 15  1  0  0  0  0
 14 27  1  0  0  0  0
 14 28  1  0  0  0  0
 15 16  1  0  0  0  0
 15 17  1  0  0  0  0
 15 29  1  0  0  0  0
 16 30  1  0  0  0  0
 16 31  1  0  0  0  0
 16 32  1  0  0  0  0
 17 33  1  0  0  0  0
 17 34  1  0  0  0  0
 17 35  1  0  0  0  0
M  END
$$$$
