L3G
 OpenBabel04121316143D

 79 85  0  0  1  0  0  0  0  0999 V2000
   13.5518    4.5687   -8.0386 C   0  0  0  0  0  0  0  0  0  0  0  0
   13.2505    3.2986   -7.4339 O   0  0  0  0  0  0  0  0  0  0  0  0
   12.2671    3.2727   -6.4823 C   0  0  0  0  0  0  0  0  0  0  0  0
   11.3611    2.2407   -6.6305 C   0  0  0  0  0  0  0  0  0  0  0  0
   10.0210    2.4698   -6.3692 C   0  0  0  0  0  0  0  0  0  0  0  0
    9.7281    3.4174   -5.4005 C   0  0  0  0  0  0  0  0  0  0  0  0
   10.7818    4.1596   -4.8360 C   0  0  0  0  0  0  0  0  0  0  0  0
   12.0596    4.1445   -5.4324 C   0  0  0  0  0  0  0  0  0  0  0  0
   13.0738    4.9863   -4.9366 N   0  0  0  0  0  0  0  0  0  0  0  0
   14.4305    4.8767   -5.2636 C   0  0  0  0  0  0  0  0  0  0  0  0
   14.9752    3.9430   -5.8126 O   0  0  0  0  0  0  0  0  0  0  0  0
   15.2228    6.0038   -4.8675 C   0  0  0  0  0  0  0  0  0  0  0  0
   15.0709    6.7223   -3.7106 C   0  0  0  0  0  0  0  0  0  0  0  0
   16.2521    7.4488   -3.5158 C   0  0  0  0  0  0  0  0  0  0  0  0
   17.0662    7.2759   -4.6395 C   0  0  0  0  0  0  0  0  0  0  0  0
   16.3851    6.4309   -5.4969 N   0  0  0  0  0  0  0  0  0  0  0  0
   16.8494    5.9949   -6.8052 C   0  0  0  0  0  0  0  0  0  0  0  0
   18.3272    7.8822   -4.7184 C   0  0  0  0  0  0  0  0  0  0  0  0
   18.7428    8.6502   -3.6226 C   0  0  0  0  0  0  0  0  0  0  0  0
   17.9442    8.8027   -2.4909 C   0  0  0  0  0  0  0  0  0  0  0  0
   16.6947    8.2022   -2.4254 C   0  0  0  0  0  0  0  0  0  0  0  0
    9.0078    1.8376   -7.2230 C   0  0  0  0  0  0  0  0  0  0  0  0
    7.7179    1.7272   -6.8452 N   0  0  0  0  0  0  0  0  0  0  0  0
    7.1231    1.1230   -7.9000 N   0  0  0  0  0  0  0  0  0  0  0  0
    7.9570    0.9239   -8.9690 C   0  0  0  0  0  0  0  0  0  0  0  0
    9.2053    1.3391   -8.5625 C   0  0  0  0  0  0  0  0  0  0  0  0
   10.2419    1.1604   -9.4984 C   0  0  0  0  0  0  0  0  0  0  0  0
   11.5445    1.5608   -9.3285 N   0  0  0  0  0  0  0  0  0  0  0  0
    9.9813    0.5344  -10.6583 N   0  0  0  0  0  0  0  0  0  0  0  0
    8.7175    0.1848  -10.9246 C   0  0  0  0  0  0  0  0  0  0  0  0
    7.6412    0.3618  -10.1506 N   0  0  0  0  0  0  0  0  0  0  0  0
    5.8090    0.5131   -7.7535 C   0  0  2  0  0  0  0  0  0  0  0  0
    5.4726    0.6921   -6.7221 H   0  0  0  0  0  0  0  0  0  0  0  0
    5.9479   -1.0067   -7.9407 C   0  0  0  0  0  0  0  0  0  0  0  0
    4.5919   -1.6733   -7.9298 C   0  0  0  0  0  0  0  0  0  0  0  0
    3.7149   -1.0905   -8.9578 N   0  0  3  0  0  0  0  0  0  0  0  0
    3.4749    0.3292   -8.6440 C   0  0  0  0  0  0  0  0  0  0  0  0
    4.7674    1.1370   -8.6948 C   0  0  0  0  0  0  0  0  0  0  0  0
    4.2233   -1.3017  -10.3494 C   0  0  0  0  0  0  0  0  0  0  0  0
    4.4175   -2.7924  -10.6721 C   0  0  0  0  0  0  0  0  0  0  0  0
    3.0677   -3.4882  -10.6375 C   0  0  0  0  0  0  0  0  0  0  0  0
    2.1798   -2.8987  -11.5929 O   0  0  0  0  0  0  0  0  0  0  0  0
    1.9450   -1.5108  -11.3320 C   0  0  0  0  0  0  0  0  0  0  0  0
    3.2496   -0.7327  -11.3911 C   0  0  0  0  0  0  0  0  0  0  0  0
   14.5901    4.5317   -8.3943 H   0  0  0  0  0  0  0  0  0  0  0  0
   13.4702    5.4455   -7.3892 H   0  0  0  0  0  0  0  0  0  0  0  0
   12.8991    4.7408   -8.8944 H   0  0  0  0  0  0  0  0  0  0  0  0
   11.6809    1.3386   -7.1362 H   0  0  0  0  0  0  0  0  0  0  0  0
    8.6994    3.5598   -5.0777 H   0  0  0  0  0  0  0  0  0  0  0  0
   10.5710    4.7548   -3.9537 H   0  0  0  0  0  0  0  0  0  0  0  0
   12.7929    5.6826   -4.2637 H   0  0  0  0  0  0  0  0  0  0  0  0
   14.2784    6.5957   -2.9866 H   0  0  0  0  0  0  0  0  0  0  0  0
   17.8278    6.4239   -7.0352 H   0  0  0  0  0  0  0  0  0  0  0  0
   16.1344    6.3307   -7.5633 H   0  0  0  0  0  0  0  0  0  0  0  0
   16.9430    4.9068   -6.8277 H   0  0  0  0  0  0  0  0  0  0  0  0
   18.9761    7.7575   -5.5792 H   0  0  0  0  0  0  0  0  0  0  0  0
   19.7144    9.1351   -3.6507 H   0  0  0  0  0  0  0  0  0  0  0  0
   18.2860    9.3913   -1.6464 H   0  0  0  0  0  0  0  0  0  0  0  0
   16.0660    8.2916   -1.5457 H   0  0  0  0  0  0  0  0  0  0  0  0
   11.7018    2.4376   -8.8500 H   0  0  0  0  0  0  0  0  0  0  0  0
   12.2127    1.3191  -10.0394 H   0  0  0  0  0  0  0  0  0  0  0  0
    8.5556   -0.2933  -11.8840 H   0  0  0  0  0  0  0  0  0  0  0  0
    6.6043   -1.4362   -7.1774 H   0  0  0  0  0  0  0  0  0  0  0  0
    6.4368   -1.2523   -8.8882 H   0  0  0  0  0  0  0  0  0  0  0  0
    4.1336   -1.5688   -6.9395 H   0  0  0  0  0  0  0  0  0  0  0  0
    4.7122   -2.7522   -8.0645 H   0  0  0  0  0  0  0  0  0  0  0  0
    3.0174    0.4089   -7.6490 H   0  0  0  0  0  0  0  0  0  0  0  0
    2.7216    0.7647   -9.3087 H   0  0  0  0  0  0  0  0  0  0  0  0
    4.5683    2.1808   -8.4278 H   0  0  0  0  0  0  0  0  0  0  0  0
    5.1400    1.1729   -9.7251 H   0  0  0  0  0  0  0  0  0  0  0  0
    5.1862   -0.8085  -10.5065 H   0  0  0  0  0  0  0  0  0  0  0  0
    5.1280   -3.2802   -9.9975 H   0  0  0  0  0  0  0  0  0  0  0  0
    4.8563   -2.8822  -11.6744 H   0  0  0  0  0  0  0  0  0  0  0  0
    2.6171   -3.4451   -9.6385 H   0  0  0  0  0  0  0  0  0  0  0  0
    3.1947   -4.5437  -10.8924 H   0  0  0  0  0  0  0  0  0  0  0  0
    1.4473   -1.3989  -10.3608 H   0  0  0  0  0  0  0  0  0  0  0  0
    1.2584   -1.1310  -12.0930 H   0  0  0  0  0  0  0  0  0  0  0  0
    3.0787    0.3397  -11.2569 H   0  0  0  0  0  0  0  0  0  0  0  0
    3.7021   -0.8328  -12.3855 H   0  0  0  0  0  0  0  0  0  0  0  0
  1  2  1  0  0  0  0
  1 45  1  0  0  0  0
  1 46  1  0  0  0  0
  1 47  1  0  0  0  0
  2  3  1  0  0  0  0
  3  4  2  0  0  0  0
  3  8  1  0  0  0  0
  4  5  1  0  0  0  0
  4 48  1  0  0  0  0
  5  6  2  0  0  0  0
  5 22  1  0  0  0  0
  6  7  1  0  0  0  0
  6 49  1  0  0  0  0
  7  8  2  0  0  0  0
  7 50  1  0  0  0  0
  8  9  1  0  0  0  0
  9 10  1  0  0  0  0
  9 51  1  0  0  0  0
 10 11  2  0  0  0  0
 10 12  1  0  0  0  0
 12 13  2  0  0  0  0
 12 16  1  0  0  0  0
 13 14  1  0  0  0  0
 13 52  1  0  0  0  0
 14 15  2  0  0  0  0
 14 21  1  0  0  0  0
 15 16  1  0  0  0  0
 15 18  1  0  0  0  0
 16 17  1  0  0  0  0
 17 53  1  0  0  0  0
 17 54  1  0  0  0  0
 17 55  1  0  0  0  0
 18 19  2  0  0  0  0
 18 56  1  0  0  0  0
 19 20  1  0  0  0  0
 19 57  1  0  0  0  0
 20 21  2  0  0  0  0
 20 58  1  0  0  0  0
 21 59  1  0  0  0  0
 22 23  2  0  0  0  0
 22 26  1  0  0  0  0
 23 24  1  0  0  0  0
 24 25  1  0  0  0  0
 25 26  2  0  0  0  0
 25 31  1  0  0  0  0
 26 27  1  0  0  0  0
 27 28  1  0  0  0  0
 27 29  2  0  0  0  0
 28 60  1  0  0  0  0
 28 61  1  0  0  0  0
 29 30  1  0  0  0  0
 30 31  2  0  0  0  0
 30 62  1  0  0  0  0
 32 34  1  0  0  0  0
 32 38  1  0  0  0  0
 32 33  1  1  0  0  0
 32 24  1  0  0  0  0
 34 35  1  0  0  0  0
 34 63  1  0  0  0  0
 34 64  1  0  0  0  0
 35 36  1  0  0  0  0
 35 65  1  0  0  0  0
 35 66  1  0  0  0  0
 36 37  1  0  0  0  0
 36 39  1  0  0  0  0
 37 38  1  0  0  0  0
 37 67  1  0  0  0  0
 37 68  1  0  0  0  0
 38 69  1  0  0  0  0
 38 70  1  0  0  0  0
 39 40  1  0  0  0  0
 39 44  1  0  0  0  0
 39 71  1  0  0  0  0
 40 41  1  0  0  0  0
 40 72  1  0  0  0  0
 40 73  1  0  0  0  0
 41 42  1  0  0  0  0
 41 74  1  0  0  0  0
 41 75  1  0  0  0  0
 42 43  1  0  0  0  0
 43 44  1  0  0  0  0
 43 76  1  0  0  0  0
 43 77  1  0  0  0  0
 44 78  1  0  0  0  0
 44 79  1  0  0  0  0
M  END
$$$$
