L41
 OpenBabel04121316143D

 55 56  0  0  0  0  0  0  0  0999 V2000
    0.9550    0.0983   -0.0205 C   0  0  0  0  0  0  0  0  0  0  0  0
    2.4623    0.2080   -0.0731 C   0  0  0  0  0  0  0  0  0  0  0  0
    2.9215    0.8995    1.2149 C   0  0  0  0  0  0  0  0  0  0  0  0
    4.4237    0.8054    1.3479 C   0  0  0  0  0  0  0  0  0  0  0  0
    5.1426   -0.3137    1.8184 C   0  0  0  0  0  0  0  0  0  0  0  0
    4.6561   -1.4759    2.3845 O   0  0  0  0  0  0  0  0  0  0  0  0
    3.2498   -1.5566    2.5125 C   0  0  0  0  0  0  0  0  0  0  0  0
    2.6953   -2.8700    2.9717 C   0  0  0  0  0  0  0  0  0  0  0  0
    1.1709   -2.7818    2.9310 C   0  0  0  0  0  0  0  0  0  0  0  0
    0.6852   -3.9968    3.4837 O   0  0  0  0  0  0  0  0  0  0  0  0
   -0.6696   -4.1250    3.5142 C   0  0  0  0  0  0  0  0  0  0  0  0
   -1.1384   -5.4345    3.5795 C   0  0  0  0  0  0  0  0  0  0  0  0
   -2.5049   -5.6839    3.4842 C   0  0  0  0  0  0  0  0  0  0  0  0
   -3.4073   -4.6204    3.4524 C   0  0  0  0  0  0  0  0  0  0  0  0
   -2.9374   -3.3139    3.5437 C   0  0  0  0  0  0  0  0  0  0  0  0
   -1.5711   -3.0640    3.5097 C   0  0  0  0  0  0  0  0  0  0  0  0
   -4.7186   -4.9665    3.3244 O   0  0  0  0  0  0  0  0  0  0  0  0
   -5.6508   -3.8957    3.2238 C   0  0  0  0  0  0  0  0  0  0  0  0
   -7.0343   -4.4853    2.9799 C   0  0  0  0  0  0  0  0  0  0  0  0
   -7.2800   -5.6607    2.8424 O   0  0  0  0  0  0  0  0  0  0  0  0
   -8.0128   -3.5398    2.9240 O   0  0  0  0  0  0  0  0  0  0  0  0
    6.5311   -0.3117    1.6615 C   0  0  0  0  0  0  0  0  0  0  0  0
    7.1686    0.7158    0.9482 C   0  0  0  0  0  0  0  0  0  0  0  0
    6.4860    1.8993    0.5962 C   0  0  0  0  0  0  0  0  0  0  0  0
    5.1130    1.9268    0.8246 C   0  0  0  0  0  0  0  0  0  0  0  0
    4.2536    2.9327    0.4794 O   0  0  0  0  0  0  0  0  0  0  0  0
    7.3135    3.0064    0.0135 C   0  0  0  0  0  0  0  0  0  0  0  0
    8.5155    2.7998   -0.1799 O   0  0  0  0  0  0  0  0  0  0  0  0
    6.7808    4.3862   -0.2896 C   0  0  0  0  0  0  0  0  0  0  0  0
    0.5765   -0.4358   -0.8921 H   0  0  0  0  0  0  0  0  0  0  0  0
    0.5175    1.0996    0.0129 H   0  0  0  0  0  0  0  0  0  0  0  0
    0.6351   -0.4370    0.8806 H   0  0  0  0  0  0  0  0  0  0  0  0
    2.7890    0.7765   -0.9504 H   0  0  0  0  0  0  0  0  0  0  0  0
    2.9054   -0.7858   -0.2225 H   0  0  0  0  0  0  0  0  0  0  0  0
    2.4119    0.5822    2.1194 H   0  0  0  0  0  0  0  0  0  0  0  0
    2.5526    1.9294    1.1884 H   0  0  0  0  0  0  0  0  0  0  0  0
    2.8020   -1.4629    1.5348 H   0  0  0  0  0  0  0  0  0  0  0  0
    2.9123   -0.8056    3.2313 H   0  0  0  0  0  0  0  0  0  0  0  0
    3.0411   -3.0752    3.9854 H   0  0  0  0  0  0  0  0  0  0  0  0
    3.0453   -3.6814    2.3273 H   0  0  0  0  0  0  0  0  0  0  0  0
    0.8044   -2.6542    1.8990 H   0  0  0  0  0  0  0  0  0  0  0  0
    0.8416   -1.9162    3.5217 H   0  0  0  0  0  0  0  0  0  0  0  0
   -0.4367   -6.2595    3.6732 H   0  0  0  0  0  0  0  0  0  0  0  0
   -2.8637   -6.7090    3.4312 H   0  0  0  0  0  0  0  0  0  0  0  0
   -3.6012   -2.4626    3.6292 H   0  0  0  0  0  0  0  0  0  0  0  0
   -1.2515   -2.0291    3.4935 H   0  0  0  0  0  0  0  0  0  0  0  0
   -5.4051   -3.2387    2.3790 H   0  0  0  0  0  0  0  0  0  0  0  0
   -5.6716   -3.3412    4.1688 H   0  0  0  0  0  0  0  0  0  0  0  0
   -7.7248   -2.6180    3.0453 H   0  0  0  0  0  0  0  0  0  0  0  0
    7.1287   -1.1234    2.0763 H   0  0  0  0  0  0  0  0  0  0  0  0
    8.2160    0.5753    0.6732 H   0  0  0  0  0  0  0  0  0  0  0  0
    4.5658    3.8253    0.6283 H   0  0  0  0  0  0  0  0  0  0  0  0
    5.7340    4.5817   -0.1663 H   0  0  0  0  0  0  0  0  0  0  0  0
    6.9615    4.6065   -1.3424 H   0  0  0  0  0  0  0  0  0  0  0  0
    7.2825    5.1029    0.3654 H   0  0  0  0  0  0  0  0  0  0  0  0
  1  2  1  0  0  0  0
  1 30  1  0  0  0  0
  1 31  1  0  0  0  0
  1 32  1  0  0  0  0
  2  3  1  0  0  0  0
  2 33  1  0  0  0  0
  2 34  1  0  0  0  0
  3  4  1  0  0  0  0
  3 35  1  0  0  0  0
  3 36  1  0  0  0  0
  4  5  2  0  0  0  0
  4 25  1  0  0  0  0
  5  6  1  0  0  0  0
  5 22  1  0  0  0  0
  6  7  1  0  0  0  0
  7  8  1  0  0  0  0
  7 37  1  0  0  0  0
  7 38  1  0  0  0  0
  8  9  1  0  0  0  0
  8 39  1  0  0  0  0
  8 40  1  0  0  0  0
  9 10  1  0  0  0  0
  9 41  1  0  0  0  0
  9 42  1  0  0  0  0
 10 11  1  0  0  0  0
 11 12  2  0  0  0  0
 11 16  1  0  0  0  0
 12 13  1  0  0  0  0
 12 43  1  0  0  0  0
 13 14  2  0  0  0  0
 13 44  1  0  0  0  0
 14 15  1  0  0  0  0
 14 17  1  0  0  0  0
 15 16  2  0  0  0  0
 15 45  1  0  0  0  0
 16 46  1  0  0  0  0
 17 18  1  0  0  0  0
 18 19  1  0  0  0  0
 18 47  1  0  0  0  0
 18 48  1  0  0  0  0
 19 20  2  0  0  0  0
 19 21  1  0  0  0  0
 21 49  1  0  0  0  0
 22 23  2  0  0  0  0
 22 50  1  0  0  0  0
 23 24  1  0  0  0  0
 23 51  1  0  0  0  0
 24 25  2  0  0  0  0
 24 27  1  0  0  0  0
 25 26  1  0  0  0  0
 26 52  1  0  0  0  0
 27 28  2  0  0  0  0
 27 29  1  0  0  0  0
 29 53  1  0  0  0  0
 29 54  1  0  0  0  0
 29 55  1  0  0  0  0
M  END
$$$$
