L4G
 OpenBabel04121316143D

 68 72  0  0  0  0  0  0  0  0999 V2000
    0.8126   -0.0647    0.0898 O   0  0  0  0  0  0  0  0  0  0  0  0
    2.1721   -0.0004    0.1296 C   0  0  0  0  0  0  0  0  0  0  0  0
    2.8436    1.2143    0.0670 C   0  0  0  0  0  0  0  0  0  0  0  0
    4.2392    1.2365    0.0950 C   0  0  0  0  0  0  0  0  0  0  0  0
    4.9823    0.0445    0.1423 C   0  0  0  0  0  0  0  0  0  0  0  0
    4.2569   -1.1783    0.1862 C   0  0  0  0  0  0  0  0  0  0  0  0
    2.8650   -1.1947    0.2108 C   0  0  0  0  0  0  0  0  0  0  0  0
    4.9192   -2.3840    0.1265 C   0  0  0  0  0  0  0  0  0  0  0  0
    6.2156   -2.3621   -0.3242 C   0  0  0  0  0  0  0  0  0  0  0  0
    6.9881   -1.1761   -0.3557 C   0  0  0  0  0  0  0  0  0  0  0  0
    6.3986    0.0222    0.0944 C   0  0  0  0  0  0  0  0  0  0  0  0
    7.0028    1.2346    0.4438 O   0  0  0  0  0  0  0  0  0  0  0  0
    8.2870    1.3889    0.9645 C   0  0  0  0  0  0  0  0  0  0  0  0
    8.8935    2.6187    0.6658 C   0  0  0  0  0  0  0  0  0  0  0  0
   10.2928    2.7221    0.5310 C   0  0  0  0  0  0  0  0  0  0  0  0
   11.1414    1.6640    0.8183 C   0  0  0  0  0  0  0  0  0  0  0  0
   10.5268    0.5000    1.3629 C   0  0  0  0  0  0  0  0  0  0  0  0
    9.0986    0.3786    1.4697 C   0  0  0  0  0  0  0  0  0  0  0  0
   12.4838    1.9262    0.4169 O   0  0  0  0  0  0  0  0  0  0  0  0
   13.1160    0.7994   -0.2188 C   0  0  0  0  0  0  0  0  0  0  0  0
   14.6645    0.5501   -0.7285 C   0  0  0  0  0  0  0  0  0  0  0  0
   15.7180   -0.5885   -0.4779 N   0  0  0  0  0  0  0  0  0  0  0  0
   16.3359   -0.2845    0.7908 C   0  0  0  0  0  0  0  0  0  0  0  0
   15.7001   -1.0253    1.9507 C   0  0  0  0  0  0  0  0  0  0  0  0
   16.0435   -2.5008    1.8812 C   0  0  0  0  0  0  0  0  0  0  0  0
   15.5226   -3.0530    0.5749 C   0  0  0  0  0  0  0  0  0  0  0  0
   15.8710   -2.0946   -0.6633 C   0  0  0  0  0  0  0  0  0  0  0  0
    8.3673   -1.3481   -0.7998 C   0  0  0  0  0  0  0  0  0  0  0  0
    9.1177   -0.3074   -1.3433 C   0  0  0  0  0  0  0  0  0  0  0  0
   10.4690   -0.4451   -1.5571 C   0  0  0  0  0  0  0  0  0  0  0  0
   11.0806   -1.6141   -1.1211 C   0  0  0  0  0  0  0  0  0  0  0  0
   10.3787   -2.6067   -0.4811 C   0  0  0  0  0  0  0  0  0  0  0  0
    9.0254   -2.5309   -0.4415 C   0  0  0  0  0  0  0  0  0  0  0  0
   12.7738   -1.9026   -1.1257 S   0  0  0  0  0  0  0  0  0  0  0  0
   13.3169   -1.3211   -2.3641 O   0  0  0  0  0  0  0  0  0  0  0  0
   13.1929   -1.6339    0.2036 O   0  0  0  0  0  0  0  0  0  0  0  0
   13.0506   -3.5812   -1.1536 C   0  0  0  0  0  0  0  0  0  0  0  0
    0.4698    0.8419    0.0415 H   0  0  0  0  0  0  0  0  0  0  0  0
    2.3063    2.1519   -0.0174 H   0  0  0  0  0  0  0  0  0  0  0  0
    4.7497    2.1929    0.0063 H   0  0  0  0  0  0  0  0  0  0  0  0
    2.3160   -2.1335    0.2183 H   0  0  0  0  0  0  0  0  0  0  0  0
    4.4296   -3.3385    0.2896 H   0  0  0  0  0  0  0  0  0  0  0  0
    6.6289   -3.3127   -0.6575 H   0  0  0  0  0  0  0  0  0  0  0  0
    8.2949    3.4733    0.3678 H   0  0  0  0  0  0  0  0  0  0  0  0
   10.7292    3.5879    0.0454 H   0  0  0  0  0  0  0  0  0  0  0  0
   11.0647   -0.4329    1.5371 H   0  0  0  0  0  0  0  0  0  0  0  0
    8.6631   -0.6007    1.6789 H   0  0  0  0  0  0  0  0  0  0  0  0
   12.6034    0.7225   -1.1673 H   0  0  0  0  0  0  0  0  0  0  0  0
   12.8710    0.1209    0.5539 H   0  0  0  0  0  0  0  0  0  0  0  0
   15.1178    1.4604   -0.3387 H   0  0  0  0  0  0  0  0  0  0  0  0
   14.6880    0.7607   -1.8143 H   0  0  0  0  0  0  0  0  0  0  0  0
   16.2899    0.7810    0.9858 H   0  0  0  0  0  0  0  0  0  0  0  0
   17.3977   -0.5268    0.6967 H   0  0  0  0  0  0  0  0  0  0  0  0
   14.6097   -0.8960    1.9925 H   0  0  0  0  0  0  0  0  0  0  0  0
   16.0867   -0.5848    2.8643 H   0  0  0  0  0  0  0  0  0  0  0  0
   15.5697   -3.0190    2.7241 H   0  0  0  0  0  0  0  0  0  0  0  0
   17.1225   -2.6556    1.9394 H   0  0  0  0  0  0  0  0  0  0  0  0
   14.4664   -3.1613    0.7877 H   0  0  0  0  0  0  0  0  0  0  0  0
   15.8222   -4.1048    0.4244 H   0  0  0  0  0  0  0  0  0  0  0  0
   15.5641   -2.5023   -1.6419 H   0  0  0  0  0  0  0  0  0  0  0  0
   16.9590   -2.3007   -0.7689 H   0  0  0  0  0  0  0  0  0  0  0  0
    8.7535    0.7167   -1.3350 H   0  0  0  0  0  0  0  0  0  0  0  0
   10.9637    0.4828   -1.8266 H   0  0  0  0  0  0  0  0  0  0  0  0
   10.8623   -3.3976    0.0756 H   0  0  0  0  0  0  0  0  0  0  0  0
    8.5337   -3.3638    0.0420 H   0  0  0  0  0  0  0  0  0  0  0  0
   12.5114   -4.0060   -1.9707 H   0  0  0  0  0  0  0  0  0  0  0  0
   12.7866   -3.9216   -0.1422 H   0  0  0  0  0  0  0  0  0  0  0  0
   14.1126   -3.6960   -1.2774 H   0  0  0  0  0  0  0  0  0  0  0  0
  1  2  1  0  0  0  0
  1 38  1  0  0  0  0
  2  3  2  0  0  0  0
  2  7  1  0  0  0  0
  3  4  1  0  0  0  0
  3 39  1  0  0  0  0
  4  5  2  0  0  0  0
  4 40  1  0  0  0  0
  5  6  1  0  0  0  0
  5 11  1  0  0  0  0
  6  7  2  0  0  0  0
  6  8  1  0  0  0  0
  7 41  1  0  0  0  0
  8  9  2  0  0  0  0
  8 42  1  0  0  0  0
  9 10  1  0  0  0  0
  9 43  1  0  0  0  0
 10 11  2  0  0  0  0
 10 28  1  0  0  0  0
 11 12  1  0  0  0  0
 12 13  1  0  0  0  0
 13 14  2  0  0  0  0
 13 18  1  0  0  0  0
 14 15  1  0  0  0  0
 14 44  1  0  0  0  0
 15 16  2  0  0  0  0
 15 45  1  0  0  0  0
 16 17  1  0  0  0  0
 16 19  1  0  0  0  0
 17 18  2  0  0  0  0
 17 46  1  0  0  0  0
 18 47  1  0  0  0  0
 19 20  1  0  0  0  0
 20 21  1  0  0  0  0
 20 48  1  0  0  0  0
 20 49  1  0  0  0  0
 21 22  1  0  0  0  0
 21 50  1  0  0  0  0
 21 51  1  0  0  0  0
 22 23  1  0  0  0  0
 22 27  1  0  0  0  0
 23 24  1  0  0  0  0
 23 52  1  0  0  0  0
 23 53  1  0  0  0  0
 24 25  1  0  0  0  0
 24 54  1  0  0  0  0
 24 55  1  0  0  0  0
 25 26  1  0  0  0  0
 25 56  1  0  0  0  0
 25 57  1  0  0  0  0
 26 27  1  0  0  0  0
 26 58  1  0  0  0  0
 26 59  1  0  0  0  0
 27 60  1  0  0  0  0
 27 61  1  0  0  0  0
 28 29  2  0  0  0  0
 28 33  1  0  0  0  0
 29 30  1  0  0  0  0
 29 62  1  0  0  0  0
 30 31  2  0  0  0  0
 30 63  1  0  0  0  0
 31 32  1  0  0  0  0
 31 34  1  0  0  0  0
 32 33  2  0  0  0  0
 32 64  1  0  0  0  0
 33 65  1  0  0  0  0
 34 35  2  0  0  0  0
 34 36  2  0  0  0  0
 34 37  1  0  0  0  0
 37 66  1  0  0  0  0
 37 67  1  0  0  0  0
 37 68  1  0  0  0  0
M  END
$$$$
