L7A
 OpenBabel04121316143D

 35 37  0  0  0  0  0  0  0  0999 V2000
    0.8748   -0.0372   -0.1115 O   0  0  0  0  0  0  0  0  0  0  0  0
    2.0978   -0.0449   -0.0116 C   0  0  0  0  0  0  0  0  0  0  0  0
    2.7057   -0.0464    1.3462 C   0  0  0  0  0  0  0  0  0  0  0  0
    3.0084    1.1749    1.9722 C   0  0  0  0  0  0  0  0  0  0  0  0
    3.9666    1.1938    2.9955 C   0  0  0  0  0  0  0  0  0  0  0  0
    4.4712   -0.0052    3.5040 C   0  0  0  0  0  0  0  0  0  0  0  0
    4.0348   -1.2259    2.9849 C   0  0  0  0  0  0  0  0  0  0  0  0
    3.2062   -1.2492    1.8607 C   0  0  0  0  0  0  0  0  0  0  0  0
    2.9255   -0.1323   -1.1271 N   0  0  0  0  0  0  0  0  0  0  0  0
    4.3029   -0.0541   -1.2205 C   0  0  0  0  0  0  0  0  0  0  0  0
    5.0793    0.5384   -0.3135 C   0  0  0  0  0  0  0  0  0  0  0  0
    6.4907    0.7392   -0.3940 C   0  0  0  0  0  0  0  0  0  0  0  0
    7.1331    0.1434   -1.4035 C   0  0  0  0  0  0  0  0  0  0  0  0
    6.4209   -0.5785   -2.3408 N   0  0  0  0  0  0  0  0  0  0  0  0
    6.9162   -1.0499   -3.0866 H   0  0  0  0  0  0  0  0  0  0  0  0
    5.0372   -0.6392   -2.3938 C   0  0  0  0  0  0  0  0  0  0  0  0
    4.4342   -1.1819   -3.3253 O   0  0  0  0  0  0  0  0  0  0  0  0
    7.1296    1.6361    0.5813 C   0  0  0  0  0  0  0  0  0  0  0  0
    6.6913    2.9651    0.6596 C   0  0  0  0  0  0  0  0  0  0  0  0
    7.3203    3.8130    1.5475 C   0  0  0  0  0  0  0  0  0  0  0  0
    8.2419    3.3958    2.4373 N   0  0  0  0  0  0  0  0  0  0  0  0
    8.5600    2.0814    2.4201 C   0  0  0  0  0  0  0  0  0  0  0  0
    8.0665    1.1761    1.4971 C   0  0  0  0  0  0  0  0  0  0  0  0
    2.6695    2.1111    1.5341 H   0  0  0  0  0  0  0  0  0  0  0  0
    4.3836    2.1393    3.3398 H   0  0  0  0  0  0  0  0  0  0  0  0
    5.2235    0.0127    4.2904 H   0  0  0  0  0  0  0  0  0  0  0  0
    4.3812   -2.1572    3.4260 H   0  0  0  0  0  0  0  0  0  0  0  0
    3.0032   -2.1912    1.3569 H   0  0  0  0  0  0  0  0  0  0  0  0
    2.4353   -0.3086   -2.0027 H   0  0  0  0  0  0  0  0  0  0  0  0
    4.6933    0.9938    0.5618 H   0  0  0  0  0  0  0  0  0  0  0  0
    8.2026    0.2433   -1.5544 H   0  0  0  0  0  0  0  0  0  0  0  0
    5.8721    3.3340    0.0484 H   0  0  0  0  0  0  0  0  0  0  0  0
    7.0908    4.8745    1.5638 H   0  0  0  0  0  0  0  0  0  0  0  0
    9.2378    1.7621    3.2057 H   0  0  0  0  0  0  0  0  0  0  0  0
    8.3730    0.1370    1.5216 H   0  0  0  0  0  0  0  0  0  0  0  0
  1  2  2  0  0  0  0
  2  3  1  0  0  0  0
  2  9  1  0  0  0  0
  3  4  2  0  0  0  0
  3  8  1  0  0  0  0
  4  5  1  0  0  0  0
  4 24  1  0  0  0  0
  5  6  2  0  0  0  0
  5 25  1  0  0  0  0
  6  7  1  0  0  0  0
  6 26  1  0  0  0  0
  7  8  2  0  0  0  0
  7 27  1  0  0  0  0
  8 28  1  0  0  0  0
  9 10  1  0  0  0  0
  9 29  1  0  0  0  0
 10 11  2  0  0  0  0
 10 16  1  0  0  0  0
 11 12  1  0  0  0  0
 11 30  1  0  0  0  0
 12 13  2  0  0  0  0
 12 18  1  0  0  0  0
 13 14  1  0  0  0  0
 13 31  1  0  0  0  0
 14 15  1  0  0  0  0
 14 16  1  0  0  0  0
 16 17  2  0  0  0  0
 18 19  2  0  0  0  0
 18 23  1  0  0  0  0
 19 20  1  0  0  0  0
 19 32  1  0  0  0  0
 20 21  2  0  0  0  0
 20 33  1  0  0  0  0
 21 22  1  0  0  0  0
 22 23  2  0  0  0  0
 22 34  1  0  0  0  0
 23 35  1  0  0  0  0
M  END
$$$$
