L7O
 OpenBabel04121316143D

 54 57  0  0  0  0  0  0  0  0999 V2000
    0.9439    0.0172   -0.0383 C   0  0  0  0  0  0  0  0  0  0  0  0
    2.3857   -0.0550    0.0217 N   0  0  0  0  0  0  0  0  0  0  0  0
    2.9602   -0.7736   -1.0077 C   0  0  0  0  0  0  0  0  0  0  0  0
    3.9197   -0.2120   -1.7577 N   0  0  0  0  0  0  0  0  0  0  0  0
    4.5954   -1.0349   -2.5881 C   0  0  0  0  0  0  0  0  0  0  0  0
    4.4498   -2.3980   -2.5818 C   0  0  0  0  0  0  0  0  0  0  0  0
    3.3847   -2.8560   -1.8436 C   0  0  0  0  0  0  0  0  0  0  0  0
    2.6053   -2.0561   -1.1018 N   0  0  0  0  0  0  0  0  0  0  0  0
    2.8990   -4.2320   -2.0105 C   0  0  0  0  0  0  0  0  0  0  0  0
    3.5222   -5.2865   -1.4677 C   0  0  0  0  0  0  0  0  0  0  0  0
    3.1096   -6.5685   -1.7604 N   0  0  0  0  0  0  0  0  0  0  0  0
    3.5471   -7.3565   -1.3011 H   0  0  0  0  0  0  0  0  0  0  0  0
    2.1604   -6.8682   -2.7135 C   0  0  0  0  0  0  0  0  0  0  0  0
    1.8974   -8.0251   -3.0565 O   0  0  0  0  0  0  0  0  0  0  0  0
    1.4298   -5.6977   -3.3062 C   0  0  0  0  0  0  0  0  0  0  0  0
    1.7523   -4.4800   -2.8485 C   0  0  0  0  0  0  0  0  0  0  0  0
    0.4716   -5.9365   -4.2682 N   0  0  0  0  0  0  0  0  0  0  0  0
   -0.2292   -4.9506   -4.9296 C   0  0  0  0  0  0  0  0  0  0  0  0
   -0.1098   -3.7362   -4.7273 O   0  0  0  0  0  0  0  0  0  0  0  0
   -1.1588   -5.3320   -5.9994 C   0  0  0  0  0  0  0  0  0  0  0  0
   -1.4277   -6.6423   -6.3610 C   0  0  0  0  0  0  0  0  0  0  0  0
   -2.1618   -6.8853   -7.5233 C   0  0  0  0  0  0  0  0  0  0  0  0
   -2.7531   -5.8569   -8.2768 C   0  0  0  0  0  0  0  0  0  0  0  0
   -2.6064   -4.5599   -7.7668 C   0  0  0  0  0  0  0  0  0  0  0  0
   -1.7673   -4.2888   -6.6965 C   0  0  0  0  0  0  0  0  0  0  0  0
   -3.4325   -6.0977   -9.4555 N   0  0  0  0  0  0  0  0  0  0  0  0
   -3.7359   -5.0144  -10.4004 C   0  0  0  0  0  0  0  0  0  0  0  0
   -3.0664   -5.2977  -11.7411 C   0  0  0  0  0  0  0  0  0  0  0  0
   -3.5041   -6.6529  -12.2763 C   0  0  0  0  0  0  0  0  0  0  0  0
   -3.1563   -7.7401  -11.2647 C   0  0  0  0  0  0  0  0  0  0  0  0
   -3.8053   -7.4417   -9.9128 C   0  0  0  0  0  0  0  0  0  0  0  0
    0.5800    0.6691    0.7620 H   0  0  0  0  0  0  0  0  0  0  0  0
    0.5018   -0.9722    0.1196 H   0  0  0  0  0  0  0  0  0  0  0  0
    0.5721    0.4209   -0.9891 H   0  0  0  0  0  0  0  0  0  0  0  0
    2.9029    0.7656    0.2943 H   0  0  0  0  0  0  0  0  0  0  0  0
    5.2615   -0.5550   -3.3010 H   0  0  0  0  0  0  0  0  0  0  0  0
    5.0710   -3.0513   -3.1777 H   0  0  0  0  0  0  0  0  0  0  0  0
    4.3789   -5.1818   -0.8120 H   0  0  0  0  0  0  0  0  0  0  0  0
    1.2060   -3.5862   -3.1194 H   0  0  0  0  0  0  0  0  0  0  0  0
    0.3880   -6.9132   -4.5376 H   0  0  0  0  0  0  0  0  0  0  0  0
   -1.0675   -7.4922   -5.7950 H   0  0  0  0  0  0  0  0  0  0  0  0
   -2.2214   -7.9220   -7.8313 H   0  0  0  0  0  0  0  0  0  0  0  0
   -3.1285   -3.7070   -8.1861 H   0  0  0  0  0  0  0  0  0  0  0  0
   -1.5899   -3.2506   -6.4171 H   0  0  0  0  0  0  0  0  0  0  0  0
   -3.3929   -4.0261  -10.0874 H   0  0  0  0  0  0  0  0  0  0  0  0
   -4.8230   -4.9458  -10.5185 H   0  0  0  0  0  0  0  0  0  0  0  0
   -1.9753   -5.2885  -11.6175 H   0  0  0  0  0  0  0  0  0  0  0  0
   -3.3225   -4.5086  -12.4549 H   0  0  0  0  0  0  0  0  0  0  0  0
   -3.0168   -6.8517  -13.2353 H   0  0  0  0  0  0  0  0  0  0  0  0
   -4.5872   -6.6452  -12.4511 H   0  0  0  0  0  0  0  0  0  0  0  0
   -2.0657   -7.7975  -11.1517 H   0  0  0  0  0  0  0  0  0  0  0  0
   -3.4966   -8.7129  -11.6342 H   0  0  0  0  0  0  0  0  0  0  0  0
   -3.5502   -8.2448   -9.2184 H   0  0  0  0  0  0  0  0  0  0  0  0
   -4.8961   -7.4794  -10.0086 H   0  0  0  0  0  0  0  0  0  0  0  0
  1  2  1  0  0  0  0
  1 32  1  0  0  0  0
  1 33  1  0  0  0  0
  1 34  1  0  0  0  0
  2  3  1  0  0  0  0
  2 35  1  0  0  0  0
  3  4  2  0  0  0  0
  3  8  1  0  0  0  0
  4  5  1  0  0  0  0
  5  6  2  0  0  0  0
  5 36  1  0  0  0  0
  6  7  1  0  0  0  0
  6 37  1  0  0  0  0
  7  8  2  0  0  0  0
  7  9  1  0  0  0  0
  9 10  2  0  0  0  0
  9 16  1  0  0  0  0
 10 11  1  0  0  0  0
 10 38  1  0  0  0  0
 11 12  1  0  0  0  0
 11 13  1  0  0  0  0
 13 14  2  0  0  0  0
 13 15  1  0  0  0  0
 15 16  2  0  0  0  0
 15 17  1  0  0  0  0
 16 39  1  0  0  0  0
 17 18  1  0  0  0  0
 17 40  1  0  0  0  0
 18 19  2  0  0  0  0
 18 20  1  0  0  0  0
 20 21  2  0  0  0  0
 20 25  1  0  0  0  0
 21 22  1  0  0  0  0
 21 41  1  0  0  0  0
 22 23  2  0  0  0  0
 22 42  1  0  0  0  0
 23 24  1  0  0  0  0
 23 26  1  0  0  0  0
 24 25  2  0  0  0  0
 24 43  1  0  0  0  0
 25 44  1  0  0  0  0
 26 27  1  0  0  0  0
 26 31  1  0  0  0  0
 27 28  1  0  0  0  0
 27 45  1  0  0  0  0
 27 46  1  0  0  0  0
 28 29  1  0  0  0  0
 28 47  1  0  0  0  0
 28 48  1  0  0  0  0
 29 30  1  0  0  0  0
 29 49  1  0  0  0  0
 29 50  1  0  0  0  0
 30 31  1  0  0  0  0
 30 51  1  0  0  0  0
 30 52  1  0  0  0  0
 31 53  1  0  0  0  0
 31 54  1  0  0  0  0
M  END
$$$$
