L8I
 OpenBabel04121316143D

 50 55  0  0  0  0  0  0  0  0999 V2000
    1.4318   -0.1117    0.1501 C   0  0  0  0  0  0  0  0  0  0  0  0
    2.9010   -0.4994    0.0829 N   0  0  0  0  0  0  0  0  0  0  0  0
    3.8173    0.2214    1.0781 C   0  0  0  0  0  0  0  0  0  0  0  0
    4.9586   -1.2903    0.7924 C   0  0  0  0  0  0  0  0  0  0  0  0
    3.3044   -1.7382    0.8687 C   0  0  0  0  0  0  0  0  0  0  0  0
    5.6386    0.0416    0.2114 C   0  0  0  0  0  0  0  0  0  0  0  0
    6.8530    0.1186    0.8811 N   0  0  0  0  0  0  0  0  0  0  0  0
    7.6541   -0.4788   -0.0592 C   0  0  0  0  0  0  0  0  0  0  0  0
    7.9085   -0.2004   -1.1503 O   0  0  0  0  0  0  0  0  0  0  0  0
    7.8426   -1.6894    0.6135 C   0  0  0  0  0  0  0  0  0  0  0  0
    6.6941   -2.3381    1.1456 C   0  0  0  0  0  0  0  0  0  0  0  0
    7.8787   -3.5245    1.3303 N   0  0  0  0  0  0  0  0  0  0  0  0
    7.8285   -4.5015    1.0925 H   0  0  0  0  0  0  0  0  0  0  0  0
    9.3661   -3.0291    1.6646 C   0  0  0  0  0  0  0  0  0  0  0  0
    9.1555   -1.7689    1.2318 C   0  0  0  0  0  0  0  0  0  0  0  0
   10.1596   -0.6497    1.3454 C   0  0  0  0  0  0  0  0  0  0  0  0
   11.5027   -0.8857    2.0200 C   0  0  0  0  0  0  0  0  0  0  0  0
   11.8577   -2.2962    2.3402 C   0  0  0  0  0  0  0  0  0  0  0  0
   10.9497   -3.3873    2.1088 C   0  0  0  0  0  0  0  0  0  0  0  0
   11.6475   -4.5899    2.3350 C   0  0  0  0  0  0  0  0  0  0  0  0
   13.0124   -4.6820    2.9165 C   0  0  0  0  0  0  0  0  0  0  0  0
   13.7569   -3.5927    3.2043 N   0  0  0  0  0  0  0  0  0  0  0  0
   13.1818   -2.4303    2.8915 C   0  0  0  0  0  0  0  0  0  0  0  0
   13.7072   -5.9696    3.2658 C   0  0  0  0  0  0  0  0  0  0  0  0
   15.0605   -6.0664    3.7077 C   0  0  0  0  0  0  0  0  0  0  0  0
   15.7017   -7.3166    3.8439 C   0  0  0  0  0  0  0  0  0  0  0  0
   14.9758   -8.4926    3.6865 C   0  0  0  0  0  0  0  0  0  0  0  0
   13.6186   -8.4157    3.4305 C   0  0  0  0  0  0  0  0  0  0  0  0
   13.0257   -7.1862    3.1756 C   0  0  0  0  0  0  0  0  0  0  0  0
   11.7377   -7.2378    2.8212 F   0  0  0  0  0  0  0  0  0  0  0  0
    1.1390    0.7341   -0.5176 H   0  0  0  0  0  0  0  0  0  0  0  0
    1.0055    0.1566    1.1305 H   0  0  0  0  0  0  0  0  0  0  0  0
    0.8059   -0.9305   -0.2394 H   0  0  0  0  0  0  0  0  0  0  0  0
    3.2823    0.4999    2.0071 H   0  0  0  0  0  0  0  0  0  0  0  0
    3.8810    1.2647    0.6368 H   0  0  0  0  0  0  0  0  0  0  0  0
    2.7919   -1.6812    1.8506 H   0  0  0  0  0  0  0  0  0  0  0  0
    3.0053   -2.6384    0.3544 H   0  0  0  0  0  0  0  0  0  0  0  0
    5.4930    1.0977    0.4584 H   0  0  0  0  0  0  0  0  0  0  0  0
    5.5789   -0.0497   -0.8757 H   0  0  0  0  0  0  0  0  0  0  0  0
    6.7915   -0.3739    1.7862 H   0  0  0  0  0  0  0  0  0  0  0  0
    9.6582    0.0814    1.9845 H   0  0  0  0  0  0  0  0  0  0  0  0
   10.3550   -0.2002    0.3689 H   0  0  0  0  0  0  0  0  0  0  0  0
   11.5612   -0.3165    2.9586 H   0  0  0  0  0  0  0  0  0  0  0  0
   12.2989   -0.4667    1.3809 H   0  0  0  0  0  0  0  0  0  0  0  0
   11.1738   -5.5065    2.0367 H   0  0  0  0  0  0  0  0  0  0  0  0
   13.8134   -1.5590    3.1146 H   0  0  0  0  0  0  0  0  0  0  0  0
   15.6499   -5.1760    3.9416 H   0  0  0  0  0  0  0  0  0  0  0  0
   16.7662   -7.3786    4.0695 H   0  0  0  0  0  0  0  0  0  0  0  0
   15.4502   -9.4656    3.7702 H   0  0  0  0  0  0  0  0  0  0  0  0
   12.9895   -9.2973    3.3937 H   0  0  0  0  0  0  0  0  0  0  0  0
  1  2  1  0  0  0  0
  1 31  1  0  0  0  0
  1 32  1  0  0  0  0
  1 33  1  0  0  0  0
  2  3  1  0  0  0  0
  2  5  1  0  0  0  0
  3  4  1  0  0  0  0
  3 34  1  0  0  0  0
  3 35  1  0  0  0  0
  4  5  1  0  0  0  0
  4  6  1  0  0  0  0
  4 11  1  0  0  0  0
  5 36  1  0  0  0  0
  5 37  1  0  0  0  0
  6  7  1  0  0  0  0
  6 38  1  0  0  0  0
  6 39  1  0  0  0  0
  7  8  1  0  0  0  0
  7 40  1  0  0  0  0
  8  9  2  0  0  0  0
  8 10  1  0  0  0  0
 10 11  2  0  0  0  0
 10 15  1  0  0  0  0
 11 12  1  0  0  0  0
 12 13  1  0  0  0  0
 12 14  1  0  0  0  0
 14 15  2  0  0  0  0
 14 19  1  0  0  0  0
 15 16  1  0  0  0  0
 16 17  1  0  0  0  0
 16 41  1  0  0  0  0
 16 42  1  0  0  0  0
 17 18  1  0  0  0  0
 17 43  1  0  0  0  0
 17 44  1  0  0  0  0
 18 19  2  0  0  0  0
 18 23  1  0  0  0  0
 19 20  1  0  0  0  0
 20 21  2  0  0  0  0
 20 45  1  0  0  0  0
 21 22  1  0  0  0  0
 21 24  1  0  0  0  0
 22 23  2  0  0  0  0
 23 46  1  0  0  0  0
 24 25  2  0  0  0  0
 24 29  1  0  0  0  0
 25 26  1  0  0  0  0
 25 47  1  0  0  0  0
 26 27  2  0  0  0  0
 26 48  1  0  0  0  0
 27 28  1  0  0  0  0
 27 49  1  0  0  0  0
 28 29  2  0  0  0  0
 28 50  1  0  0  0  0
 29 30  1  0  0  0  0
M  END
$$$$
