L9M
 OpenBabel04121316143D

 49 52  0  0  1  0  0  0  0  0999 V2000
    1.0116    0.0047    0.1195 N   0  0  0  0  0  0  0  0  0  0  0  0
    2.4808    0.0301    0.0537 C   0  0  1  0  0  0  0  0  0  0  0  0
    2.8727   -0.5202    0.9219 H   0  0  0  0  0  0  0  0  0  0  0  0
    3.0247   -0.6446   -1.2292 C   0  0  0  0  0  0  0  0  0  0  0  0
    2.5878   -2.0792   -1.3626 C   0  0  0  0  0  0  0  0  0  0  0  0
    3.3505   -3.1167   -0.8168 C   0  0  0  0  0  0  0  0  0  0  0  0
    2.9886   -4.4399   -1.0563 C   0  0  0  0  0  0  0  0  0  0  0  0
    1.8112   -4.7336   -1.7525 C   0  0  0  0  0  0  0  0  0  0  0  0
    0.9742   -3.6924   -2.1626 C   0  0  0  0  0  0  0  0  0  0  0  0
    1.3890   -2.3750   -2.0205 C   0  0  0  0  0  0  0  0  0  0  0  0
    1.4634   -6.1445   -2.1097 C   0  0  0  0  0  0  0  0  0  0  0  0
    2.9364    1.5059    0.1417 C   0  0  0  0  0  0  0  0  0  0  0  0
    4.3609    1.5626    0.0589 N   0  0  0  0  0  0  0  0  0  0  0  0
    5.0773    2.6740    0.1999 C   0  0  0  0  0  0  0  0  0  0  0  0
    4.7711    3.9563    0.1963 N   0  0  0  0  0  0  0  0  0  0  0  0
    5.9187    4.7571    0.3364 N   0  0  0  0  0  0  0  0  0  0  0  0
    7.0166    4.0273    0.4506 C   0  0  0  0  0  0  0  0  0  0  0  0
    6.7124    2.3460    0.4031 S   0  0  0  0  0  0  0  0  0  0  0  0
    8.4178    4.4400    0.6049 C   0  0  0  0  0  0  0  0  0  0  0  0
    9.4306    3.4539    0.7118 C   0  0  0  0  0  0  0  0  0  0  0  0
   10.7794    3.7376    0.8528 C   0  0  0  0  0  0  0  0  0  0  0  0
   11.0994    5.0805    0.8894 C   0  0  0  0  0  0  0  0  0  0  0  0
   10.1576    6.0970    0.7926 C   0  0  0  0  0  0  0  0  0  0  0  0
    8.7893    5.7862    0.6466 C   0  0  0  0  0  0  0  0  0  0  0  0
   10.9217    7.2863    0.8769 C   0  0  0  0  0  0  0  0  0  0  0  0
   10.4093    8.6726    0.8271 C   0  0  0  0  0  0  0  0  0  0  0  0
   12.2326    7.0423    1.0148 N   0  0  0  0  0  0  0  0  0  0  0  0
   12.3072    5.7028    1.0186 N   0  0  0  0  0  0  0  0  0  0  0  0
   13.2139    5.2598    1.1136 H   0  0  0  0  0  0  0  0  0  0  0  0
    0.6987   -0.9654    0.0574 H   0  0  0  0  0  0  0  0  0  0  0  0
    0.6432    0.4673   -0.7118 H   0  0  0  0  0  0  0  0  0  0  0  0
    4.1235   -0.6334   -1.2548 H   0  0  0  0  0  0  0  0  0  0  0  0
    2.7136   -0.0824   -2.1194 H   0  0  0  0  0  0  0  0  0  0  0  0
    4.2420   -2.9071   -0.2306 H   0  0  0  0  0  0  0  0  0  0  0  0
    3.6398   -5.2402   -0.7131 H   0  0  0  0  0  0  0  0  0  0  0  0
    0.0138   -3.9011   -2.6267 H   0  0  0  0  0  0  0  0  0  0  0  0
    0.7715   -1.5748   -2.4217 H   0  0  0  0  0  0  0  0  0  0  0  0
    2.2489   -6.8380   -1.7945 H   0  0  0  0  0  0  0  0  0  0  0  0
    1.3687   -6.2277   -3.1982 H   0  0  0  0  0  0  0  0  0  0  0  0
    0.5235   -6.4403   -1.6373 H   0  0  0  0  0  0  0  0  0  0  0  0
    2.5907    1.9384    1.0874 H   0  0  0  0  0  0  0  0  0  0  0  0
    2.5085    2.0801   -0.6866 H   0  0  0  0  0  0  0  0  0  0  0  0
    4.8758    0.7024    0.2257 H   0  0  0  0  0  0  0  0  0  0  0  0
    9.1971    2.3926    0.6872 H   0  0  0  0  0  0  0  0  0  0  0  0
   11.5082    2.9394    0.9272 H   0  0  0  0  0  0  0  0  0  0  0  0
    8.0487    6.5791    0.5688 H   0  0  0  0  0  0  0  0  0  0  0  0
    9.3206    8.6815    0.7116 H   0  0  0  0  0  0  0  0  0  0  0  0
   10.8392    9.2095   -0.0227 H   0  0  0  0  0  0  0  0  0  0  0  0
   10.6509    9.2036    1.7518 H   0  0  0  0  0  0  0  0  0  0  0  0
  1  2  1  0  0  0  0
  1 30  1  0  0  0  0
  1 31  1  0  0  0  0
  2  3  1  1  0  0  0
  2  4  1  0  0  0  0
  2 12  1  0  0  0  0
  4  5  1  0  0  0  0
  4 32  1  0  0  0  0
  4 33  1  0  0  0  0
  5  6  2  0  0  0  0
  5 10  1  0  0  0  0
  6  7  1  0  0  0  0
  6 34  1  0  0  0  0
  7  8  2  0  0  0  0
  7 35  1  0  0  0  0
  8  9  1  0  0  0  0
  8 11  1  0  0  0  0
  9 10  2  0  0  0  0
  9 36  1  0  0  0  0
 10 37  1  0  0  0  0
 11 38  1  0  0  0  0
 11 39  1  0  0  0  0
 11 40  1  0  0  0  0
 12 13  1  0  0  0  0
 12 41  1  0  0  0  0
 12 42  1  0  0  0  0
 13 14  1  0  0  0  0
 13 43  1  0  0  0  0
 14 15  2  0  0  0  0
 14 18  1  0  0  0  0
 15 16  1  0  0  0  0
 16 17  2  0  0  0  0
 17 18  1  0  0  0  0
 17 19  1  0  0  0  0
 19 20  2  0  0  0  0
 19 24  1  0  0  0  0
 20 21  1  0  0  0  0
 20 44  1  0  0  0  0
 21 22  2  0  0  0  0
 21 45  1  0  0  0  0
 22 23  1  0  0  0  0
 22 28  1  0  0  0  0
 23 24  2  0  0  0  0
 23 25  1  0  0  0  0
 24 46  1  0  0  0  0
 25 26  1  0  0  0  0
 25 27  2  0  0  0  0
 26 47  1  0  0  0  0
 26 48  1  0  0  0  0
 26 49  1  0  0  0  0
 27 28  1  0  0  0  0
 28 29  1  0  0  0  0
M  END
$$$$
