LA1
 OpenBabel04121316143D

 76 80  0  0  1  0  0  0  0  0999 V2000
    0.8769   -0.0873   -0.0070 C   0  0  0  0  0  0  0  0  0  0  0  0
    2.3098   -0.1574    0.0537 N   0  0  0  0  0  0  0  0  0  0  0  0
    2.9796    0.6903    0.8939 C   0  0  0  0  0  0  0  0  0  0  0  0
    2.3891    1.3995    1.7103 O   0  0  0  0  0  0  0  0  0  0  0  0
    4.5252    0.6348    0.7633 C   0  0  1  0  0  0  0  0  0  0  0  0
    4.8183   -0.4008    0.9484 H   0  0  0  0  0  0  0  0  0  0  0  0
    4.9822    1.0089   -0.6273 N   0  0  0  0  0  0  0  0  0  0  0  0
    5.9991    0.2561   -1.3199 C   0  0  0  0  0  0  0  0  0  0  0  0
    7.1856    1.0826   -1.8014 C   0  0  0  0  0  0  0  0  0  0  0  0
    6.9261    2.1692   -2.8614 C   0  0  0  0  0  0  0  0  0  0  0  0
    7.2867    1.9633   -4.0258 O   0  0  0  0  0  0  0  0  0  0  0  0
    6.3468    3.4109   -2.4757 N   0  0  0  0  0  0  0  0  0  0  0  0
    5.3124    3.3064   -1.3926 C   0  0  2  0  0  0  0  0  0  0  0  0
    5.9476    3.4819   -0.5873 H   0  0  0  0  0  0  0  0  0  0  0  0
    4.4685    2.0451   -1.3697 C   0  0  0  0  0  0  0  0  0  0  0  0
    3.4241    1.9384   -2.0308 O   0  0  0  0  0  0  0  0  0  0  0  0
    4.3126    4.3230   -0.8836 C   0  0  0  0  0  0  0  0  0  0  0  0
    3.4396    4.0866    0.3252 C   0  0  0  0  0  0  0  0  0  0  0  0
    4.2262    4.4627    1.6196 C   0  0  0  0  0  0  0  0  0  0  0  0
    2.0941    4.7618    0.0758 C   0  0  0  0  0  0  0  0  0  0  0  0
    7.0403    4.6965   -3.0990 C   0  0  0  0  0  0  0  0  0  0  0  0
    6.8101    6.1164   -2.5591 C   0  0  0  0  0  0  0  0  0  0  0  0
    7.3886    7.3459   -2.7352 C   0  0  0  0  0  0  0  0  0  0  0  0
    6.9300    8.5314   -2.1326 N   0  0  0  0  0  0  0  0  0  0  0  0
    5.8373    8.5536   -1.2872 C   0  0  0  0  0  0  0  0  0  0  0  0
    5.1863    7.3692   -1.0658 C   0  0  0  0  0  0  0  0  0  0  0  0
    5.6632    6.3269   -1.8861 C   0  0  0  0  0  0  0  0  0  0  0  0
    4.1397    7.3158   -0.0918 C   0  0  0  0  0  0  0  0  0  0  0  0
    3.4759    8.3717    0.4644 C   0  0  0  0  0  0  0  0  0  0  0  0
    3.9710    9.5835    0.0822 C   0  0  0  0  0  0  0  0  0  0  0  0
    5.1993    9.6353   -0.6393 C   0  0  0  0  0  0  0  0  0  0  0  0
    5.0871    1.4768    1.9115 C   0  0  0  0  0  0  0  0  0  0  0  0
    6.5622    1.6282    2.0455 C   0  0  0  0  0  0  0  0  0  0  0  0
    7.3108    2.3387    1.1268 C   0  0  0  0  0  0  0  0  0  0  0  0
    8.6685    2.4679    1.0088 C   0  0  0  0  0  0  0  0  0  0  0  0
    9.3602    1.8367    1.9674 C   0  0  0  0  0  0  0  0  0  0  0  0
    8.6610    1.1615    3.0137 C   0  0  0  0  0  0  0  0  0  0  0  0
    7.2695    1.0724    3.0611 C   0  0  0  0  0  0  0  0  0  0  0  0
    9.3923    0.5917    4.0155 C   0  0  0  0  0  0  0  0  0  0  0  0
   10.7533    0.8627    4.0660 C   0  0  0  0  0  0  0  0  0  0  0  0
   11.4020    1.5898    3.0573 C   0  0  0  0  0  0  0  0  0  0  0  0
   10.7274    1.9496    1.9164 C   0  0  0  0  0  0  0  0  0  0  0  0
    0.5259   -0.8135   -0.7389 H   0  0  0  0  0  0  0  0  0  0  0  0
    0.5639    0.9240   -0.2878 H   0  0  0  0  0  0  0  0  0  0  0  0
    0.4791   -0.3191    0.9851 H   0  0  0  0  0  0  0  0  0  0  0  0
    2.8287   -0.5869   -0.7014 H   0  0  0  0  0  0  0  0  0  0  0  0
    5.5107   -0.1802   -2.1958 H   0  0  0  0  0  0  0  0  0  0  0  0
    6.3247   -0.5553   -0.6622 H   0  0  0  0  0  0  0  0  0  0  0  0
    7.9636    0.3960   -2.1599 H   0  0  0  0  0  0  0  0  0  0  0  0
    7.7022    1.5666   -0.9960 H   0  0  0  0  0  0  0  0  0  0  0  0
    4.9851    5.0346   -0.4198 H   0  0  0  0  0  0  0  0  0  0  0  0
    3.6876    4.6885   -1.7013 H   0  0  0  0  0  0  0  0  0  0  0  0
    3.2040    3.0400    0.3298 H   0  0  0  0  0  0  0  0  0  0  0  0
    4.4252    5.5033    1.8656 H   0  0  0  0  0  0  0  0  0  0  0  0
    5.2663    4.1113    1.5297 H   0  0  0  0  0  0  0  0  0  0  0  0
    3.7461    4.0150    2.4890 H   0  0  0  0  0  0  0  0  0  0  0  0
    2.0661    5.8388    0.2192 H   0  0  0  0  0  0  0  0  0  0  0  0
    1.3486    4.3238    0.7289 H   0  0  0  0  0  0  0  0  0  0  0  0
    1.7865    4.6026   -0.9683 H   0  0  0  0  0  0  0  0  0  0  0  0
    6.7512    4.6480   -4.1542 H   0  0  0  0  0  0  0  0  0  0  0  0
    8.1223    4.5054   -3.0419 H   0  0  0  0  0  0  0  0  0  0  0  0
    8.2048    7.4906   -3.4318 H   0  0  0  0  0  0  0  0  0  0  0  0
    5.0198    5.5609   -2.2432 H   0  0  0  0  0  0  0  0  0  0  0  0
    3.8447    6.3893    0.3426 H   0  0  0  0  0  0  0  0  0  0  0  0
    2.6395    8.2251    1.1486 H   0  0  0  0  0  0  0  0  0  0  0  0
    3.4251   10.4710    0.3699 H   0  0  0  0  0  0  0  0  0  0  0  0
    5.6927   10.5972   -0.7061 H   0  0  0  0  0  0  0  0  0  0  0  0
    4.6383    1.2494    2.8876 H   0  0  0  0  0  0  0  0  0  0  0  0
    4.6848    2.4306    1.7145 H   0  0  0  0  0  0  0  0  0  0  0  0
    6.8310    2.7375    0.3167 H   0  0  0  0  0  0  0  0  0  0  0  0
    9.1031    2.9983    0.1622 H   0  0  0  0  0  0  0  0  0  0  0  0
    6.7391    0.5882    3.8723 H   0  0  0  0  0  0  0  0  0  0  0  0
    8.8939    0.0040    4.7774 H   0  0  0  0  0  0  0  0  0  0  0  0
   11.3142    0.5096    4.9179 H   0  0  0  0  0  0  0  0  0  0  0  0
   12.4305    1.9047    3.1720 H   0  0  0  0  0  0  0  0  0  0  0  0
   11.2351    2.3850    1.0580 H   0  0  0  0  0  0  0  0  0  0  0  0
  1  2  1  0  0  0  0
  1 43  1  0  0  0  0
  1 44  1  0  0  0  0
  1 45  1  0  0  0  0
  2  3  1  0  0  0  0
  2 46  1  0  0  0  0
  3  4  2  0  0  0  0
  3  5  1  0  0  0  0
  5  6  1  1  0  0  0
  5  7  1  0  0  0  0
  5 32  1  0  0  0  0
  7  8  1  0  0  0  0
  7 15  1  0  0  0  0
  8  9  1  0  0  0  0
  8 47  1  0  0  0  0
  8 48  1  0  0  0  0
  9 10  1  0  0  0  0
  9 49  1  0  0  0  0
  9 50  1  0  0  0  0
 10 11  2  0  0  0  0
 10 12  1  0  0  0  0
 12 13  1  0  0  0  0
 12 21  1  0  0  0  0
 13 15  1  0  0  0  0
 13 17  1  0  0  0  0
 13 14  1  1  0  0  0
 15 16  2  0  0  0  0
 17 18  1  0  0  0  0
 17 51  1  0  0  0  0
 17 52  1  0  0  0  0
 18 19  1  0  0  0  0
 18 20  1  0  0  0  0
 18 53  1  0  0  0  0
 19 54  1  0  0  0  0
 19 55  1  0  0  0  0
 19 56  1  0  0  0  0
 20 57  1  0  0  0  0
 20 58  1  0  0  0  0
 20 59  1  0  0  0  0
 21 22  1  0  0  0  0
 21 60  1  0  0  0  0
 21 61  1  0  0  0  0
 22 23  2  0  0  0  0
 22 27  1  0  0  0  0
 23 24  1  0  0  0  0
 23 62  1  0  0  0  0
 24 25  2  0  0  0  0
 25 26  1  0  0  0  0
 25 31  1  0  0  0  0
 26 27  2  0  0  0  0
 26 28  1  0  0  0  0
 27 63  1  0  0  0  0
 28 29  2  0  0  0  0
 28 64  1  0  0  0  0
 29 30  1  0  0  0  0
 29 65  1  0  0  0  0
 30 31  2  0  0  0  0
 30 66  1  0  0  0  0
 31 67  1  0  0  0  0
 32 33  1  0  0  0  0
 32 68  1  0  0  0  0
 32 69  1  0  0  0  0
 33 34  2  0  0  0  0
 33 38  1  0  0  0  0
 34 35  1  0  0  0  0
 34 70  1  0  0  0  0
 35 36  2  0  0  0  0
 35 71  1  0  0  0  0
 36 37  1  0  0  0  0
 36 42  1  0  0  0  0
 37 38  2  0  0  0  0
 37 39  1  0  0  0  0
 38 72  1  0  0  0  0
 39 40  2  0  0  0  0
 39 73  1  0  0  0  0
 40 41  1  0  0  0  0
 40 74  1  0  0  0  0
 41 42  2  0  0  0  0
 41 75  1  0  0  0  0
 42 76  1  0  0  0  0
M  END
$$$$
