LAI
 OpenBabel04121316143D

 20 19  0  0  1  0  0  0  0  0999 V2000
    2.8456   -2.2976    5.6877 O   0  0  0  0  0  0  0  0  0  0  0  0
    2.3300   -1.3764    4.7333 C   0  0  0  0  0  0  0  0  0  0  0  0
    2.7970   -1.7320    3.3166 C   0  0  1  0  0  0  0  0  0  0  0  0
    3.8912   -1.6616    3.2770 H   0  0  0  0  0  0  0  0  0  0  0  0
    2.3594   -3.1602    2.9200 C   0  0  1  0  0  0  0  0  0  0  0  0
    1.2634   -3.2113    2.9324 H   0  0  0  0  0  0  0  0  0  0  0  0
    2.8694   -3.5030    1.5141 C   0  0  2  0  0  0  0  0  0  0  0  0
    2.5236   -2.7724    0.7749 H   0  0  0  0  0  0  0  0  0  0  0  0
    2.3083   -4.8570    1.1258 C   0  0  0  0  0  0  0  0  0  0  0  0
    1.1053   -5.0876    0.9941 O   0  0  0  0  0  0  0  0  0  0  0  0
    4.2997   -3.5052    1.4845 O   0  0  0  0  0  0  0  0  0  0  0  0
    2.8372   -4.1572    3.8386 O   0  0  0  0  0  0  0  0  0  0  0  0
    2.2433   -0.7871    2.3911 O   0  0  0  0  0  0  0  0  0  0  0  0
    2.5474   -2.0045    6.5668 H   0  0  0  0  0  0  0  0  0  0  0  0
    2.6607   -0.3658    4.9951 H   0  0  0  0  0  0  0  0  0  0  0  0
    1.2364   -1.3927    4.7847 H   0  0  0  0  0  0  0  0  0  0  0  0
    3.0538   -5.6489    0.9524 H   0  0  0  0  0  0  0  0  0  0  0  0
    4.5818   -3.6796    0.5720 H   0  0  0  0  0  0  0  0  0  0  0  0
    2.7135   -3.7975    4.7418 H   0  0  0  0  0  0  0  0  0  0  0  0
    2.6115    0.0880    2.6046 H   0  0  0  0  0  0  0  0  0  0  0  0
  1  2  1  0  0  0  0
  1 14  1  0  0  0  0
  2  3  1  0  0  0  0
  2 15  1  0  0  0  0
  2 16  1  0  0  0  0
  3  4  1  6  0  0  0
  3  5  1  0  0  0  0
  3 13  1  0  0  0  0
  5  6  1  6  0  0  0
  5 12  1  0  0  0  0
  7  9  1  0  0  0  0
  7 11  1  0  0  0  0
  7  8  1  6  0  0  0
  7  5  1  0  0  0  0
  9 10  2  0  0  0  0
  9 17  1  0  0  0  0
 11 18  1  0  0  0  0
 12 19  1  0  0  0  0
 13 20  1  0  0  0  0
M  END
$$$$
