LAT
 OpenBabel04121316143D

 45 46  0  0  1  0  0  0  0  0999 V2000
    7.3339   -0.2257   -5.8419 O   0  0  0  0  0  0  0  0  0  0  0  0
    7.2957   -1.6286   -6.1291 C   0  0  0  0  0  0  0  0  0  0  0  0
    6.0356   -2.3364   -5.5493 C   0  0  1  0  0  0  0  0  0  0  0  0
    5.4193   -2.6143   -6.4144 H   0  0  0  0  0  0  0  0  0  0  0  0
    6.3803   -3.6138   -4.9559 O   0  0  0  0  0  0  0  0  0  0  0  0
    6.9271   -3.5887   -3.6336 C   0  0  1  0  0  0  0  0  0  0  0  0
    6.9341   -4.6287   -3.2922 H   0  0  0  0  0  0  0  0  0  0  0  0
    8.2860   -3.1686   -3.6481 O   0  0  0  0  0  0  0  0  0  0  0  0
    6.1007   -2.7495   -2.6348 C   0  0  1  0  0  0  0  0  0  0  0  0
    6.6554   -2.6565   -1.6946 H   0  0  0  0  0  0  0  0  0  0  0  0
    5.9528   -1.3588   -3.2570 C   0  0  2  0  0  0  0  0  0  0  0  0
    5.4829   -0.7041   -2.5468 H   0  0  0  0  0  0  0  0  0  0  0  0
    5.1650   -1.4589   -4.5959 C   0  0  2  0  0  0  0  0  0  0  0  0
    5.0078   -0.4836   -5.0686 H   0  0  0  0  0  0  0  0  0  0  0  0
    3.8702   -2.0918   -4.4508 O   0  0  0  0  0  0  0  0  0  0  0  0
    2.7725   -1.3924   -3.8203 C   0  0  2  0  0  0  0  0  0  0  0  0
    2.2295   -2.1991   -3.3097 H   0  0  0  0  0  0  0  0  0  0  0  0
    1.8731   -0.8900   -4.8182 O   0  0  0  0  0  0  0  0  0  0  0  0
    0.7424   -0.2128   -4.2422 C   0  0  2  0  0  0  0  0  0  0  0  0
    0.2379   -0.8864   -3.5335 H   0  0  0  0  0  0  0  0  0  0  0  0
   -0.2680    0.1440   -5.3333 C   0  0  0  0  0  0  0  0  0  0  0  0
   -1.3375    0.9233   -4.8009 O   0  0  0  0  0  0  0  0  0  0  0  0
    1.2117    1.0489   -3.5002 C   0  0  1  0  0  0  0  0  0  0  0  0
    0.3805    1.6578   -3.1315 H   0  0  0  0  0  0  0  0  0  0  0  0
    2.0368    0.5932   -2.3080 C   0  0  1  0  0  0  0  0  0  0  0  0
    1.4001    0.0756   -1.5810 H   0  0  0  0  0  0  0  0  0  0  0  0
    3.1546   -0.3413   -2.7424 C   0  0  1  0  0  0  0  0  0  0  0  0
    3.9477    0.3060   -3.1322 H   0  0  0  0  0  0  0  0  0  0  0  0
    3.5929   -0.9875   -1.5244 O   0  0  0  0  0  0  0  0  0  0  0  0
    2.6169    1.7099   -1.6113 O   0  0  0  0  0  0  0  0  0  0  0  0
    2.0026    1.8800   -4.3572 O   0  0  0  0  0  0  0  0  0  0  0  0
    7.2556   -0.7583   -3.3985 O   0  0  0  0  0  0  0  0  0  0  0  0
    4.8272   -3.3214   -2.2945 O   0  0  0  0  0  0  0  0  0  0  0  0
    8.2482    0.0691   -6.0321 H   0  0  0  0  0  0  0  0  0  0  0  0
    8.2268   -2.0778   -5.7748 H   0  0  0  0  0  0  0  0  0  0  0  0
    7.3053   -1.7245   -7.2198 H   0  0  0  0  0  0  0  0  0  0  0  0
    8.2674   -2.1985   -3.4749 H   0  0  0  0  0  0  0  0  0  0  0  0
   -0.6846   -0.7586   -5.7911 H   0  0  0  0  0  0  0  0  0  0  0  0
    0.2079    0.7156   -6.1358 H   0  0  0  0  0  0  0  0  0  0  0  0
   -1.8009    0.3882   -4.1323 H   0  0  0  0  0  0  0  0  0  0  0  0
    3.7997   -1.9274   -1.7180 H   0  0  0  0  0  0  0  0  0  0  0  0
    1.9001    2.2923   -1.3153 H   0  0  0  0  0  0  0  0  0  0  0  0
    1.4135    2.2393   -5.0440 H   0  0  0  0  0  0  0  0  0  0  0  0
    7.1561   -0.0548   -4.0586 H   0  0  0  0  0  0  0  0  0  0  0  0
    4.9390   -4.2916   -2.2703 H   0  0  0  0  0  0  0  0  0  0  0  0
  1  2  1  0  0  0  0
  1 34  1  0  0  0  0
  2  3  1  0  0  0  0
  2 35  1  0  0  0  0
  2 36  1  0  0  0  0
  3  4  1  6  0  0  0
  3  5  1  0  0  0  0
  3 13  1  0  0  0  0
  5  6  1  0  0  0  0
  6  9  1  0  0  0  0
  6  8  1  0  0  0  0
  6  7  1  1  0  0  0
  8 37  1  0  0  0  0
  9 10  1  1  0  0  0
  9 11  1  0  0  0  0
  9 33  1  0  0  0  0
 11 13  1  0  0  0  0
 11 32  1  0  0  0  0
 11 12  1  1  0  0  0
 13 14  1  6  0  0  0
 13 15  1  0  0  0  0
 16 18  1  0  0  0  0
 16 27  1  0  0  0  0
 16 17  1  1  0  0  0
 16 15  1  0  0  0  0
 18 19  1  0  0  0  0
 19 20  1  1  0  0  0
 19 21  1  0  0  0  0
 19 23  1  0  0  0  0
 21 22  1  0  0  0  0
 21 38  1  0  0  0  0
 21 39  1  0  0  0  0
 22 40  1  0  0  0  0
 23 24  1  1  0  0  0
 23 25  1  0  0  0  0
 23 31  1  0  0  0  0
 25 26  1  1  0  0  0
 25 27  1  0  0  0  0
 25 30  1  0  0  0  0
 27 29  1  0  0  0  0
 27 28  1  6  0  0  0
 29 41  1  0  0  0  0
 30 42  1  0  0  0  0
 31 43  1  0  0  0  0
 32 44  1  0  0  0  0
 33 45  1  0  0  0  0
M  END
$$$$
