LAZ
 OpenBabel04121316143D

 23 23  0  0  0  0  0  0  0  0999 V2000
    1.0595    0.0254   -0.0424 O   0  0  0  0  0  0  0  0  0  0  0  0
    2.4784    0.0219   -0.0412 C   0  0  0  0  0  0  0  0  0  0  0  0
    3.0012   -1.0663    0.8902 C   0  0  0  0  0  0  0  0  0  0  0  0
    4.4486   -1.1168    0.9102 N   0  0  0  0  0  0  0  0  0  0  0  0
    5.1125   -2.0415    1.6855 C   0  0  0  0  0  0  0  0  0  0  0  0
    4.5216   -2.8595    2.3893 O   0  0  0  0  0  0  0  0  0  0  0  0
    6.6064   -2.0063    1.6769 C   0  0  0  0  0  0  0  0  0  0  0  0
    7.2935   -2.9233    2.4876 C   0  0  0  0  0  0  0  0  0  0  0  0
    8.6766   -2.8174    2.6602 C   0  0  0  0  0  0  0  0  0  0  0  0
    9.3904   -1.8654    1.9379 C   0  0  0  0  0  0  0  0  0  0  0  0
    8.7373   -1.0376    1.0298 C   0  0  0  0  0  0  0  0  0  0  0  0
    7.3440   -1.0723    0.9357 C   0  0  0  0  0  0  0  0  0  0  0  0
   11.0803   -1.6799    2.1905 Cl  0  0  0  0  0  0  0  0  0  0  0  0
    0.7724    0.7291   -0.6486 H   0  0  0  0  0  0  0  0  0  0  0  0
    2.8343    1.0064    0.2824 H   0  0  0  0  0  0  0  0  0  0  0  0
    2.8326   -0.1489   -1.0638 H   0  0  0  0  0  0  0  0  0  0  0  0
    2.6268   -2.0486    0.5808 H   0  0  0  0  0  0  0  0  0  0  0  0
    2.6428   -0.9005    1.9130 H   0  0  0  0  0  0  0  0  0  0  0  0
    4.9479   -0.4433    0.3534 H   0  0  0  0  0  0  0  0  0  0  0  0
    6.7490   -3.7077    3.0122 H   0  0  0  0  0  0  0  0  0  0  0  0
    9.1832   -3.4698    3.3664 H   0  0  0  0  0  0  0  0  0  0  0  0
    9.2994   -0.3435    0.4106 H   0  0  0  0  0  0  0  0  0  0  0  0
    6.8736   -0.3442    0.2870 H   0  0  0  0  0  0  0  0  0  0  0  0
  1  2  1  0  0  0  0
  1 14  1  0  0  0  0
  2  3  1  0  0  0  0
  2 15  1  0  0  0  0
  2 16  1  0  0  0  0
  3  4  1  0  0  0  0
  3 17  1  0  0  0  0
  3 18  1  0  0  0  0
  4  5  1  0  0  0  0
  4 19  1  0  0  0  0
  5  6  2  0  0  0  0
  5  7  1  0  0  0  0
  7  8  2  0  0  0  0
  7 12  1  0  0  0  0
  8  9  1  0  0  0  0
  8 20  1  0  0  0  0
  9 10  2  0  0  0  0
  9 21  1  0  0  0  0
 10 11  1  0  0  0  0
 10 13  1  0  0  0  0
 11 12  2  0  0  0  0
 11 22  1  0  0  0  0
 12 23  1  0  0  0  0
M  END
$$$$
