LBP
 OpenBabel04121316143D

 37 36  0  0  1  0  0  0  0  0999 V2000
    5.0669    7.9725   -2.1789 C   0  0  0  0  0  0  0  0  0  0  0  0
    4.7040    6.5217   -2.3499 C   0  0  0  0  0  0  0  0  0  0  0  0
    5.1755    5.8109   -1.0732 C   0  0  0  0  0  0  0  0  0  0  0  0
    5.2644    4.3416   -1.3543 C   0  0  0  0  0  0  0  0  0  0  0  0
    5.5326    3.1377    0.3712 S   0  0  2  0  0  0  0  0  0  0  0  0
    4.6518    1.7401    0.1221 N   0  0  0  0  0  0  0  0  0  0  0  0
    3.4540    2.8441   -0.5022 P   0  0  0  0  0  0  0  0  0  0  0  0
    3.4197    3.9877    0.4756 O   0  0  0  0  0  0  0  0  0  0  0  0
    3.8099    2.4364   -2.0134 O   0  0  0  0  0  0  0  0  0  0  0  0
    2.2661    3.9389   -1.1213 O   0  0  0  0  0  0  0  0  0  0  0  0
    5.4260    3.8495    1.6389 O   0  0  0  0  0  0  0  0  0  0  0  0
    7.2140    3.0494    0.2274 C   0  0  0  0  0  0  0  0  0  0  0  0
    7.7436    4.4904    0.2632 C   0  0  0  0  0  0  0  0  0  0  0  0
    9.2378    4.5779    0.2775 C   0  0  1  0  0  0  0  0  0  0  0  0
    9.6410    4.0317    1.1291 H   0  0  0  0  0  0  0  0  0  0  0  0
    9.7582    4.0226   -1.0789 C   0  0  0  0  0  0  0  0  0  0  0  0
   10.2594    4.6982   -1.9431 O   0  0  0  0  0  0  0  0  0  0  0  0
    9.5071    2.7021   -1.2986 O   0  0  0  0  0  0  0  0  0  0  0  0
    9.5887    6.0119    0.3928 N   0  0  0  0  0  0  0  0  0  0  0  0
    4.8257    8.5455   -3.0720 H   0  0  0  0  0  0  0  0  0  0  0  0
    6.1427    8.0510   -1.9871 H   0  0  0  0  0  0  0  0  0  0  0  0
    4.5352    8.3830   -1.3153 H   0  0  0  0  0  0  0  0  0  0  0  0
    5.2008    6.1052   -3.2368 H   0  0  0  0  0  0  0  0  0  0  0  0
    3.6216    6.4020   -2.5109 H   0  0  0  0  0  0  0  0  0  0  0  0
    4.4670    6.0297   -0.2689 H   0  0  0  0  0  0  0  0  0  0  0  0
    6.1272    6.2197   -0.7786 H   0  0  0  0  0  0  0  0  0  0  0  0
    5.8918    3.9194   -2.1465 H   0  0  0  0  0  0  0  0  0  0  0  0
    4.2969    4.2846   -1.8443 H   0  0  0  0  0  0  0  0  0  0  0  0
    4.2030    1.5398   -1.9731 H   0  0  0  0  0  0  0  0  0  0  0  0
    2.0818    4.5015   -0.3394 H   0  0  0  0  0  0  0  0  0  0  0  0
    7.3133    2.5907   -0.7504 H   0  0  0  0  0  0  0  0  0  0  0  0
    7.5852    2.4534    1.0565 H   0  0  0  0  0  0  0  0  0  0  0  0
    7.2984    5.0847    1.0829 H   0  0  0  0  0  0  0  0  0  0  0  0
    7.4522    4.9808   -0.6615 H   0  0  0  0  0  0  0  0  0  0  0  0
    9.1600    2.1643   -0.5669 H   0  0  0  0  0  0  0  0  0  0  0  0
    9.1137    6.4595    1.1775 H   0  0  0  0  0  0  0  0  0  0  0  0
    9.2696    6.5067   -0.4474 H   0  0  0  0  0  0  0  0  0  0  0  0
  1  2  1  0  0  0  0
  1 20  1  0  0  0  0
  1 21  1  0  0  0  0
  1 22  1  0  0  0  0
  2  3  1  0  0  0  0
  2 23  1  0  0  0  0
  2 24  1  0  0  0  0
  3  4  1  0  0  0  0
  3 25  1  0  0  0  0
  3 26  1  0  0  0  0
  4 27  1  0  0  0  0
  4 28  1  0  0  0  0
  5 11  2  1  0  0  0
  5 12  1  0  0  0  0
  5  6  2  0  0  0  0
  5  4  1  0  0  0  0
  6  7  1  0  0  0  0
  7  8  2  0  0  0  0
  7  9  1  0  0  0  0
  7 10  1  0  0  0  0
  9 29  1  0  0  0  0
 10 30  1  0  0  0  0
 12 13  1  0  0  0  0
 12 31  1  0  0  0  0
 12 32  1  0  0  0  0
 13 14  1  0  0  0  0
 13 33  1  0  0  0  0
 13 34  1  0  0  0  0
 14 15  1  1  0  0  0
 14 16  1  0  0  0  0
 14 19  1  0  0  0  0
 16 17  2  0  0  0  0
 16 18  1  0  0  0  0
 18 35  1  0  0  0  0
 19 36  1  0  0  0  0
 19 37  1  0  0  0  0
M  END
$$$$
