LC1
 OpenBabel04121316143D

 26 28  0  0  0  0  0  0  0  0999 V2000
    1.2033   -0.1001    0.0671 N   0  0  0  0  0  0  0  0  0  0  0  0
    2.8927   -0.0283    0.0364 S   0  0  0  0  0  0  0  0  0  0  0  0
    3.2643    0.3808   -1.2988 O   0  0  0  0  0  0  0  0  0  0  0  0
    3.2477    0.7326    1.2094 O   0  0  0  0  0  0  0  0  0  0  0  0
    3.4197   -1.7072    0.2695 C   0  0  0  0  0  0  0  0  0  0  0  0
    2.5698   -2.7676   -0.0628 C   0  0  0  0  0  0  0  0  0  0  0  0
    2.9719   -4.0969    0.1266 C   0  0  0  0  0  0  0  0  0  0  0  0
    4.2479   -4.3057    0.6577 C   0  0  0  0  0  0  0  0  0  0  0  0
    5.1103   -3.2698    1.0036 C   0  0  0  0  0  0  0  0  0  0  0  0
    4.6953   -1.9389    0.8170 C   0  0  0  0  0  0  0  0  0  0  0  0
    6.2949   -3.7690    1.4997 N   0  0  0  0  0  0  0  0  0  0  0  0
    6.1727   -5.0832    1.4631 C   0  0  0  0  0  0  0  0  0  0  0  0
    4.9505   -5.4470    0.9585 N   0  0  0  0  0  0  0  0  0  0  0  0
    4.6440   -6.4023    0.8419 H   0  0  0  0  0  0  0  0  0  0  0  0
    7.2002   -6.0723    1.9117 C   0  0  0  0  0  0  0  0  0  0  0  0
    8.4259   -5.6942    2.4203 C   0  0  0  0  0  0  0  0  0  0  0  0
    9.3350   -7.0819    2.8527 S   0  0  0  0  0  0  0  0  0  0  0  0
    8.0348   -8.0694    2.3226 C   0  0  0  0  0  0  0  0  0  0  0  0
    6.9763   -7.4423    1.8503 N   0  0  0  0  0  0  0  0  0  0  0  0
    0.8395    0.8188   -0.2017 H   0  0  0  0  0  0  0  0  0  0  0  0
    0.8614   -0.3661    0.9902 H   0  0  0  0  0  0  0  0  0  0  0  0
    1.5868   -2.5740   -0.4876 H   0  0  0  0  0  0  0  0  0  0  0  0
    2.3204   -4.9228   -0.1387 H   0  0  0  0  0  0  0  0  0  0  0  0
    5.3589   -1.1214    1.0820 H   0  0  0  0  0  0  0  0  0  0  0  0
    8.8148   -4.6957    2.5585 H   0  0  0  0  0  0  0  0  0  0  0  0
    8.1001   -9.1487    2.3834 H   0  0  0  0  0  0  0  0  0  0  0  0
  1  2  1  0  0  0  0
  1 20  1  0  0  0  0
  1 21  1  0  0  0  0
  2  3  2  0  0  0  0
  2  4  2  0  0  0  0
  2  5  1  0  0  0  0
  5  6  2  0  0  0  0
  5 10  1  0  0  0  0
  6  7  1  0  0  0  0
  6 22  1  0  0  0  0
  7  8  2  0  0  0  0
  7 23  1  0  0  0  0
  8  9  1  0  0  0  0
  8 13  1  0  0  0  0
  9 10  2  0  0  0  0
  9 11  1  0  0  0  0
 10 24  1  0  0  0  0
 11 12  2  0  0  0  0
 12 13  1  0  0  0  0
 12 15  1  0  0  0  0
 13 14  1  0  0  0  0
 15 16  2  0  0  0  0
 15 19  1  0  0  0  0
 16 17  1  0  0  0  0
 16 25  1  0  0  0  0
 17 18  1  0  0  0  0
 18 19  2  0  0  0  0
 18 26  1  0  0  0  0
M  END
$$$$
