LDN
 OpenBabel04121316143D

 53 58  0  0  0  0  0  0  0  0999 V2000
    0.7287    1.3041   -0.2236 N   0  0  0  0  0  0  0  0  0  0  0  0
   -0.6756    1.2656    0.2427 C   0  0  0  0  0  0  0  0  0  0  0  0
   -1.4243    0.0080   -0.2358 C   0  0  0  0  0  0  0  0  0  0  0  0
   -0.6864   -1.1764    0.2023 N   0  0  0  0  0  0  0  0  0  0  0  0
    0.7081   -1.2124   -0.2585 C   0  0  0  0  0  0  0  0  0  0  0  0
    1.4219    0.0721    0.2046 C   0  0  0  0  0  0  0  0  0  0  0  0
   -1.2278   -2.1544    0.9914 C   0  0  0  0  0  0  0  0  0  0  0  0
   -0.7294   -3.4512    0.9269 C   0  0  0  0  0  0  0  0  0  0  0  0
   -1.3332   -4.4944    1.6050 C   0  0  0  0  0  0  0  0  0  0  0  0
   -2.4124   -4.2725    2.4599 C   0  0  0  0  0  0  0  0  0  0  0  0
   -2.8381   -2.9562    2.6419 C   0  0  0  0  0  0  0  0  0  0  0  0
   -2.2902   -1.9258    1.8736 C   0  0  0  0  0  0  0  0  0  0  0  0
   -3.0900   -5.4098    3.0940 C   0  0  0  0  0  0  0  0  0  0  0  0
   -2.7464   -6.8185    2.7227 C   0  0  0  0  0  0  0  0  0  0  0  0
   -3.3239   -7.8971    3.1571 N   0  0  0  0  0  0  0  0  0  0  0  0
   -4.2488   -7.7186    4.1345 C   0  0  0  0  0  0  0  0  0  0  0  0
   -4.6815   -6.4547    4.5231 N   0  0  0  0  0  0  0  0  0  0  0  0
   -4.1023   -5.3174    3.9719 C   0  0  0  0  0  0  0  0  0  0  0  0
   -5.6459   -6.5221    5.4716 N   0  0  0  0  0  0  0  0  0  0  0  0
   -5.7363   -7.8244    5.7478 C   0  0  0  0  0  0  0  0  0  0  0  0
   -4.8537   -8.6152    4.9938 C   0  0  0  0  0  0  0  0  0  0  0  0
   -4.6041  -10.0455    5.0242 C   0  0  0  0  0  0  0  0  0  0  0  0
   -5.7076  -10.8867    5.1513 C   0  0  0  0  0  0  0  0  0  0  0  0
   -5.4889  -12.2460    5.1512 C   0  0  0  0  0  0  0  0  0  0  0  0
   -4.2734  -12.8143    5.0036 N   0  0  0  0  0  0  0  0  0  0  0  0
   -3.2103  -12.0068    4.8216 C   0  0  0  0  0  0  0  0  0  0  0  0
   -3.3057  -10.6072    4.8817 C   0  0  0  0  0  0  0  0  0  0  0  0
   -2.1108   -9.8547    4.7710 C   0  0  0  0  0  0  0  0  0  0  0  0
   -0.9464  -10.4120    4.2707 C   0  0  0  0  0  0  0  0  0  0  0  0
   -0.8942  -11.7789    4.0956 C   0  0  0  0  0  0  0  0  0  0  0  0
   -1.9744  -12.5650    4.5097 C   0  0  0  0  0  0  0  0  0  0  0  0
    1.1967    2.1085    0.1870 H   0  0  0  0  0  0  0  0  0  0  0  0
   -1.1987    2.1514   -0.1283 H   0  0  0  0  0  0  0  0  0  0  0  0
   -0.6958    1.3041    1.3398 H   0  0  0  0  0  0  0  0  0  0  0  0
   -1.4699   -0.0025   -1.3322 H   0  0  0  0  0  0  0  0  0  0  0  0
   -2.4634    0.0296    0.1076 H   0  0  0  0  0  0  0  0  0  0  0  0
    0.7192   -1.2915   -1.3519 H   0  0  0  0  0  0  0  0  0  0  0  0
    1.2816   -2.0586    0.1331 H   0  0  0  0  0  0  0  0  0  0  0  0
    2.4418    0.0713   -0.1925 H   0  0  0  0  0  0  0  0  0  0  0  0
    1.5010    0.0614    1.3003 H   0  0  0  0  0  0  0  0  0  0  0  0
    0.1098   -3.7076    0.2900 H   0  0  0  0  0  0  0  0  0  0  0  0
   -0.9160   -5.4719    1.3981 H   0  0  0  0  0  0  0  0  0  0  0  0
   -3.6130   -2.6967    3.3572 H   0  0  0  0  0  0  0  0  0  0  0  0
   -2.7132   -0.9339    2.0021 H   0  0  0  0  0  0  0  0  0  0  0  0
   -1.9374   -6.9769    2.0024 H   0  0  0  0  0  0  0  0  0  0  0  0
   -4.5342   -4.3925    4.3289 H   0  0  0  0  0  0  0  0  0  0  0  0
   -6.4326   -8.1577    6.5049 H   0  0  0  0  0  0  0  0  0  0  0  0
   -6.7163  -10.4966    5.2306 H   0  0  0  0  0  0  0  0  0  0  0  0
   -6.3203  -12.9373    5.2534 H   0  0  0  0  0  0  0  0  0  0  0  0
   -2.1021   -8.7909    4.9820 H   0  0  0  0  0  0  0  0  0  0  0  0
   -0.1094   -9.7688    4.0168 H   0  0  0  0  0  0  0  0  0  0  0  0
   -0.0158  -12.2360    3.6529 H   0  0  0  0  0  0  0  0  0  0  0  0
   -1.8619  -13.6444    4.5385 H   0  0  0  0  0  0  0  0  0  0  0  0
  1  2  1  0  0  0  0
  1  6  1  0  0  0  0
  1 32  1  0  0  0  0
  2  3  1  0  0  0  0
  2 33  1  0  0  0  0
  2 34  1  0  0  0  0
  3  4  1  0  0  0  0
  3 35  1  0  0  0  0
  3 36  1  0  0  0  0
  4  5  1  0  0  0  0
  4  7  1  0  0  0  0
  5  6  1  0  0  0  0
  5 37  1  0  0  0  0
  5 38  1  0  0  0  0
  6 39  1  0  0  0  0
  6 40  1  0  0  0  0
  7  8  2  0  0  0  0
  7 12  1  0  0  0  0
  8  9  1  0  0  0  0
  8 41  1  0  0  0  0
  9 10  2  0  0  0  0
  9 42  1  0  0  0  0
 10 11  1  0  0  0  0
 10 13  1  0  0  0  0
 11 12  2  0  0  0  0
 11 43  1  0  0  0  0
 12 44  1  0  0  0  0
 13 14  1  0  0  0  0
 13 18  2  0  0  0  0
 14 15  2  0  0  0  0
 14 45  1  0  0  0  0
 15 16  1  0  0  0  0
 16 17  1  0  0  0  0
 16 21  2  0  0  0  0
 17 18  1  0  0  0  0
 17 19  1  0  0  0  0
 18 46  1  0  0  0  0
 19 20  2  0  0  0  0
 20 21  1  0  0  0  0
 20 47  1  0  0  0  0
 21 22  1  0  0  0  0
 22 23  2  0  0  0  0
 22 27  1  0  0  0  0
 23 24  1  0  0  0  0
 23 48  1  0  0  0  0
 24 25  2  0  0  0  0
 24 49  1  0  0  0  0
 25 26  1  0  0  0  0
 26 27  2  0  0  0  0
 26 31  1  0  0  0  0
 27 28  1  0  0  0  0
 28 29  2  0  0  0  0
 28 50  1  0  0  0  0
 29 30  1  0  0  0  0
 29 51  1  0  0  0  0
 30 31  2  0  0  0  0
 30 52  1  0  0  0  0
 31 53  1  0  0  0  0
M  END
$$$$
