LDP
 OpenBabel04121316143D

 22 22  0  0  0  0  0  0  0  0999 V2000
    0.9820    0.0497   -0.0054 N   0  0  0  0  0  0  0  0  0  0  0  0
    2.4401    0.0680   -0.0089 C   0  0  0  0  0  0  0  0  0  0  0  0
    3.0492   -1.3094   -0.3060 C   0  0  0  0  0  0  0  0  0  0  0  0
    4.5659   -1.3333   -0.3145 C   0  0  0  0  0  0  0  0  0  0  0  0
    5.3377   -0.1612   -0.3810 C   0  0  0  0  0  0  0  0  0  0  0  0
    6.7285   -0.2083   -0.4855 C   0  0  0  0  0  0  0  0  0  0  0  0
    7.3475   -1.4435   -0.6062 C   0  0  0  0  0  0  0  0  0  0  0  0
    6.6024   -2.6128   -0.5277 C   0  0  0  0  0  0  0  0  0  0  0  0
    5.2251   -2.5740   -0.3385 C   0  0  0  0  0  0  0  0  0  0  0  0
    7.2154   -3.8248   -0.6816 O   0  0  0  0  0  0  0  0  0  0  0  0
    8.6928   -1.5414   -0.8310 O   0  0  0  0  0  0  0  0  0  0  0  0
    0.6455    0.9823    0.2335 H   0  0  0  0  0  0  0  0  0  0  0  0
    0.6498   -0.5717    0.7300 H   0  0  0  0  0  0  0  0  0  0  0  0
    2.7980    0.4292    0.9624 H   0  0  0  0  0  0  0  0  0  0  0  0
    2.7552    0.7903   -0.7700 H   0  0  0  0  0  0  0  0  0  0  0  0
    2.7037   -1.6497   -1.2919 H   0  0  0  0  0  0  0  0  0  0  0  0
    2.6860   -2.0327    0.4353 H   0  0  0  0  0  0  0  0  0  0  0  0
    4.8761    0.8229   -0.3717 H   0  0  0  0  0  0  0  0  0  0  0  0
    7.2878    0.7186   -0.4974 H   0  0  0  0  0  0  0  0  0  0  0  0
    4.6734   -3.5043   -0.2485 H   0  0  0  0  0  0  0  0  0  0  0  0
    8.1384   -3.6008   -0.9139 H   0  0  0  0  0  0  0  0  0  0  0  0
    9.0405   -0.6399   -0.9358 H   0  0  0  0  0  0  0  0  0  0  0  0
  1  2  1  0  0  0  0
  1 12  1  0  0  0  0
  1 13  1  0  0  0  0
  2  3  1  0  0  0  0
  2 14  1  0  0  0  0
  2 15  1  0  0  0  0
  3  4  1  0  0  0  0
  3 16  1  0  0  0  0
  3 17  1  0  0  0  0
  4  5  2  0  0  0  0
  4  9  1  0  0  0  0
  5  6  1  0  0  0  0
  5 18  1  0  0  0  0
  6  7  2  0  0  0  0
  6 19  1  0  0  0  0
  7  8  1  0  0  0  0
  7 11  1  0  0  0  0
  8  9  2  0  0  0  0
  8 10  1  0  0  0  0
  9 20  1  0  0  0  0
 10 21  1  0  0  0  0
 11 22  1  0  0  0  0
M  END
$$$$
