LDR
 OpenBabel04121316143D

 24 26  0  0  0  0  0  0  0  0999 V2000
    0.9859   -0.0116   -0.0693 O   0  0  0  0  0  0  0  0  0  0  0  0
    2.2144   -0.0410   -0.0689 C   0  0  0  0  0  0  0  0  0  0  0  0
    2.9510    1.1188   -0.0681 N   0  0  0  0  0  0  0  0  0  0  0  0
    2.4137    1.9760   -0.0684 H   0  0  0  0  0  0  0  0  0  0  0  0
    4.3523    1.1603   -0.0664 C   0  0  0  0  0  0  0  0  0  0  0  0
    4.9941    2.4016   -0.0647 C   0  0  0  0  0  0  0  0  0  0  0  0
    6.3874    2.4619   -0.0629 C   0  0  0  0  0  0  0  0  0  0  0  0
    7.1342    1.2895   -0.0624 C   0  0  0  0  0  0  0  0  0  0  0  0
    6.4892    0.0542   -0.0641 C   0  0  0  0  0  0  0  0  0  0  0  0
    5.0872   -0.0382   -0.0661 C   0  0  0  0  0  0  0  0  0  0  0  0
    4.3659   -1.3214   -0.0671 C   0  0  0  0  0  0  0  0  0  0  0  0
    2.9591   -1.3270   -0.0689 C   0  0  0  0  0  0  0  0  0  0  0  0
    2.2401   -2.5303   -0.0704 C   0  0  0  0  0  0  0  0  0  0  0  0
    2.9179   -3.7471   -0.0681 C   0  0  0  0  0  0  0  0  0  0  0  0
    4.3075   -3.7644   -0.0643 C   0  0  0  0  0  0  0  0  0  0  0  0
    5.0211   -2.5660   -0.0656 C   0  0  0  0  0  0  0  0  0  0  0  0
    4.4232    3.3255   -0.0646 H   0  0  0  0  0  0  0  0  0  0  0  0
    6.8943    3.4225   -0.0618 H   0  0  0  0  0  0  0  0  0  0  0  0
    8.2206    1.3251   -0.0606 H   0  0  0  0  0  0  0  0  0  0  0  0
    7.1159   -0.8319   -0.0637 H   0  0  0  0  0  0  0  0  0  0  0  0
    1.1524   -2.5175   -0.0729 H   0  0  0  0  0  0  0  0  0  0  0  0
    2.3635   -4.6809   -0.0692 H   0  0  0  0  0  0  0  0  0  0  0  0
    4.8472   -4.7079   -0.0603 H   0  0  0  0  0  0  0  0  0  0  0  0
    6.1043   -2.6362   -0.0653 H   0  0  0  0  0  0  0  0  0  0  0  0
  1  2  2  0  0  0  0
  2  3  1  0  0  0  0
  2 12  1  0  0  0  0
  3  4  1  0  0  0  0
  3  5  1  0  0  0  0
  5  6  2  0  0  0  0
  5 10  1  0  0  0  0
  6  7  1  0  0  0  0
  6 17  1  0  0  0  0
  7  8  2  0  0  0  0
  7 18  1  0  0  0  0
  8  9  1  0  0  0  0
  8 19  1  0  0  0  0
  9 10  2  0  0  0  0
  9 20  1  0  0  0  0
 10 11  1  0  0  0  0
 11 12  2  0  0  0  0
 11 16  1  0  0  0  0
 12 13  1  0  0  0  0
 13 14  2  0  0  0  0
 13 21  1  0  0  0  0
 14 15  1  0  0  0  0
 14 22  1  0  0  0  0
 15 16  2  0  0  0  0
 15 23  1  0  0  0  0
 16 24  1  0  0  0  0
M  END
$$$$
