LDT
 OpenBabel04121316143D

 36 37  0  0  0  0  0  0  0  0999 V2000
    1.0028    0.0235    0.4556 O   0  0  0  0  0  0  0  0  0  0  0  0
    2.3018    0.4385    0.4440 C   0  0  0  0  0  0  0  0  0  0  0  0
    2.7116    1.2073   -0.3926 O   0  0  0  0  0  0  0  0  0  0  0  0
    3.1105   -0.3616    1.4680 C   0  0  0  0  0  0  0  0  0  0  0  0
    4.4795   -0.4066    1.0513 O   0  0  0  0  0  0  0  0  0  0  0  0
    5.3214   -1.0780    1.9001 C   0  0  0  0  0  0  0  0  0  0  0  0
    6.2791   -0.2517    2.5195 C   0  0  0  0  0  0  0  0  0  0  0  0
    7.2929   -0.8087    3.2877 C   0  0  0  0  0  0  0  0  0  0  0  0
    8.2524   -0.0290    3.8020 F   0  0  0  0  0  0  0  0  0  0  0  0
    7.3184   -2.1673    3.5339 C   0  0  0  0  0  0  0  0  0  0  0  0
    6.3346   -2.9823    2.9710 C   0  0  0  0  0  0  0  0  0  0  0  0
    5.3724   -2.4833    2.0634 C   0  0  0  0  0  0  0  0  0  0  0  0
    4.5231   -3.5014    1.2979 C   0  0  0  0  0  0  0  0  0  0  0  0
    4.4746   -5.1493    1.6784 S   0  0  0  0  0  0  0  0  0  0  0  0
    3.8081   -3.0179    0.2177 N   0  0  0  0  0  0  0  0  0  0  0  0
    2.7890   -3.7345   -0.5644 C   0  0  0  0  0  0  0  0  0  0  0  0
    2.0494   -2.9055   -1.5920 C   0  0  0  0  0  0  0  0  0  0  0  0
    1.1245   -3.4623   -2.4789 C   0  0  0  0  0  0  0  0  0  0  0  0
    0.6150   -2.6880   -3.5402 C   0  0  0  0  0  0  0  0  0  0  0  0
    0.8411   -1.3135   -3.5891 C   0  0  0  0  0  0  0  0  0  0  0  0
    1.6325   -0.7256   -2.6348 C   0  0  0  0  0  0  0  0  0  0  0  0
    2.3363   -1.5617   -1.7828 C   0  0  0  0  0  0  0  0  0  0  0  0
    3.4247   -1.0557   -1.2045 F   0  0  0  0  0  0  0  0  0  0  0  0
    0.2479   -0.2522   -5.0310 Br  0  0  0  0  0  0  0  0  0  0  0  0
    0.6400    0.2016   -0.4374 H   0  0  0  0  0  0  0  0  0  0  0  0
    2.6853   -1.3686    1.4849 H   0  0  0  0  0  0  0  0  0  0  0  0
    2.9908    0.0997    2.4467 H   0  0  0  0  0  0  0  0  0  0  0  0
    6.2562    0.8269    2.3881 H   0  0  0  0  0  0  0  0  0  0  0  0
    8.1035   -2.5992    4.1471 H   0  0  0  0  0  0  0  0  0  0  0  0
    6.3637   -4.0335    3.2445 H   0  0  0  0  0  0  0  0  0  0  0  0
    4.0407   -2.0765   -0.0931 H   0  0  0  0  0  0  0  0  0  0  0  0
    2.0751   -4.1630    0.1515 H   0  0  0  0  0  0  0  0  0  0  0  0
    3.3115   -4.5370   -1.0894 H   0  0  0  0  0  0  0  0  0  0  0  0
    0.8715   -4.5189   -2.4213 H   0  0  0  0  0  0  0  0  0  0  0  0
    0.0812   -3.1720   -4.3525 H   0  0  0  0  0  0  0  0  0  0  0  0
    1.8073    0.3458   -2.6039 H   0  0  0  0  0  0  0  0  0  0  0  0
  1  2  1  0  0  0  0
  1 25  1  0  0  0  0
  2  3  2  0  0  0  0
  2  4  1  0  0  0  0
  4  5  1  0  0  0  0
  4 26  1  0  0  0  0
  4 27  1  0  0  0  0
  5  6  1  0  0  0  0
  6  7  2  0  0  0  0
  6 12  1  0  0  0  0
  7  8  1  0  0  0  0
  7 28  1  0  0  0  0
  8  9  1  0  0  0  0
  8 10  2  0  0  0  0
 10 11  1  0  0  0  0
 10 29  1  0  0  0  0
 11 12  2  0  0  0  0
 11 30  1  0  0  0  0
 12 13  1  0  0  0  0
 13 14  2  0  0  0  0
 13 15  1  0  0  0  0
 15 16  1  0  0  0  0
 15 31  1  0  0  0  0
 16 17  1  0  0  0  0
 16 32  1  0  0  0  0
 16 33  1  0  0  0  0
 17 18  2  0  0  0  0
 17 22  1  0  0  0  0
 18 19  1  0  0  0  0
 18 34  1  0  0  0  0
 19 20  2  0  0  0  0
 19 35  1  0  0  0  0
 20 21  1  0  0  0  0
 20 24  1  0  0  0  0
 21 22  2  0  0  0  0
 21 36  1  0  0  0  0
 22 23  1  0  0  0  0
M  END
$$$$
