LEC
 OpenBabel04121316143D

 42 43  0  0  1  0  0  0  0  0999 V2000
    0.8377   -0.0386   -0.0703 O   0  0  0  0  0  0  0  0  0  0  0  0
    2.2389    0.0463   -0.2402 C   0  0  0  0  0  0  0  0  0  0  0  0
    2.9256   -1.3099   -0.5264 C   0  0  1  0  0  0  0  0  0  0  0  0
    3.3813   -1.1982   -1.5186 H   0  0  0  0  0  0  0  0  0  0  0  0
    4.0210   -1.4208    0.4210 O   0  0  0  0  0  0  0  0  0  0  0  0
    3.5821   -1.7543    1.7701 C   0  0  1  0  0  0  0  0  0  0  0  0
    4.5072   -1.7499    2.3572 H   0  0  0  0  0  0  0  0  0  0  0  0
    2.7325   -0.7288    2.3202 O   0  0  0  0  0  0  0  0  0  0  0  0
    2.0719   -0.9749    3.4853 C   0  0  0  0  0  0  0  0  0  0  0  0
    2.4972   -1.9264    4.4039 C   0  0  0  0  0  0  0  0  0  0  0  0
    1.6427   -2.3442    5.4093 C   0  0  0  0  0  0  0  0  0  0  0  0
    0.4593   -1.6369    5.6326 C   0  0  0  0  0  0  0  0  0  0  0  0
    0.1023   -0.5550    4.8193 C   0  0  0  0  0  0  0  0  0  0  0  0
    0.8765   -0.2760    3.6937 C   0  0  0  0  0  0  0  0  0  0  0  0
   -0.3978   -2.0495    6.7417 N   0  3  0  0  0  0  0  0  0  0  0  0
   -0.0653   -3.0473    7.3871 O   0  0  0  0  0  0  0  0  0  0  0  0
   -1.4066   -1.3591    6.9733 O   0  5  0  0  0  0  0  0  0  0  0  0
    2.9485   -3.1654    1.7252 C   0  0  1  0  0  0  0  0  0  0  0  0
    2.5677   -3.4862    2.6911 H   0  0  0  0  0  0  0  0  0  0  0  0
    1.7235   -3.1480    0.7859 C   0  0  2  0  0  0  0  0  0  0  0  0
    1.3135   -4.1583    0.7104 H   0  0  0  0  0  0  0  0  0  0  0  0
    2.1362   -2.6491   -0.5972 C   0  0  2  0  0  0  0  0  0  0  0  0
    1.2624   -2.5766   -1.2510 H   0  0  0  0  0  0  0  0  0  0  0  0
    3.0141   -3.6360   -1.2006 O   0  0  0  0  0  0  0  0  0  0  0  0
    0.6451   -2.3764    1.3164 O   0  0  0  0  0  0  0  0  0  0  0  0
    3.9629   -4.1700    1.4073 N   0  0  0  0  0  0  0  0  0  0  0  0
    3.6199   -5.4974    1.4024 C   0  0  0  0  0  0  0  0  0  0  0  0
    2.5230   -5.9076    1.7458 O   0  0  0  0  0  0  0  0  0  0  0  0
    4.6829   -6.4208    0.9024 C   0  0  0  0  0  0  0  0  0  0  0  0
    0.5532    0.8288    0.2780 H   0  0  0  0  0  0  0  0  0  0  0  0
    2.6477    0.5349    0.6474 H   0  0  0  0  0  0  0  0  0  0  0  0
    2.4845    0.7701   -1.0223 H   0  0  0  0  0  0  0  0  0  0  0  0
    3.4462   -2.4400    4.2904 H   0  0  0  0  0  0  0  0  0  0  0  0
    1.9152   -3.2202    5.9910 H   0  0  0  0  0  0  0  0  0  0  0  0
   -0.7800    0.0468    5.0274 H   0  0  0  0  0  0  0  0  0  0  0  0
    0.5172    0.4480    2.9645 H   0  0  0  0  0  0  0  0  0  0  0  0
    2.6194   -4.5174   -1.0579 H   0  0  0  0  0  0  0  0  0  0  0  0
    0.8429   -1.4286    1.1712 H   0  0  0  0  0  0  0  0  0  0  0  0
    4.8105   -3.8583    0.9415 H   0  0  0  0  0  0  0  0  0  0  0  0
    5.5983   -5.8887    0.6358 H   0  0  0  0  0  0  0  0  0  0  0  0
    4.2963   -6.9323    0.0172 H   0  0  0  0  0  0  0  0  0  0  0  0
    4.8976   -7.1411    1.6940 H   0  0  0  0  0  0  0  0  0  0  0  0
  1  2  1  0  0  0  0
  1 30  1  0  0  0  0
  2  3  1  0  0  0  0
  2 31  1  0  0  0  0
  2 32  1  0  0  0  0
  3  4  1  6  0  0  0
  3  5  1  0  0  0  0
  3 22  1  0  0  0  0
  5  6  1  0  0  0  0
  6 18  1  0  0  0  0
  6  8  1  0  0  0  0
  6  7  1  1  0  0  0
  8  9  1  0  0  0  0
  9 10  2  0  0  0  0
  9 14  1  0  0  0  0
 10 11  1  0  0  0  0
 10 33  1  0  0  0  0
 11 12  2  0  0  0  0
 11 34  1  0  0  0  0
 12 13  1  0  0  0  0
 12 15  1  0  0  0  0
 13 14  2  0  0  0  0
 13 35  1  0  0  0  0
 14 36  1  0  0  0  0
 15 16  2  0  0  0  0
 15 17  1  0  0  0  0
 18 19  1  1  0  0  0
 18 20  1  0  0  0  0
 18 26  1  0  0  0  0
 20 22  1  0  0  0  0
 20 25  1  0  0  0  0
 20 21  1  6  0  0  0
 22 23  1  6  0  0  0
 22 24  1  0  0  0  0
 24 37  1  0  0  0  0
 25 38  1  0  0  0  0
 26 27  1  0  0  0  0
 26 39  1  0  0  0  0
 27 28  2  0  0  0  0
 27 29  1  0  0  0  0
 29 40  1  0  0  0  0
 29 41  1  0  0  0  0
 29 42  1  0  0  0  0
M  CHG  2  15   1  17  -1
M  END
$$$$
