LEN
 OpenBabel04121316143D

 19 18  0  0  0  0  0  0  0  0999 V2000
    0.8854    0.0502   -0.0664 N   0  0  0  0  0  0  0  0  0  0  0  0
    2.3429    0.0828   -0.0551 C   0  0  0  0  0  0  0  0  0  0  0  0
    2.9080   -1.2315    0.4880 C   0  0  0  0  0  0  0  0  0  0  0  0
    4.4482   -1.2481    0.5184 C   0  0  0  0  0  0  0  0  0  0  0  0
    5.0169   -0.1408    1.4079 C   0  0  0  0  0  0  0  0  0  0  0  0
    4.9507   -2.6068    1.0115 C   0  0  0  0  0  0  0  0  0  0  0  0
    0.5391    0.9593   -0.3774 H   0  0  0  0  0  0  0  0  0  0  0  0
    0.5443   -0.0676    0.8855 H   0  0  0  0  0  0  0  0  0  0  0  0
    2.6541    0.9274    0.5656 H   0  0  0  0  0  0  0  0  0  0  0  0
    2.7119    0.2577   -1.0709 H   0  0  0  0  0  0  0  0  0  0  0  0
    2.5544   -2.0614   -0.1391 H   0  0  0  0  0  0  0  0  0  0  0  0
    2.5193   -1.4148    1.4982 H   0  0  0  0  0  0  0  0  0  0  0  0
    4.8211   -1.0983   -0.5029 H   0  0  0  0  0  0  0  0  0  0  0  0
    4.6474   -0.2343    2.4348 H   0  0  0  0  0  0  0  0  0  0  0  0
    4.7472    0.8527    1.0386 H   0  0  0  0  0  0  0  0  0  0  0  0
    6.1103   -0.1835    1.4323 H   0  0  0  0  0  0  0  0  0  0  0  0
    4.6081   -2.8085    2.0324 H   0  0  0  0  0  0  0  0  0  0  0  0
    6.0456   -2.6389    1.0108 H   0  0  0  0  0  0  0  0  0  0  0  0
    4.5922   -3.4160    0.3669 H   0  0  0  0  0  0  0  0  0  0  0  0
  1  2  1  0  0  0  0
  1  7  1  0  0  0  0
  1  8  1  0  0  0  0
  2  3  1  0  0  0  0
  2  9  1  0  0  0  0
  2 10  1  0  0  0  0
  3  4  1  0  0  0  0
  3 11  1  0  0  0  0
  3 12  1  0  0  0  0
  4  5  1  0  0  0  0
  4  6  1  0  0  0  0
  4 13  1  0  0  0  0
  5 14  1  0  0  0  0
  5 15  1  0  0  0  0
  5 16  1  0  0  0  0
  6 17  1  0  0  0  0
  6 18  1  0  0  0  0
  6 19  1  0  0  0  0
M  END
$$$$
