LFR
 OpenBabel04121316143D

 24 24  0  0  1  0  0  0  0  0999 V2000
    3.5353    1.2616   -3.3330 O   0  0  0  0  0  0  0  0  0  0  0  0
    2.6875    0.6679   -2.3467 C   0  0  0  0  0  0  0  0  0  0  0  0
    3.0778    1.1293   -0.9297 C   0  0  2  0  0  0  0  0  0  0  0  0
    2.6435    0.4399   -0.1970 H   0  0  0  0  0  0  0  0  0  0  0  0
    2.5056    2.4269   -0.6543 O   0  0  0  0  0  0  0  0  0  0  0  0
    3.4381    3.4089   -1.1259 C   0  0  1  0  0  0  0  0  0  0  0  0
    4.8446    2.8021   -0.9169 C   0  0  1  0  0  0  0  0  0  0  0  0
    5.3099    3.1882   -0.0030 H   0  0  0  0  0  0  0  0  0  0  0  0
    4.5914    1.2955   -0.7640 C   0  0  1  0  0  0  0  0  0  0  0  0
    5.1581    0.6870   -1.4756 H   0  0  0  0  0  0  0  0  0  0  0  0
    4.9960    0.8413    0.5400 O   0  0  0  0  0  0  0  0  0  0  0  0
    5.7423    3.0711   -1.9963 O   0  0  0  0  0  0  0  0  0  0  0  0
    3.1520    3.7006   -2.4940 O   0  0  0  0  0  0  0  0  0  0  0  0
    3.2171    4.7111   -0.3343 C   0  0  0  0  0  0  0  0  0  0  0  0
    4.1769    5.7189   -0.6601 O   0  0  0  0  0  0  0  0  0  0  0  0
    3.5739    0.6535   -4.0964 H   0  0  0  0  0  0  0  0  0  0  0  0
    2.7840   -0.4190   -2.4244 H   0  0  0  0  0  0  0  0  0  0  0  0
    1.6607    0.9624   -2.5839 H   0  0  0  0  0  0  0  0  0  0  0  0
    4.4904    1.3309    1.2107 H   0  0  0  0  0  0  0  0  0  0  0  0
    5.7037    4.0360   -2.1438 H   0  0  0  0  0  0  0  0  0  0  0  0
    3.4868    2.9319   -3.0026 H   0  0  0  0  0  0  0  0  0  0  0  0
    2.2163    5.1062   -0.5498 H   0  0  0  0  0  0  0  0  0  0  0  0
    3.2681    4.5259    0.7433 H   0  0  0  0  0  0  0  0  0  0  0  0
    3.6724    6.5410   -0.8026 H   0  0  0  0  0  0  0  0  0  0  0  0
  1  2  1  0  0  0  0
  1 16  1  0  0  0  0
  2 17  1  0  0  0  0
  2 18  1  0  0  0  0
  3  5  1  0  0  0  0
  3  9  1  0  0  0  0
  3  4  1  1  0  0  0
  3  2  1  0  0  0  0
  5  6  1  0  0  0  0
  6  7  1  0  0  0  0
  6 14  1  1  0  0  0
  6 13  1  0  0  0  0
  7  8  1  1  0  0  0
  7  9  1  0  0  0  0
  7 12  1  0  0  0  0
  9 11  1  0  0  0  0
  9 10  1  6  0  0  0
 11 19  1  0  0  0  0
 12 20  1  0  0  0  0
 13 21  1  0  0  0  0
 14 15  1  0  0  0  0
 14 22  1  0  0  0  0
 14 23  1  0  0  0  0
 15 24  1  0  0  0  0
M  END
$$$$
