LG0
 OpenBabel04121316143D

 66 71  0  0  0  0  0  0  0  0999 V2000
    0.9922    0.0795    0.0294 C   0  0  0  0  0  0  0  0  0  0  0  0
    2.4238    0.0859    0.0838 O   0  0  0  0  0  0  0  0  0  0  0  0
    2.9503    0.6419   -1.0502 C   0  0  0  0  0  0  0  0  0  0  0  0
    2.9829    2.0183   -1.2489 C   0  0  0  0  0  0  0  0  0  0  0  0
    3.4142    2.5475   -2.4895 C   0  0  0  0  0  0  0  0  0  0  0  0
    3.9182    1.7062   -3.5045 C   0  0  0  0  0  0  0  0  0  0  0  0
    4.0817    0.3611   -3.1636 C   0  0  0  0  0  0  0  0  0  0  0  0
    3.5462   -0.1843   -1.9858 C   0  0  0  0  0  0  0  0  0  0  0  0
    4.2084    2.2072   -4.8407 N   0  0  0  0  0  0  0  0  0  0  0  0
    4.1514    3.5858   -5.0737 N   0  0  0  0  0  0  0  0  0  0  0  0
    4.4044    3.7699   -6.3876 C   0  0  0  0  0  0  0  0  0  0  0  0
    4.5986    2.5326   -7.0063 C   0  0  0  0  0  0  0  0  0  0  0  0
    4.4894    1.5334   -6.0459 C   0  0  0  0  0  0  0  0  0  0  0  0
    4.6876    0.1175   -6.4132 C   0  0  0  0  0  0  0  0  0  0  0  0
    4.5307   -0.8626   -5.7108 O   0  0  0  0  0  0  0  0  0  0  0  0
    5.1366   -0.0126   -7.7393 N   0  0  0  0  0  0  0  0  0  0  0  0
    4.6135    0.8603   -8.7764 C   0  0  0  0  0  0  0  0  0  0  0  0
    4.8893    2.2982   -8.4433 C   0  0  0  0  0  0  0  0  0  0  0  0
    6.1764   -0.8710   -8.1121 C   0  0  0  0  0  0  0  0  0  0  0  0
    7.2814   -0.3029   -8.7259 C   0  0  0  0  0  0  0  0  0  0  0  0
    8.1276   -1.1172   -9.4353 C   0  0  0  0  0  0  0  0  0  0  0  0
    8.0493   -2.5286   -9.3718 C   0  0  0  0  0  0  0  0  0  0  0  0
    7.0271   -3.0710   -8.5910 C   0  0  0  0  0  0  0  0  0  0  0  0
    6.0486   -2.2514   -8.0330 C   0  0  0  0  0  0  0  0  0  0  0  0
    9.1819   -3.3584   -9.9795 C   0  0  0  0  0  0  0  0  0  0  0  0
    9.0799   -4.8928   -9.9842 C   0  0  0  0  0  0  0  0  0  0  0  0
    8.9310   -4.1317  -11.2674 C   0  0  0  0  0  0  0  0  0  0  0  0
   10.4655   -2.5969   -9.7049 C   0  0  0  0  0  0  0  0  0  0  0  0
   11.7989   -2.9790  -10.0735 N   0  0  0  0  0  0  0  0  0  0  0  0
   12.7222   -2.0314   -9.4139 C   0  0  0  0  0  0  0  0  0  0  0  0
   14.0117   -2.8022   -9.4565 C   0  0  0  0  0  0  0  0  0  0  0  0
   13.5777   -4.2391   -9.2145 C   0  0  0  0  0  0  0  0  0  0  0  0
   12.1136   -4.2970   -9.5713 C   0  0  0  0  0  0  0  0  0  0  0  0
    4.4671    5.0910   -7.1584 C   0  0  0  0  0  0  0  0  0  0  0  0
    3.2935    5.7716   -7.1515 F   0  0  0  0  0  0  0  0  0  0  0  0
    5.4452    5.9263   -6.7281 F   0  0  0  0  0  0  0  0  0  0  0  0
    4.7472    4.8902   -8.4868 F   0  0  0  0  0  0  0  0  0  0  0  0
    0.6151   -0.3879    0.9462 H   0  0  0  0  0  0  0  0  0  0  0  0
    0.6259   -0.5124   -0.8182 H   0  0  0  0  0  0  0  0  0  0  0  0
    0.5887    1.0966   -0.0147 H   0  0  0  0  0  0  0  0  0  0  0  0
    2.6571    2.6765   -0.4467 H   0  0  0  0  0  0  0  0  0  0  0  0
    3.3203    3.6216   -2.6374 H   0  0  0  0  0  0  0  0  0  0  0  0
    4.6546   -0.3196   -3.7680 H   0  0  0  0  0  0  0  0  0  0  0  0
    3.6024   -1.2567   -1.8163 H   0  0  0  0  0  0  0  0  0  0  0  0
    3.5307    0.6862   -8.7952 H   0  0  0  0  0  0  0  0  0  0  0  0
    4.9959    0.6147   -9.7745 H   0  0  0  0  0  0  0  0  0  0  0  0
    4.2502    2.9046   -9.0887 H   0  0  0  0  0  0  0  0  0  0  0  0
    5.9372    2.5552   -8.6345 H   0  0  0  0  0  0  0  0  0  0  0  0
    7.5017    0.7599   -8.6883 H   0  0  0  0  0  0  0  0  0  0  0  0
    8.9060   -0.5972   -9.9864 H   0  0  0  0  0  0  0  0  0  0  0  0
    6.9767   -4.1397   -8.4125 H   0  0  0  0  0  0  0  0  0  0  0  0
    5.1736   -2.7016   -7.5801 H   0  0  0  0  0  0  0  0  0  0  0  0
    8.1977   -5.4020   -9.6090 H   0  0  0  0  0  0  0  0  0  0  0  0
    9.9348   -5.5458   -9.8811 H   0  0  0  0  0  0  0  0  0  0  0  0
    7.9365   -4.1295  -11.7045 H   0  0  0  0  0  0  0  0  0  0  0  0
    9.7194   -4.2319  -12.0047 H   0  0  0  0  0  0  0  0  0  0  0  0
   10.4399   -2.3915   -8.6214 H   0  0  0  0  0  0  0  0  0  0  0  0
   10.3904   -1.6437  -10.2293 H   0  0  0  0  0  0  0  0  0  0  0  0
   12.4490   -1.8190   -8.3678 H   0  0  0  0  0  0  0  0  0  0  0  0
   12.7812   -1.0682   -9.9366 H   0  0  0  0  0  0  0  0  0  0  0  0
   14.7232   -2.4562   -8.7033 H   0  0  0  0  0  0  0  0  0  0  0  0
   14.4638   -2.6987  -10.4482 H   0  0  0  0  0  0  0  0  0  0  0  0
   13.6863   -4.5010   -8.1577 H   0  0  0  0  0  0  0  0  0  0  0  0
   14.1500   -4.9404   -9.8233 H   0  0  0  0  0  0  0  0  0  0  0  0
   11.5284   -4.5590   -8.6803 H   0  0  0  0  0  0  0  0  0  0  0  0
   11.9189   -5.0255  -10.3625 H   0  0  0  0  0  0  0  0  0  0  0  0
  1  2  1  0  0  0  0
  1 38  1  0  0  0  0
  1 39  1  0  0  0  0
  1 40  1  0  0  0  0
  2  3  1  0  0  0  0
  3  4  2  0  0  0  0
  3  8  1  0  0  0  0
  4  5  1  0  0  0  0
  4 41  1  0  0  0  0
  5  6  2  0  0  0  0
  5 42  1  0  0  0  0
  6  7  1  0  0  0  0
  6  9  1  0  0  0  0
  7  8  2  0  0  0  0
  7 43  1  0  0  0  0
  8 44  1  0  0  0  0
  9 10  1  0  0  0  0
  9 13  1  0  0  0  0
 10 11  2  0  0  0  0
 11 12  1  0  0  0  0
 11 34  1  0  0  0  0
 12 13  2  0  0  0  0
 12 18  1  0  0  0  0
 13 14  1  0  0  0  0
 14 15  2  0  0  0  0
 14 16  1  0  0  0  0
 16 17  1  0  0  0  0
 16 19  1  0  0  0  0
 17 18  1  0  0  0  0
 17 45  1  0  0  0  0
 17 46  1  0  0  0  0
 18 47  1  0  0  0  0
 18 48  1  0  0  0  0
 19 20  2  0  0  0  0
 19 24  1  0  0  0  0
 20 21  1  0  0  0  0
 20 49  1  0  0  0  0
 21 22  2  0  0  0  0
 21 50  1  0  0  0  0
 22 23  1  0  0  0  0
 22 25  1  0  0  0  0
 23 24  2  0  0  0  0
 23 51  1  0  0  0  0
 24 52  1  0  0  0  0
 25 26  1  0  0  0  0
 25 27  1  0  0  0  0
 25 28  1  0  0  0  0
 26 27  1  0  0  0  0
 26 53  1  0  0  0  0
 26 54  1  0  0  0  0
 27 55  1  0  0  0  0
 27 56  1  0  0  0  0
 28 29  1  0  0  0  0
 28 57  1  0  0  0  0
 28 58  1  0  0  0  0
 29 30  1  0  0  0  0
 29 33  1  0  0  0  0
 30 31  1  0  0  0  0
 30 59  1  0  0  0  0
 30 60  1  0  0  0  0
 31 32  1  0  0  0  0
 31 61  1  0  0  0  0
 31 62  1  0  0  0  0
 32 33  1  0  0  0  0
 32 63  1  0  0  0  0
 32 64  1  0  0  0  0
 33 65  1  0  0  0  0
 33 66  1  0  0  0  0
 34 35  1  0  0  0  0
 34 36  1  0  0  0  0
 34 37  1  0  0  0  0
M  END
$$$$
