LG6
 OpenBabel04121316143D

 30 29  0  0  1  0  0  0  0  0999 V2000
    2.8579    1.9802   -2.9764 O   0  0  0  0  0  0  0  0  0  0  0  0
    2.3710    1.3523   -1.7895 C   0  0  2  0  0  0  0  0  0  0  0  0
    2.3816    2.1311   -1.0193 H   0  0  0  0  0  0  0  0  0  0  0  0
    3.1401    0.0741   -1.2939 C   0  0  2  0  0  0  0  0  0  0  0  0
    2.7848   -0.0911   -0.2705 H   0  0  0  0  0  0  0  0  0  0  0  0
    4.6439    0.2040   -1.3612 C   0  0  1  0  0  0  0  0  0  0  0  0
    5.0572   -0.7381   -0.9780 H   0  0  0  0  0  0  0  0  0  0  0  0
    5.1344    0.4045   -2.8194 C   0  0  1  0  0  0  0  0  0  0  0  0
    4.9111    1.4012   -3.1996 H   0  0  0  0  0  0  0  0  0  0  0  0
    6.6507    0.3456   -2.8227 C   0  0  0  0  0  0  0  0  0  0  0  0
    7.3232   -0.4510   -3.4737 O   0  0  0  0  0  0  0  0  0  0  0  0
    7.2184    1.3055   -2.0498 O   0  0  0  0  0  0  0  0  0  0  0  0
    4.5698   -0.5304   -3.7458 O   0  0  0  0  0  0  0  0  0  0  0  0
    5.0639    1.2605   -0.4920 O   0  0  0  0  0  0  0  0  0  0  0  0
    2.8253   -1.1418   -2.0039 O   0  0  0  0  0  0  0  0  0  0  0  0
    0.9792    0.8881   -2.0733 C   0  0  0  0  0  0  0  0  0  0  0  0
    1.1540   -0.1360   -3.0718 O   0  0  0  0  0  0  0  0  0  0  0  0
   -0.3955   -0.8782   -3.2744 P   0  0  0  0  0  0  0  0  0  0  0  0
   -0.8695    0.2799   -4.1438 O   0  0  0  0  0  0  0  0  0  0  0  0
    0.2891   -2.0169   -4.2024 O   0  0  0  0  0  0  0  0  0  0  0  0
   -1.9450   -1.6204   -3.4771 O   0  0  0  0  0  0  0  0  0  0  0  0
    2.6519    1.4051   -3.7415 H   0  0  0  0  0  0  0  0  0  0  0  0
    6.5447    1.8072   -1.5304 H   0  0  0  0  0  0  0  0  0  0  0  0
    3.6270   -0.6659   -3.5234 H   0  0  0  0  0  0  0  0  0  0  0  0
    4.7112    1.0579    0.3983 H   0  0  0  0  0  0  0  0  0  0  0  0
    3.0820   -1.9270   -1.4943 H   0  0  0  0  0  0  0  0  0  0  0  0
    0.3290    1.6850   -2.4494 H   0  0  0  0  0  0  0  0  0  0  0  0
    0.5366    0.4470   -1.1728 H   0  0  0  0  0  0  0  0  0  0  0  0
    1.2244   -1.7959   -4.3605 H   0  0  0  0  0  0  0  0  0  0  0  0
   -2.6245   -0.9719   -3.2224 H   0  0  0  0  0  0  0  0  0  0  0  0
  1 22  1  0  0  0  0
  2 16  1  0  0  0  0
  2  3  1  1  0  0  0
  2  1  1  0  0  0  0
  4  6  1  0  0  0  0
  4 15  1  0  0  0  0
  4  5  1  1  0  0  0
  4  2  1  0  0  0  0
  6  7  1  1  0  0  0
  6  8  1  0  0  0  0
  6 14  1  0  0  0  0
  8  9  1  6  0  0  0
  8 10  1  0  0  0  0
  8 13  1  0  0  0  0
 10 11  2  0  0  0  0
 10 12  1  0  0  0  0
 12 23  1  0  0  0  0
 13 24  1  0  0  0  0
 14 25  1  0  0  0  0
 15 26  1  0  0  0  0
 16 17  1  0  0  0  0
 16 27  1  0  0  0  0
 16 28  1  0  0  0  0
 17 18  1  0  0  0  0
 18 19  2  0  0  0  0
 18 20  1  0  0  0  0
 18 21  1  0  0  0  0
 20 29  1  0  0  0  0
 21 30  1  0  0  0  0
M  END
$$$$
