LG7
 OpenBabel04121316143D

 36 39  0  0  1  0  0  0  0  0999 V2000
    0.9142    0.0455   -0.0666 N   0  0  0  0  0  0  0  0  0  0  0  0
    2.0676    0.0385   -0.0411 C   0  0  0  0  0  0  0  0  0  0  0  0
    3.5112    0.0577   -0.0124 C   0  0  0  0  0  0  0  0  0  0  0  0
    4.1887   -1.1537   -0.1188 C   0  0  0  0  0  0  0  0  0  0  0  0
    5.5843   -1.1874   -0.1049 C   0  0  0  0  0  0  0  0  0  0  0  0
    6.3524   -0.0210    0.0449 C   0  0  0  0  0  0  0  0  0  0  0  0
    5.6589    1.2412    0.0263 C   0  0  0  0  0  0  0  0  0  0  0  0
    4.2319    1.2676    0.0463 C   0  0  0  0  0  0  0  0  0  0  0  0
    3.5641    2.5145    0.0939 C   0  0  0  0  0  0  0  0  0  0  0  0
    4.2397    3.7104   -0.1114 C   0  0  0  0  0  0  0  0  0  0  0  0
    5.6004    3.6893   -0.2982 C   0  0  0  0  0  0  0  0  0  0  0  0
    6.2895    2.5028   -0.0989 C   0  0  0  0  0  0  0  0  0  0  0  0
    7.7819   -0.1236    0.0941 N   0  0  0  0  0  0  0  0  0  0  0  0
    8.6380    0.7820    0.6615 C   0  0  0  0  0  0  0  0  0  0  0  0
    8.3980    1.6242    1.5177 O   0  0  0  0  0  0  0  0  0  0  0  0
   10.0534    0.4955    0.2237 C   0  0  1  0  0  0  0  0  0  0  0  0
   10.6994    0.4329    1.1006 H   0  0  0  0  0  0  0  0  0  0  0  0
    9.8365   -0.8366   -0.2316 N   0  0  0  0  0  0  0  0  0  0  0  0
    8.5520   -1.2649    0.0020 C   0  0  0  0  0  0  0  0  0  0  0  0
    8.2481   -2.4213    0.2394 O   0  0  0  0  0  0  0  0  0  0  0  0
   11.0289   -1.3652   -0.8207 C   0  0  0  0  0  0  0  0  0  0  0  0
   11.5460   -0.1085   -1.5753 C   0  0  0  0  0  0  0  0  0  0  0  0
   10.7435    1.1180   -0.9777 C   0  0  1  0  0  0  0  0  0  0  0  0
   11.4513    1.9151   -0.7229 H   0  0  0  0  0  0  0  0  0  0  0  0
    9.8189    1.6957   -1.9037 O   0  0  0  0  0  0  0  0  0  0  0  0
    3.6362   -2.0884   -0.2051 H   0  0  0  0  0  0  0  0  0  0  0  0
    6.0469   -2.1657   -0.2025 H   0  0  0  0  0  0  0  0  0  0  0  0
    2.4875    2.5734    0.2470 H   0  0  0  0  0  0  0  0  0  0  0  0
    3.7063    4.6538   -0.1276 H   0  0  0  0  0  0  0  0  0  0  0  0
    6.1564    4.5820   -0.5660 H   0  0  0  0  0  0  0  0  0  0  0  0
    7.3586    2.6390   -0.0591 H   0  0  0  0  0  0  0  0  0  0  0  0
   10.8772   -2.2580   -1.4320 H   0  0  0  0  0  0  0  0  0  0  0  0
   11.6822   -1.6268    0.0225 H   0  0  0  0  0  0  0  0  0  0  0  0
   11.4161   -0.2103   -2.6594 H   0  0  0  0  0  0  0  0  0  0  0  0
   12.6219    0.0021   -1.3847 H   0  0  0  0  0  0  0  0  0  0  0  0
    8.9115    1.6714   -1.5489 H   0  0  0  0  0  0  0  0  0  0  0  0
  1  2  3  0  0  0  0
  2  3  1  0  0  0  0
  3  4  2  0  0  0  0
  3  8  1  0  0  0  0
  4  5  1  0  0  0  0
  4 26  1  0  0  0  0
  5  6  2  0  0  0  0
  5 27  1  0  0  0  0
  6  7  1  0  0  0  0
  6 13  1  0  0  0  0
  7  8  2  0  0  0  0
  7 12  1  0  0  0  0
  8  9  1  0  0  0  0
  9 10  2  0  0  0  0
  9 28  1  0  0  0  0
 10 11  1  0  0  0  0
 10 29  1  0  0  0  0
 11 12  2  0  0  0  0
 11 30  1  0  0  0  0
 12 31  1  0  0  0  0
 13 14  1  0  0  0  0
 13 19  1  0  0  0  0
 14 16  1  0  0  0  0
 14 15  2  0  0  0  0
 16 18  1  0  0  0  0
 16 23  1  0  0  0  0
 16 17  1  1  0  0  0
 18 19  1  0  0  0  0
 18 21  1  0  0  0  0
 19 20  2  0  0  0  0
 21 22  1  0  0  0  0
 21 32  1  0  0  0  0
 21 33  1  0  0  0  0
 22 23  1  0  0  0  0
 22 34  1  0  0  0  0
 22 35  1  0  0  0  0
 23 24  1  1  0  0  0
 23 25  1  0  0  0  0
 25 36  1  0  0  0  0
M  END
$$$$
