LGB
 OpenBabel04121316143D

 37 39  0  0  1  0  0  0  0  0999 V2000
    0.9415    0.1301   -0.1123 N   0  0  0  0  0  0  0  0  0  0  0  0
    2.0851    0.0800   -0.1253 C   0  0  0  0  0  0  0  0  0  0  0  0
    3.5212    0.0482   -0.0875 C   0  0  0  0  0  0  0  0  0  0  0  0
    4.1936    1.2534   -0.1057 C   0  0  0  0  0  0  0  0  0  0  0  0
    5.5237    1.2414    0.2283 C   0  0  0  0  0  0  0  0  0  0  0  0
    6.3023    0.0760    0.1522 C   0  0  0  0  0  0  0  0  0  0  0  0
    5.6445   -1.1455    0.0531 C   0  0  0  0  0  0  0  0  0  0  0  0
    4.2356   -1.1496    0.0501 C   0  0  0  0  0  0  0  0  0  0  0  0
    3.3780   -2.6502    0.1889 Cl  0  0  0  0  0  0  0  0  0  0  0  0
    6.4214   -2.4170   -0.0891 C   0  0  0  0  0  0  0  0  0  0  0  0
    7.6832    0.2000   -0.1280 N   0  0  0  0  0  0  0  0  0  0  0  0
    8.1922    1.3222    0.2304 C   0  0  0  0  0  0  0  0  0  0  0  0
    7.9488    1.7791    1.4798 O   0  0  0  0  0  0  0  0  0  0  0  0
    8.6555    3.0086    1.7623 C   0  0  2  0  0  0  0  0  0  0  0  0
    8.1062    3.8493    2.1907 H   0  0  0  0  0  0  0  0  0  0  0  0
    8.7711    3.5447    0.3234 C   0  0  1  0  0  0  0  0  0  0  0  0
    9.6562    4.1107    0.0347 H   0  0  0  0  0  0  0  0  0  0  0  0
    8.6109    2.3693   -0.5498 N   0  0  0  0  0  0  0  0  0  0  0  0
    7.8364    2.7513   -1.7606 C   0  0  0  0  0  0  0  0  0  0  0  0
    6.9688    3.9743   -1.3893 C   0  0  0  0  0  0  0  0  0  0  0  0
    7.4240    4.3779    0.0214 C   0  0  2  0  0  0  0  0  0  0  0  0
    6.6607    4.0873    0.7562 H   0  0  0  0  0  0  0  0  0  0  0  0
    7.5483    5.7873    0.1974 O   0  0  0  0  0  0  0  0  0  0  0  0
    9.1759    2.5379    3.1051 C   0  0  0  0  0  0  0  0  0  0  0  0
    8.0194    2.3964    3.8656 F   0  0  0  0  0  0  0  0  0  0  0  0
    9.7652    1.3275    3.1407 F   0  0  0  0  0  0  0  0  0  0  0  0
    9.9264    3.4180    3.7839 F   0  0  0  0  0  0  0  0  0  0  0  0
    3.7180    2.2033   -0.3308 H   0  0  0  0  0  0  0  0  0  0  0  0
    5.9668    2.1869    0.4925 H   0  0  0  0  0  0  0  0  0  0  0  0
    7.5026   -2.2562   -0.0862 H   0  0  0  0  0  0  0  0  0  0  0  0
    6.1641   -2.8856   -1.0443 H   0  0  0  0  0  0  0  0  0  0  0  0
    6.1883   -3.0877    0.7412 H   0  0  0  0  0  0  0  0  0  0  0  0
    7.2441    1.9459   -2.2262 H   0  0  0  0  0  0  0  0  0  0  0  0
    8.5725    3.0475   -2.5124 H   0  0  0  0  0  0  0  0  0  0  0  0
    5.8926    3.7278   -1.3945 H   0  0  0  0  0  0  0  0  0  0  0  0
    7.0554    4.7786   -2.1320 H   0  0  0  0  0  0  0  0  0  0  0  0
    7.0469    6.2700   -0.4876 H   0  0  0  0  0  0  0  0  0  0  0  0
  1  2  3  0  0  0  0
  2  3  1  0  0  0  0
  3  4  2  0  0  0  0
  3  8  1  0  0  0  0
  4  5  1  0  0  0  0
  4 28  1  0  0  0  0
  5  6  2  0  0  0  0
  5 29  1  0  0  0  0
  6  7  1  0  0  0  0
  6 11  1  0  0  0  0
  7  8  2  0  0  0  0
  7 10  1  0  0  0  0
  8  9  1  0  0  0  0
 10 30  1  0  0  0  0
 10 31  1  0  0  0  0
 10 32  1  0  0  0  0
 11 12  2  0  0  0  0
 12 13  1  0  0  0  0
 12 18  1  0  0  0  0
 13 14  1  0  0  0  0
 14 16  1  0  0  0  0
 14 15  1  1  0  0  0
 14 24  1  0  0  0  0
 16 18  1  0  0  0  0
 16 21  1  0  0  0  0
 16 17  1  6  0  0  0
 18 19  1  0  0  0  0
 19 20  1  0  0  0  0
 19 33  1  0  0  0  0
 19 34  1  0  0  0  0
 20 21  1  0  0  0  0
 20 35  1  0  0  0  0
 20 36  1  0  0  0  0
 21 23  1  0  0  0  0
 21 22  1  1  0  0  0
 23 37  1  0  0  0  0
 24 25  1  0  0  0  0
 24 26  1  0  0  0  0
 24 27  1  0  0  0  0
M  END
$$$$
