LGD
 OpenBabel04121316143D

 35 36  0  0  0  0  0  0  0  0999 V2000
    0.6637   -0.0685   -0.0640 O   0  0  0  0  0  0  0  0  0  0  0  0
    1.8984   -0.0707   -0.0386 C   0  0  0  0  0  0  0  0  0  0  0  0
    2.6269    1.2139   -0.1041 C   0  0  0  0  0  0  0  0  0  0  0  0
    3.9646    1.2620   -0.1149 C   0  0  0  0  0  0  0  0  0  0  0  0
    4.6576   -0.0409   -0.0939 C   0  0  0  0  0  0  0  0  0  0  0  0
    4.0152   -1.2501   -0.0310 C   0  0  0  0  0  0  0  0  0  0  0  0
    2.6250   -1.2290    0.0380 N   0  0  0  0  0  0  0  0  0  0  0  0
    2.1076   -2.0950    0.0558 H   0  0  0  0  0  0  0  0  0  0  0  0
    4.7539   -2.4355   -0.0913 C   0  0  0  0  0  0  0  0  0  0  0  0
    6.1428   -2.3911   -0.3488 C   0  0  0  0  0  0  0  0  0  0  0  0
    6.8538   -1.1955   -0.2567 C   0  0  0  0  0  0  0  0  0  0  0  0
    6.0285   -0.0920   -0.1232 C   0  0  0  0  0  0  0  0  0  0  0  0
    8.2349   -1.0737   -0.2902 N   0  0  0  0  0  0  0  0  0  0  0  0
    9.0387    0.1943   -0.0005 C   0  0  0  0  0  0  0  0  0  0  0  0
    8.3949    1.5546    0.2333 C   0  0  0  0  0  0  0  0  0  0  0  0
    7.6910    1.9226   -0.8647 F   0  0  0  0  0  0  0  0  0  0  0  0
    7.6074    1.5155    1.3374 F   0  0  0  0  0  0  0  0  0  0  0  0
    9.2778    2.5474    0.4432 F   0  0  0  0  0  0  0  0  0  0  0  0
    9.0437   -2.3273   -0.4393 C   0  0  0  0  0  0  0  0  0  0  0  0
   10.5716   -2.1699   -0.3808 C   0  0  0  0  0  0  0  0  0  0  0  0
   11.0153   -1.3184   -1.3341 F   0  0  0  0  0  0  0  0  0  0  0  0
   10.9710   -1.6871    0.8190 F   0  0  0  0  0  0  0  0  0  0  0  0
   11.1998   -3.3484   -0.5682 F   0  0  0  0  0  0  0  0  0  0  0  0
    4.7090    2.5761   -0.1962 C   0  0  0  0  0  0  0  0  0  0  0  0
    5.5313    2.7760    0.8671 F   0  0  0  0  0  0  0  0  0  0  0  0
    5.4732    2.6694   -1.3150 F   0  0  0  0  0  0  0  0  0  0  0  0
    3.8789    3.6517   -0.2266 F   0  0  0  0  0  0  0  0  0  0  0  0
    2.0356    2.1205   -0.1539 H   0  0  0  0  0  0  0  0  0  0  0  0
    4.2792   -3.4017    0.0461 H   0  0  0  0  0  0  0  0  0  0  0  0
    6.6354   -3.3235   -0.6111 H   0  0  0  0  0  0  0  0  0  0  0  0
    6.4045    0.8772   -0.0220 H   0  0  0  0  0  0  0  0  0  0  0  0
    9.7020    0.3504   -0.8543 H   0  0  0  0  0  0  0  0  0  0  0  0
    9.6361    0.0135    0.8964 H   0  0  0  0  0  0  0  0  0  0  0  0
    8.7963   -2.7810   -1.4072 H   0  0  0  0  0  0  0  0  0  0  0  0
    8.7562   -3.0368    0.3478 H   0  0  0  0  0  0  0  0  0  0  0  0
  1  2  2  0  0  0  0
  2  3  1  0  0  0  0
  2  7  1  0  0  0  0
  3  4  2  0  0  0  0
  3 28  1  0  0  0  0
  4  5  1  0  0  0  0
  4 24  1  0  0  0  0
  5  6  2  0  0  0  0
  5 12  1  0  0  0  0
  6  7  1  0  0  0  0
  6  9  1  0  0  0  0
  7  8  1  0  0  0  0
  9 10  2  0  0  0  0
  9 29  1  0  0  0  0
 10 11  1  0  0  0  0
 10 30  1  0  0  0  0
 11 12  2  0  0  0  0
 11 13  1  0  0  0  0
 12 31  1  0  0  0  0
 13 14  1  0  0  0  0
 13 19  1  0  0  0  0
 14 15  1  0  0  0  0
 14 32  1  0  0  0  0
 14 33  1  0  0  0  0
 15 16  1  0  0  0  0
 15 17  1  0  0  0  0
 15 18  1  0  0  0  0
 19 20  1  0  0  0  0
 19 34  1  0  0  0  0
 19 35  1  0  0  0  0
 20 21  1  0  0  0  0
 20 22  1  0  0  0  0
 20 23  1  0  0  0  0
 24 25  1  0  0  0  0
 24 26  1  0  0  0  0
 24 27  1  0  0  0  0
M  END
$$$$
