LGK
 OpenBabel04121316143D

 63 68  0  0  0  0  0  0  0  0999 V2000
    1.0681   -0.0229    0.2209 O   0  0  0  0  0  0  0  0  0  0  0  0
    2.2718    0.0640    0.0034 C   0  0  0  0  0  0  0  0  0  0  0  0
    3.0943   -1.1214   -0.0424 N   0  0  0  0  0  0  0  0  0  0  0  0
    4.1516   -1.1304   -1.0257 C   0  0  0  0  0  0  0  0  0  0  0  0
    5.1185   -0.0349   -0.7079 C   0  0  0  0  0  0  0  0  0  0  0  0
    4.3793    1.2343   -0.5564 C   0  0  0  0  0  0  0  0  0  0  0  0
    3.0294    1.3220   -0.2436 C   0  0  0  0  0  0  0  0  0  0  0  0
    2.7683    2.7222   -0.1771 N   0  0  0  0  0  0  0  0  0  0  0  0
    3.9554    3.4300   -0.4123 N   0  0  0  0  0  0  0  0  0  0  0  0
    4.9205    2.5149   -0.6423 C   0  0  0  0  0  0  0  0  0  0  0  0
    6.4073    2.7464   -0.9348 C   0  0  0  0  0  0  0  0  0  0  0  0
    6.6299    3.3746   -2.1157 F   0  0  0  0  0  0  0  0  0  0  0  0
    7.0533    3.4266    0.0432 F   0  0  0  0  0  0  0  0  0  0  0  0
    7.0966    1.5632   -1.0365 F   0  0  0  0  0  0  0  0  0  0  0  0
    1.5472    3.4990    0.0652 C   0  0  0  0  0  0  0  0  0  0  0  0
    0.3035    2.8778    0.2010 C   0  0  0  0  0  0  0  0  0  0  0  0
   -0.8924    3.5948    0.3854 C   0  0  0  0  0  0  0  0  0  0  0  0
   -0.9005    4.9789    0.3196 C   0  0  0  0  0  0  0  0  0  0  0  0
    0.3178    5.6415    0.1859 C   0  0  0  0  0  0  0  0  0  0  0  0
    1.5422    4.9206    0.1235 C   0  0  0  0  0  0  0  0  0  0  0  0
    0.2637    7.0976   -0.0022 C   0  0  0  0  0  0  0  0  0  0  0  0
    0.3428    7.7088   -1.1485 N   0  0  0  0  0  0  0  0  0  0  0  0
    0.2188    9.0384   -0.8195 N   0  0  0  0  0  0  0  0  0  0  0  0
    0.2810    9.7826   -1.5016 H   0  0  0  0  0  0  0  0  0  0  0  0
    0.0842    9.1828    0.5484 C   0  0  0  0  0  0  0  0  0  0  0  0
    0.0066   10.2393    1.1835 O   0  0  0  0  0  0  0  0  0  0  0  0
    0.0761    7.9236    1.0581 N   0  0  0  0  0  0  0  0  0  0  0  0
   -0.0096    7.7039    2.0346 H   0  0  0  0  0  0  0  0  0  0  0  0
    3.0391   -2.2259    0.8590 C   0  0  0  0  0  0  0  0  0  0  0  0
    3.8181   -3.3848    0.7050 C   0  0  0  0  0  0  0  0  0  0  0  0
    3.6353   -4.5197    1.5007 C   0  0  0  0  0  0  0  0  0  0  0  0
    2.8711   -4.4443    2.6448 C   0  0  0  0  0  0  0  0  0  0  0  0
    2.5853   -3.1569    2.9902 C   0  0  0  0  0  0  0  0  0  0  0  0
    2.3743   -2.1403    2.0491 C   0  0  0  0  0  0  0  0  0  0  0  0
    2.4889   -5.5527    3.5332 C   0  0  0  0  0  0  0  0  0  0  0  0
    3.2043   -6.7689    3.3390 C   0  0  0  0  0  0  0  0  0  0  0  0
    2.8921   -7.9540    3.9871 C   0  0  0  0  0  0  0  0  0  0  0  0
    1.9470   -7.9289    4.9916 C   0  0  0  0  0  0  0  0  0  0  0  0
    1.2951   -6.7265    5.3100 C   0  0  0  0  0  0  0  0  0  0  0  0
    1.4748   -5.5427    4.5388 C   0  0  0  0  0  0  0  0  0  0  0  0
    0.2679   -4.2057    5.0205 S   0  0  0  0  0  0  0  0  0  0  0  0
   -1.0433   -4.8127    4.8497 O   0  0  0  0  0  0  0  0  0  0  0  0
    0.7054   -3.7762    6.3375 O   0  0  0  0  0  0  0  0  0  0  0  0
    0.1856   -2.7295    4.0421 C   0  0  0  0  0  0  0  0  0  0  0  0
    3.6871   -1.0067   -2.0071 H   0  0  0  0  0  0  0  0  0  0  0  0
    4.7299   -2.0447   -1.0775 H   0  0  0  0  0  0  0  0  0  0  0  0
    5.8246   -0.0095   -1.5361 H   0  0  0  0  0  0  0  0  0  0  0  0
    5.6553   -0.2362    0.2294 H   0  0  0  0  0  0  0  0  0  0  0  0
    0.1830    1.8137    0.1344 H   0  0  0  0  0  0  0  0  0  0  0  0
   -1.8223    3.0488    0.5347 H   0  0  0  0  0  0  0  0  0  0  0  0
   -1.8473    5.5168    0.3370 H   0  0  0  0  0  0  0  0  0  0  0  0
    2.4669    5.4957    0.1112 H   0  0  0  0  0  0  0  0  0  0  0  0
    4.6202   -3.4882   -0.0081 H   0  0  0  0  0  0  0  0  0  0  0  0
    4.1810   -5.4135    1.2204 H   0  0  0  0  0  0  0  0  0  0  0  0
    2.4883   -3.0061    4.0536 H   0  0  0  0  0  0  0  0  0  0  0  0
    1.7744   -1.2719    2.3046 H   0  0  0  0  0  0  0  0  0  0  0  0
    4.0469   -6.8211    2.6537 H   0  0  0  0  0  0  0  0  0  0  0  0
    3.4111   -8.8691    3.7098 H   0  0  0  0  0  0  0  0  0  0  0  0
    1.7271   -8.8490    5.5280 H   0  0  0  0  0  0  0  0  0  0  0  0
    0.6304   -6.7277    6.1749 H   0  0  0  0  0  0  0  0  0  0  0  0
    0.1096   -3.0097    2.9898 H   0  0  0  0  0  0  0  0  0  0  0  0
    1.0059   -2.0559    4.3060 H   0  0  0  0  0  0  0  0  0  0  0  0
   -0.6586   -2.0784    4.2652 H   0  0  0  0  0  0  0  0  0  0  0  0
  1  2  2  0  0  0  0
  2  3  1  0  0  0  0
  2  7  1  0  0  0  0
  3  4  1  0  0  0  0
  3 29  1  0  0  0  0
  4  5  1  0  0  0  0
  4 45  1  0  0  0  0
  4 46  1  0  0  0  0
  5  6  1  0  0  0  0
  5 47  1  0  0  0  0
  5 48  1  0  0  0  0
  6  7  2  0  0  0  0
  6 10  1  0  0  0  0
  7  8  1  0  0  0  0
  8  9  1  0  0  0  0
  8 15  1  0  0  0  0
  9 10  2  0  0  0  0
 10 11  1  0  0  0  0
 11 12  1  0  0  0  0
 11 13  1  0  0  0  0
 11 14  1  0  0  0  0
 15 16  2  0  0  0  0
 15 20  1  0  0  0  0
 16 17  1  0  0  0  0
 16 49  1  0  0  0  0
 17 18  2  0  0  0  0
 17 50  1  0  0  0  0
 18 19  1  0  0  0  0
 18 51  1  0  0  0  0
 19 20  2  0  0  0  0
 19 21  1  0  0  0  0
 20 52  1  0  0  0  0
 21 22  2  0  0  0  0
 21 27  1  0  0  0  0
 22 23  1  0  0  0  0
 23 24  1  0  0  0  0
 23 25  1  0  0  0  0
 25 26  2  0  0  0  0
 25 27  1  0  0  0  0
 27 28  1  0  0  0  0
 29 30  2  0  0  0  0
 29 34  1  0  0  0  0
 30 31  1  0  0  0  0
 30 53  1  0  0  0  0
 31 32  2  0  0  0  0
 31 54  1  0  0  0  0
 32 33  1  0  0  0  0
 32 35  1  0  0  0  0
 33 34  2  0  0  0  0
 33 55  1  0  0  0  0
 34 56  1  0  0  0  0
 35 36  2  0  0  0  0
 35 40  1  0  0  0  0
 36 37  1  0  0  0  0
 36 57  1  0  0  0  0
 37 38  2  0  0  0  0
 37 58  1  0  0  0  0
 38 39  1  0  0  0  0
 38 59  1  0  0  0  0
 39 40  2  0  0  0  0
 39 60  1  0  0  0  0
 40 41  1  0  0  0  0
 41 42  2  0  0  0  0
 41 43  2  0  0  0  0
 41 44  1  0  0  0  0
 44 61  1  0  0  0  0
 44 62  1  0  0  0  0
 44 63  1  0  0  0  0
M  END
$$$$
