LGL
 OpenBabel04121316143D

 72 78  0  0  0  0  0  0  0  0999 V2000
    1.2342   -0.0777    0.1177 O   0  0  0  0  0  0  0  0  0  0  0  0
    2.4583   -0.0150   -0.0355 C   0  0  0  0  0  0  0  0  0  0  0  0
    3.2999   -1.1957   -0.0545 N   0  0  0  0  0  0  0  0  0  0  0  0
    4.3724   -1.1981   -1.0074 C   0  0  0  0  0  0  0  0  0  0  0  0
    5.3111   -0.0970   -0.6551 C   0  0  0  0  0  0  0  0  0  0  0  0
    4.5553    1.1651   -0.4942 C   0  0  0  0  0  0  0  0  0  0  0  0
    3.2013    1.2434   -0.2098 C   0  0  0  0  0  0  0  0  0  0  0  0
    2.9191    2.6350   -0.1093 N   0  0  0  0  0  0  0  0  0  0  0  0
    4.1012    3.3565   -0.3241 N   0  0  0  0  0  0  0  0  0  0  0  0
    5.0758    2.4513   -0.5571 C   0  0  0  0  0  0  0  0  0  0  0  0
    6.5553    2.6916   -0.8444 C   0  0  0  0  0  0  0  0  0  0  0  0
    6.7712    3.3161   -2.0278 F   0  0  0  0  0  0  0  0  0  0  0  0
    7.1922    3.3783    0.1333 F   0  0  0  0  0  0  0  0  0  0  0  0
    7.2550    1.5144   -0.9417 F   0  0  0  0  0  0  0  0  0  0  0  0
    1.6873    3.4000    0.1436 C   0  0  0  0  0  0  0  0  0  0  0  0
    0.4424    2.7794    0.2889 C   0  0  0  0  0  0  0  0  0  0  0  0
   -0.7555    3.4977    0.4699 C   0  0  0  0  0  0  0  0  0  0  0  0
   -0.7635    4.8820    0.4083 C   0  0  0  0  0  0  0  0  0  0  0  0
    0.4549    5.5439    0.2730 C   0  0  0  0  0  0  0  0  0  0  0  0
    1.6785    4.8220    0.2020 C   0  0  0  0  0  0  0  0  0  0  0  0
    0.4003    7.0003    0.0867 C   0  0  0  0  0  0  0  0  0  0  0  0
    0.4798    7.6123   -1.0606 N   0  0  0  0  0  0  0  0  0  0  0  0
    0.3516    8.9406   -0.7317 N   0  0  0  0  0  0  0  0  0  0  0  0
    0.4121    9.6854   -1.4134 H   0  0  0  0  0  0  0  0  0  0  0  0
    0.2145    9.0934    0.6409 C   0  0  0  0  0  0  0  0  0  0  0  0
    0.1345   10.1347    1.2671 O   0  0  0  0  0  0  0  0  0  0  0  0
    0.2097    7.8247    1.1462 N   0  0  0  0  0  0  0  0  0  0  0  0
    0.1237    7.6063    2.1224 H   0  0  0  0  0  0  0  0  0  0  0  0
    3.0931   -2.4012    0.6626 C   0  0  0  0  0  0  0  0  0  0  0  0
    3.9798   -3.4850    0.7291 C   0  0  0  0  0  0  0  0  0  0  0  0
    3.7139   -4.6083    1.5340 C   0  0  0  0  0  0  0  0  0  0  0  0
    2.5835   -4.6909    2.3554 C   0  0  0  0  0  0  0  0  0  0  0  0
    1.6662   -3.6635    2.1318 C   0  0  0  0  0  0  0  0  0  0  0  0
    1.9606   -2.5173    1.4021 C   0  0  0  0  0  0  0  0  0  0  0  0
    2.4538   -5.7358    3.4465 C   0  0  0  0  0  0  0  0  0  0  0  0
    3.2651   -6.8914    3.3286 C   0  0  0  0  0  0  0  0  0  0  0  0
    3.0509   -8.0618    4.0503 C   0  0  0  0  0  0  0  0  0  0  0  0
    2.1227   -8.0717    5.0657 C   0  0  0  0  0  0  0  0  0  0  0  0
    1.4932   -6.8776    5.4043 C   0  0  0  0  0  0  0  0  0  0  0  0
    1.6344   -5.6912    4.6184 C   0  0  0  0  0  0  0  0  0  0  0  0
    0.8250   -4.5065    5.1650 C   0  0  0  0  0  0  0  0  0  0  0  0
    1.2072   -3.1839    4.7363 N   0  0  0  0  0  0  0  0  0  0  0  0
    0.2512   -2.0997    4.7766 C   0  0  0  0  0  0  0  0  0  0  0  0
    1.0060   -0.9402    4.1453 C   0  0  0  0  0  0  0  0  0  0  0  0
    2.4891   -1.2694    4.3370 C   0  0  0  0  0  0  0  0  0  0  0  0
    2.5739   -2.7219    4.8007 C   0  0  0  0  0  0  0  0  0  0  0  0
    3.9132   -1.0703   -1.9926 H   0  0  0  0  0  0  0  0  0  0  0  0
    4.9387   -2.1243   -1.0474 H   0  0  0  0  0  0  0  0  0  0  0  0
    6.0291   -0.0583   -1.4708 H   0  0  0  0  0  0  0  0  0  0  0  0
    5.8248   -0.3122    0.2917 H   0  0  0  0  0  0  0  0  0  0  0  0
    0.3168    1.7151    0.2373 H   0  0  0  0  0  0  0  0  0  0  0  0
   -1.6876    2.9528    0.6132 H   0  0  0  0  0  0  0  0  0  0  0  0
   -1.7096    5.4210    0.4287 H   0  0  0  0  0  0  0  0  0  0  0  0
    2.6031    5.3966    0.1783 H   0  0  0  0  0  0  0  0  0  0  0  0
    4.9501   -3.5094    0.2454 H   0  0  0  0  0  0  0  0  0  0  0  0
    4.4658   -5.3884    1.5213 H   0  0  0  0  0  0  0  0  0  0  0  0
    0.7351   -3.5757    2.6661 H   0  0  0  0  0  0  0  0  0  0  0  0
    1.3212   -1.6624    1.5215 H   0  0  0  0  0  0  0  0  0  0  0  0
    4.0982   -6.9313    2.6372 H   0  0  0  0  0  0  0  0  0  0  0  0
    3.6077   -8.9555    3.7861 H   0  0  0  0  0  0  0  0  0  0  0  0
    1.9208   -8.9912    5.6068 H   0  0  0  0  0  0  0  0  0  0  0  0
    0.8640   -6.8779    6.2953 H   0  0  0  0  0  0  0  0  0  0  0  0
    0.8631   -4.5156    6.2622 H   0  0  0  0  0  0  0  0  0  0  0  0
   -0.2217   -4.7166    4.8930 H   0  0  0  0  0  0  0  0  0  0  0  0
   -0.0379   -1.8525    5.7966 H   0  0  0  0  0  0  0  0  0  0  0  0
   -0.6524   -2.3229    4.1901 H   0  0  0  0  0  0  0  0  0  0  0  0
    0.7587    0.0277    4.5824 H   0  0  0  0  0  0  0  0  0  0  0  0
    0.7075   -0.8314    3.0981 H   0  0  0  0  0  0  0  0  0  0  0  0
    2.9298   -0.6304    5.1004 H   0  0  0  0  0  0  0  0  0  0  0  0
    3.0590   -1.0964    3.4135 H   0  0  0  0  0  0  0  0  0  0  0  0
    3.0072   -2.8612    5.7900 H   0  0  0  0  0  0  0  0  0  0  0  0
    3.2721   -3.2301    4.1303 H   0  0  0  0  0  0  0  0  0  0  0  0
  1  2  2  0  0  0  0
  2  3  1  0  0  0  0
  2  7  1  0  0  0  0
  3  4  1  0  0  0  0
  3 29  1  0  0  0  0
  4  5  1  0  0  0  0
  4 47  1  0  0  0  0
  4 48  1  0  0  0  0
  5  6  1  0  0  0  0
  5 49  1  0  0  0  0
  5 50  1  0  0  0  0
  6  7  2  0  0  0  0
  6 10  1  0  0  0  0
  7  8  1  0  0  0  0
  8  9  1  0  0  0  0
  8 15  1  0  0  0  0
  9 10  2  0  0  0  0
 10 11  1  0  0  0  0
 11 12  1  0  0  0  0
 11 13  1  0  0  0  0
 11 14  1  0  0  0  0
 15 16  2  0  0  0  0
 15 20  1  0  0  0  0
 16 17  1  0  0  0  0
 16 51  1  0  0  0  0
 17 18  2  0  0  0  0
 17 52  1  0  0  0  0
 18 19  1  0  0  0  0
 18 53  1  0  0  0  0
 19 20  2  0  0  0  0
 19 21  1  0  0  0  0
 20 54  1  0  0  0  0
 21 22  2  0  0  0  0
 21 27  1  0  0  0  0
 22 23  1  0  0  0  0
 23 24  1  0  0  0  0
 23 25  1  0  0  0  0
 25 26  2  0  0  0  0
 25 27  1  0  0  0  0
 27 28  1  0  0  0  0
 29 30  2  0  0  0  0
 29 34  1  0  0  0  0
 30 31  1  0  0  0  0
 30 55  1  0  0  0  0
 31 32  2  0  0  0  0
 31 56  1  0  0  0  0
 32 33  1  0  0  0  0
 32 35  1  0  0  0  0
 33 34  2  0  0  0  0
 33 57  1  0  0  0  0
 34 58  1  0  0  0  0
 35 36  2  0  0  0  0
 35 40  1  0  0  0  0
 36 37  1  0  0  0  0
 36 59  1  0  0  0  0
 37 38  2  0  0  0  0
 37 60  1  0  0  0  0
 38 39  1  0  0  0  0
 38 61  1  0  0  0  0
 39 40  2  0  0  0  0
 39 62  1  0  0  0  0
 40 41  1  0  0  0  0
 41 42  1  0  0  0  0
 41 63  1  0  0  0  0
 41 64  1  0  0  0  0
 42 43  1  0  0  0  0
 42 46  1  0  0  0  0
 43 44  1  0  0  0  0
 43 65  1  0  0  0  0
 43 66  1  0  0  0  0
 44 45  1  0  0  0  0
 44 67  1  0  0  0  0
 44 68  1  0  0  0  0
 45 46  1  0  0  0  0
 45 69  1  0  0  0  0
 45 70  1  0  0  0  0
 46 71  1  0  0  0  0
 46 72  1  0  0  0  0
M  END
$$$$
