LGS
 OpenBabel04121316143D

 50 51  0  0  1  0  0  0  0  0999 V2000
    1.0339    0.0774   -0.0458 C   0  0  0  0  0  0  0  0  0  0  0  0
    2.5509    0.0704   -0.0515 C   0  0  0  0  0  0  0  0  0  0  0  0
    3.0764   -1.0423   -0.9505 C   0  0  0  0  0  0  0  0  0  0  0  0
    4.5990   -1.0545   -0.9606 C   0  0  0  0  0  0  0  0  0  0  0  0
    5.1208   -2.1693   -1.8615 C   0  0  0  0  0  0  0  0  0  0  0  0
    6.6454   -2.1764   -1.8667 C   0  0  0  0  0  0  0  0  0  0  0  0
    7.2020   -3.2840   -2.7566 C   0  0  0  0  0  0  0  0  0  0  0  0
    8.7362   -3.2713   -2.7312 C   0  0  0  0  0  0  0  0  0  0  0  0
    9.2147   -4.3715   -3.5524 N   0  0  0  0  0  0  0  0  0  0  0  0
   10.4648   -4.4953   -3.7649 C   0  0  0  0  0  0  0  0  0  0  0  0
   11.4375   -3.6786   -3.2458 O   0  0  0  0  0  0  0  0  0  0  0  0
   12.6629   -3.9793   -3.9573 C   0  0  0  0  0  0  0  0  0  0  0  0
   12.4758   -5.4149   -4.4319 C   0  0  1  0  0  0  0  0  0  0  0  0
   12.8058   -6.0991   -3.6363 H   0  0  0  0  0  0  0  0  0  0  0  0
   11.0510   -5.4419   -4.5536 N   0  0  0  0  0  0  0  0  0  0  0  0
   10.3239   -6.3228   -5.4069 C   0  0  1  0  0  0  0  0  0  0  0  0
    9.6363   -6.9294   -4.8070 H   0  0  0  0  0  0  0  0  0  0  0  0
    9.5377   -5.5338   -6.2940 O   0  0  0  0  0  0  0  0  0  0  0  0
   11.1696   -7.2278   -6.3316 C   0  0  2  0  0  0  0  0  0  0  0  0
   10.9065   -6.9997   -7.3732 H   0  0  0  0  0  0  0  0  0  0  0  0
   10.8112   -8.6149   -6.1700 O   0  0  0  0  0  0  0  0  0  0  0  0
   12.6953   -7.1267   -6.2004 C   0  0  2  0  0  0  0  0  0  0  0  0
   13.0799   -7.9006   -5.5259 H   0  0  0  0  0  0  0  0  0  0  0  0
   13.1707   -5.7407   -5.7410 C   0  0  2  0  0  0  0  0  0  0  0  0
   12.9327   -4.9970   -6.5111 H   0  0  0  0  0  0  0  0  0  0  0  0
   14.5873   -5.7000   -5.5443 O   0  0  0  0  0  0  0  0  0  0  0  0
   13.2724   -7.4284   -7.4854 O   0  0  0  0  0  0  0  0  0  0  0  0
    0.6601    0.8765    0.5999 H   0  0  0  0  0  0  0  0  0  0  0  0
    0.6439   -0.8762    0.3242 H   0  0  0  0  0  0  0  0  0  0  0  0
    0.6439    0.2388   -1.0559 H   0  0  0  0  0  0  0  0  0  0  0  0
    2.9209   -0.0690    0.9710 H   0  0  0  0  0  0  0  0  0  0  0  0
    2.9209    1.0408   -0.4025 H   0  0  0  0  0  0  0  0  0  0  0  0
    2.7018   -0.9020   -1.9720 H   0  0  0  0  0  0  0  0  0  0  0  0
    2.7018   -2.0115   -0.5989 H   0  0  0  0  0  0  0  0  0  0  0  0
    4.9745   -1.1955    0.0605 H   0  0  0  0  0  0  0  0  0  0  0  0
    4.9745   -0.0858   -1.3127 H   0  0  0  0  0  0  0  0  0  0  0  0
    4.7434   -2.0266   -2.8814 H   0  0  0  0  0  0  0  0  0  0  0  0
    4.7433   -3.1364   -1.5075 H   0  0  0  0  0  0  0  0  0  0  0  0
    7.0113   -2.3120   -0.8419 H   0  0  0  0  0  0  0  0  0  0  0  0
    7.0129   -1.2041   -2.2166 H   0  0  0  0  0  0  0  0  0  0  0  0
    6.8357   -3.1539   -3.7839 H   0  0  0  0  0  0  0  0  0  0  0  0
    6.8255   -4.2573   -2.4154 H   0  0  0  0  0  0  0  0  0  0  0  0
    9.0807   -3.3948   -1.6998 H   0  0  0  0  0  0  0  0  0  0  0  0
    9.0912   -2.3089   -3.1171 H   0  0  0  0  0  0  0  0  0  0  0  0
   13.5338   -3.8642   -3.3047 H   0  0  0  0  0  0  0  0  0  0  0  0
   12.7455   -3.2713   -4.7902 H   0  0  0  0  0  0  0  0  0  0  0  0
   10.1531   -4.8870   -6.6768 H   0  0  0  0  0  0  0  0  0  0  0  0
    9.8363   -8.6525   -6.1177 H   0  0  0  0  0  0  0  0  0  0  0  0
   14.8579   -6.5004   -5.0606 H   0  0  0  0  0  0  0  0  0  0  0  0
   12.8442   -8.2493   -7.7967 H   0  0  0  0  0  0  0  0  0  0  0  0
  1  2  1  0  0  0  0
  1 28  1  0  0  0  0
  1 29  1  0  0  0  0
  1 30  1  0  0  0  0
  2  3  1  0  0  0  0
  2 31  1  0  0  0  0
  2 32  1  0  0  0  0
  3  4  1  0  0  0  0
  3 33  1  0  0  0  0
  3 34  1  0  0  0  0
  4  5  1  0  0  0  0
  4 35  1  0  0  0  0
  4 36  1  0  0  0  0
  5  6  1  0  0  0  0
  5 37  1  0  0  0  0
  5 38  1  0  0  0  0
  6  7  1  0  0  0  0
  6 39  1  0  0  0  0
  6 40  1  0  0  0  0
  7  8  1  0  0  0  0
  7 41  1  0  0  0  0
  7 42  1  0  0  0  0
  8  9  1  0  0  0  0
  8 43  1  0  0  0  0
  8 44  1  0  0  0  0
  9 10  2  0  0  0  0
 10 11  1  0  0  0  0
 10 15  1  0  0  0  0
 11 12  1  0  0  0  0
 12 13  1  0  0  0  0
 12 45  1  0  0  0  0
 12 46  1  0  0  0  0
 13 14  1  1  0  0  0
 13 15  1  0  0  0  0
 13 24  1  0  0  0  0
 15 16  1  0  0  0  0
 16 19  1  0  0  0  0
 16 18  1  0  0  0  0
 16 17  1  1  0  0  0
 18 47  1  0  0  0  0
 19 20  1  6  0  0  0
 19 21  1  0  0  0  0
 19 22  1  0  0  0  0
 21 48  1  0  0  0  0
 22 23  1  1  0  0  0
 22 24  1  0  0  0  0
 22 27  1  0  0  0  0
 24 26  1  0  0  0  0
 24 25  1  6  0  0  0
 26 49  1  0  0  0  0
 27 50  1  0  0  0  0
M  END
$$$$
