LGT
 OpenBabel04121316143D

 24 23  0  0  1  0  0  0  0  0999 V2000
    4.9907   -0.4297    2.9967 O   0  0  0  0  0  0  0  0  0  0  0  0
    4.5277   -1.4309    2.0885 C   0  0  1  0  0  0  0  0  0  0  0  0
    4.9935   -2.3834    2.3775 H   0  0  0  0  0  0  0  0  0  0  0  0
    3.0007   -1.5757    2.2224 C   0  0  2  0  0  0  0  0  0  0  0  0
    2.5635   -1.9913    1.3082 H   0  0  0  0  0  0  0  0  0  0  0  0
    2.2805   -0.2537    2.5417 C   0  0  0  0  0  0  0  0  0  0  0  0
    1.5536   -0.1089    3.5219 O   0  0  0  0  0  0  0  0  0  0  0  0
    2.3644    0.6999    1.5884 O   0  0  0  0  0  0  0  0  0  0  0  0
    2.7343   -2.5687    3.2268 O   0  0  0  0  0  0  0  0  0  0  0  0
    4.9374   -1.0775    0.6329 C   0  0  2  0  0  0  0  0  0  0  0  0
    4.4696   -1.8205   -0.0267 H   0  0  0  0  0  0  0  0  0  0  0  0
    6.4562   -1.1298    0.4178 C   0  0  1  0  0  0  0  0  0  0  0  0
    6.7061   -0.8539   -0.6127 H   0  0  0  0  0  0  0  0  0  0  0  0
    7.1939   -0.1428    1.3419 C   0  0  0  0  0  0  0  0  0  0  0  0
    7.9767   -0.4843    2.2138 O   0  0  0  0  0  0  0  0  0  0  0  0
    6.8598    1.1591    1.1799 O   0  0  0  0  0  0  0  0  0  0  0  0
    6.9145   -2.4646    0.6286 O   0  0  0  0  0  0  0  0  0  0  0  0
    4.4176    0.2038    0.2228 O   0  0  0  0  0  0  0  0  0  0  0  0
    5.9351   -0.5790    3.2067 H   0  0  0  0  0  0  0  0  0  0  0  0
    3.0772    0.5334    0.9312 H   0  0  0  0  0  0  0  0  0  0  0  0
    1.7937   -2.4683    3.4727 H   0  0  0  0  0  0  0  0  0  0  0  0
    6.0258    1.3234    0.6967 H   0  0  0  0  0  0  0  0  0  0  0  0
    6.4447   -3.0832    0.0465 H   0  0  0  0  0  0  0  0  0  0  0  0
    4.6193    0.3255   -0.7286 H   0  0  0  0  0  0  0  0  0  0  0  0
  1  2  1  0  0  0  0
  1 19  1  0  0  0  0
  2  3  1  1  0  0  0
  4  6  1  0  0  0  0
  4  9  1  0  0  0  0
  4  5  1  6  0  0  0
  4  2  1  0  0  0  0
  6  7  2  0  0  0  0
  6  8  1  0  0  0  0
  8 20  1  0  0  0  0
  9 21  1  0  0  0  0
 10 12  1  0  0  0  0
 10 18  1  0  0  0  0
 10 11  1  6  0  0  0
 10  2  1  0  0  0  0
 12 13  1  6  0  0  0
 12 14  1  0  0  0  0
 12 17  1  0  0  0  0
 14 15  2  0  0  0  0
 14 16  1  0  0  0  0
 16 22  1  0  0  0  0
 17 23  1  0  0  0  0
 18 24  1  0  0  0  0
M  END
$$$$
