LGW
 OpenBabel04121316143D

 53 58  0  0  1  0  0  0  0  0999 V2000
    0.9992    0.1500    0.2009 F   0  0  0  0  0  0  0  0  0  0  0  0
    2.3360    0.1407    0.1399 C   0  0  0  0  0  0  0  0  0  0  0  0
    3.0291    1.3348    0.1005 C   0  0  0  0  0  0  0  0  0  0  0  0
    4.4165    1.3031   -0.0990 C   0  0  0  0  0  0  0  0  0  0  0  0
    5.0924    0.0770   -0.1614 C   0  0  0  0  0  0  0  0  0  0  0  0
    4.2847   -1.0369    0.0085 C   0  0  0  0  0  0  0  0  0  0  0  0
    2.9338   -1.0511    0.1148 N   0  0  0  0  0  0  0  0  0  0  0  0
    6.5500    0.0470   -0.5168 C   0  0  0  0  0  0  0  0  0  0  0  0
    7.0723    1.1309   -0.8218 O   0  0  0  0  0  0  0  0  0  0  0  0
    7.2747   -1.1309   -0.6309 N   0  0  0  0  0  0  0  0  0  0  0  0
    8.5371   -1.1593   -1.3509 C   0  0  0  0  0  0  0  0  0  0  0  0
    8.5736   -2.5762   -1.8909 C   0  0  0  0  0  0  0  0  0  0  0  0
    7.9502   -3.4000   -0.7692 C   0  0  0  0  0  0  0  0  0  0  0  0
    7.1141   -2.4102    0.0638 C   0  0  1  0  0  0  0  0  0  0  0  0
    6.1231   -2.8261    0.0099 H   0  0  0  0  0  0  0  0  0  0  0  0
    7.4896   -2.3152    1.5781 C   0  0  0  0  0  0  0  0  0  0  0  0
    7.6568   -3.5328    2.1774 N   0  0  0  0  0  0  0  0  0  0  0  0
    8.0463   -3.6591    3.4127 C   0  0  0  0  0  0  0  0  0  0  0  0
    8.2980   -4.8813    4.0114 N   0  0  0  0  0  0  0  0  0  0  0  0
    8.2344   -6.0643    3.3628 C   0  0  0  0  0  0  0  0  0  0  0  0
    8.3010   -7.2704    3.9456 N   0  0  0  0  0  0  0  0  0  0  0  0
    8.1816   -8.1509    2.9160 N   0  0  0  0  0  0  0  0  0  0  0  0
    8.1158   -9.1404    3.1274 H   0  0  0  0  0  0  0  0  0  0  0  0
    8.0451   -7.5368    1.7131 C   0  0  0  0  0  0  0  0  0  0  0  0
    8.1147   -6.2040    1.9731 C   0  0  0  0  0  0  0  0  0  0  0  0
    7.8135   -8.0244    0.3182 C   0  0  0  0  0  0  0  0  0  0  0  0
    9.0269   -8.3576   -0.5092 C   0  0  0  0  0  0  0  0  0  0  0  0
    8.0096   -9.4155   -0.1665 C   0  0  0  0  0  0  0  0  0  0  0  0
    8.2202   -2.4350    4.1255 C   0  0  0  0  0  0  0  0  0  0  0  0
    7.9514   -1.2666    3.4766 N   0  0  0  0  0  0  0  0  0  0  0  0
    7.5675   -1.1703    2.1895 N   0  0  0  0  0  0  0  0  0  0  0  0
    8.2168   -0.2254    4.3267 C   0  0  0  0  0  0  0  0  0  0  0  0
    8.7995   -0.7424    5.4665 C   0  0  0  0  0  0  0  0  0  0  0  0
    8.6613   -2.1481    5.3990 C   0  0  0  0  0  0  0  0  0  0  0  0
    2.4877    2.2649    0.2089 H   0  0  0  0  0  0  0  0  0  0  0  0
    4.9561    2.2414   -0.2195 H   0  0  0  0  0  0  0  0  0  0  0  0
    4.6394   -2.0368    0.0907 H   0  0  0  0  0  0  0  0  0  0  0  0
    9.3487   -1.0009   -0.6316 H   0  0  0  0  0  0  0  0  0  0  0  0
    8.5976   -0.4032   -2.1382 H   0  0  0  0  0  0  0  0  0  0  0  0
    9.5769   -2.9259   -2.1458 H   0  0  0  0  0  0  0  0  0  0  0  0
    7.9526   -2.6501   -2.7945 H   0  0  0  0  0  0  0  0  0  0  0  0
    8.7183   -3.9078   -0.1871 H   0  0  0  0  0  0  0  0  0  0  0  0
    7.2982   -4.1714   -1.2055 H   0  0  0  0  0  0  0  0  0  0  0  0
    8.5464   -4.8954    4.9901 H   0  0  0  0  0  0  0  0  0  0  0  0
    8.0847   -5.4531    1.2089 H   0  0  0  0  0  0  0  0  0  0  0  0
    7.1006   -7.3957   -0.2158 H   0  0  0  0  0  0  0  0  0  0  0  0
   10.0011   -8.4169   -0.0370 H   0  0  0  0  0  0  0  0  0  0  0  0
    9.0580   -7.9293   -1.5066 H   0  0  0  0  0  0  0  0  0  0  0  0
    8.3220  -10.1920    0.5166 H   0  0  0  0  0  0  0  0  0  0  0  0
    7.3421   -9.7480   -0.9538 H   0  0  0  0  0  0  0  0  0  0  0  0
    8.0231    0.7929    4.0215 H   0  0  0  0  0  0  0  0  0  0  0  0
    9.2374   -0.1723    6.2756 H   0  0  0  0  0  0  0  0  0  0  0  0
    8.9232   -2.8653    6.1654 H   0  0  0  0  0  0  0  0  0  0  0  0
  1  2  1  0  0  0  0
  2  3  2  0  0  0  0
  2  7  1  0  0  0  0
  3  4  1  0  0  0  0
  3 35  1  0  0  0  0
  4  5  2  0  0  0  0
  4 36  1  0  0  0  0
  5  6  1  0  0  0  0
  5  8  1  0  0  0  0
  6  7  2  0  0  0  0
  6 37  1  0  0  0  0
  8  9  2  0  0  0  0
  8 10  1  0  0  0  0
 10 11  1  0  0  0  0
 10 14  1  0  0  0  0
 11 12  1  0  0  0  0
 11 38  1  0  0  0  0
 11 39  1  0  0  0  0
 12 13  1  0  0  0  0
 12 40  1  0  0  0  0
 12 41  1  0  0  0  0
 13 14  1  0  0  0  0
 13 42  1  0  0  0  0
 13 43  1  0  0  0  0
 14 16  1  0  0  0  0
 14 15  1  6  0  0  0
 16 17  1  0  0  0  0
 16 31  2  0  0  0  0
 17 18  2  0  0  0  0
 18 19  1  0  0  0  0
 18 29  1  0  0  0  0
 19 20  1  0  0  0  0
 19 44  1  0  0  0  0
 20 21  2  0  0  0  0
 20 25  1  0  0  0  0
 21 22  1  0  0  0  0
 22 23  1  0  0  0  0
 22 24  1  0  0  0  0
 24 25  2  0  0  0  0
 24 26  1  0  0  0  0
 25 45  1  0  0  0  0
 26 27  1  0  0  0  0
 26 28  1  0  0  0  0
 26 46  1  0  0  0  0
 27 28  1  0  0  0  0
 27 47  1  0  0  0  0
 27 48  1  0  0  0  0
 28 49  1  0  0  0  0
 28 50  1  0  0  0  0
 29 30  1  0  0  0  0
 29 34  2  0  0  0  0
 30 31  1  0  0  0  0
 30 32  1  0  0  0  0
 32 33  2  0  0  0  0
 32 51  1  0  0  0  0
 33 34  1  0  0  0  0
 33 52  1  0  0  0  0
 34 53  1  0  0  0  0
M  END
$$$$
