LHA
 OpenBabel04121316143D

125129  0  0  1  0  0  0  0  0999 V2000
    2.2725    2.9106   -2.3962 N   0  0  0  0  0  0  0  0  0  0  0  0
    0.9245    3.3280   -2.7199 C   0  0  0  0  0  0  0  0  0  0  0  0
   -0.0282    2.2365   -2.9185 C   0  0  0  0  0  0  0  0  0  0  0  0
   -1.3182    2.7420   -3.5978 C   0  0  1  0  0  0  0  0  0  0  0  0
   -1.7415    3.6052   -3.0700 H   0  0  0  0  0  0  0  0  0  0  0  0
   -1.2574    3.1029   -5.1715 C   0  0  0  0  0  0  0  0  0  0  0  0
   -1.6044    2.3127   -6.0083 O   0  0  0  0  0  0  0  0  0  0  0  0
   -0.8678    4.3624   -5.6487 N   0  0  0  0  0  0  0  0  0  0  0  0
    0.0056    5.3212   -5.0217 C   0  0  2  0  0  0  0  0  0  0  0  0
   -0.1520    5.0542   -3.9796 H   0  0  0  0  0  0  0  0  0  0  0  0
   -0.3977    6.8095   -4.9955 C   0  0  0  0  0  0  0  0  0  0  0  0
    0.3501    7.4282   -3.8367 C   0  0  2  0  0  0  0  0  0  0  0  0
   -0.1353    6.8074   -3.1018 H   0  0  0  0  0  0  0  0  0  0  0  0
   -0.0309    8.7769   -3.4331 N   0  0  0  0  0  0  0  0  0  0  0  0
    1.8983    7.3000   -3.7997 C   0  0  2  0  0  0  0  0  0  0  0  0
    2.3362    7.9216   -4.5988 H   0  0  0  0  0  0  0  0  0  0  0  0
    2.4476    5.6996   -4.3905 C   0  0  1  0  0  0  0  0  0  0  0  0
    2.2297    4.9299   -3.7300 H   0  0  0  0  0  0  0  0  0  0  0  0
    1.5034    5.1521   -5.4948 C   0  0  1  0  0  0  0  0  0  0  0  0
    1.6899    5.7012   -6.4114 H   0  0  0  0  0  0  0  0  0  0  0  0
    1.8311    3.7826   -5.8594 O   0  0  0  0  0  0  0  0  0  0  0  0
    3.7844    5.1865   -4.4970 O   0  0  0  0  0  0  0  0  0  0  0  0
    4.6110    5.0902   -3.3268 C   0  0  2  0  0  0  0  0  0  0  0  0
    5.2945    4.2380   -3.3861 H   0  0  0  0  0  0  0  0  0  0  0  0
    4.0641    4.9101   -2.0301 O   0  0  0  0  0  0  0  0  0  0  0  0
    3.5882    6.1843   -1.6209 C   0  0  1  0  0  0  0  0  0  0  0  0
    3.8258    6.2943   -0.5952 H   0  0  0  0  0  0  0  0  0  0  0  0
    4.5894    7.2564   -2.4338 C   0  0  2  0  0  0  0  0  0  0  0  0
    4.1940    8.0090   -3.1119 H   0  0  0  0  0  0  0  0  0  0  0  0
    5.3188    6.3888   -3.3616 C   0  0  1  0  0  0  0  0  0  0  0  0
    5.2752    6.8411   -4.3633 H   0  0  0  0  0  0  0  0  0  0  0  0
    6.5957    6.2197   -2.8776 O   0  0  0  0  0  0  0  0  0  0  0  0
    7.3888    5.7589   -3.9155 C   0  0  0  0  0  0  0  0  0  0  0  0
    8.7654    6.0532   -3.4522 C   0  0  0  0  0  0  0  0  0  0  0  0
    9.5509    5.3141   -4.3952 N   0  0  0  0  0  0  0  0  0  0  0  0
   10.9239    5.4520   -4.0131 C   0  0  0  0  0  0  0  0  0  0  0  0
   11.7316    4.6180   -4.9777 C   0  0  0  0  0  0  0  0  0  0  0  0
   13.1924    4.6947   -4.6625 C   0  0  0  0  0  0  0  0  0  0  0  0
   14.1131    4.5670   -5.7013 C   0  0  0  0  0  0  0  0  0  0  0  0
   15.4592    4.3937   -5.4039 C   0  0  0  0  0  0  0  0  0  0  0  0
   15.9022    4.4733   -4.0837 C   0  0  0  0  0  0  0  0  0  0  0  0
   15.0060    4.7452   -3.0587 C   0  0  0  0  0  0  0  0  0  0  0  0
   13.6514    4.7945   -3.3402 C   0  0  0  0  0  0  0  0  0  0  0  0
    5.4135    8.0427   -1.5691 O   0  0  0  0  0  0  0  0  0  0  0  0
    6.6563    8.6413   -1.9116 C   0  0  1  0  0  0  0  0  0  0  0  0
    7.3930    7.8571   -2.0263 H   0  0  0  0  0  0  0  0  0  0  0  0
    6.5452    9.3788   -3.1184 O   0  0  0  0  0  0  0  0  0  0  0  0
    6.0331   10.7116   -3.0164 C   0  0  1  0  0  0  0  0  0  0  0  0
    6.1988   11.1369   -4.0129 H   0  0  0  0  0  0  0  0  0  0  0  0
    4.4954   10.8609   -2.8575 C   0  0  0  0  0  0  0  0  0  0  0  0
    3.9051   10.6153   -1.5800 N   0  0  0  0  0  0  0  0  0  0  0  0
    6.8547   11.5214   -2.0133 C   0  0  2  0  0  0  0  0  0  0  0  0
    7.8972   11.5440   -2.3515 H   0  0  0  0  0  0  0  0  0  0  0  0
    6.8138   10.8699   -0.6269 C   0  0  1  0  0  0  0  0  0  0  0  0
    5.8101   10.9518   -0.2218 H   0  0  0  0  0  0  0  0  0  0  0  0
    7.3195    9.4204   -0.7045 C   0  0  1  0  0  0  0  0  0  0  0  0
    8.3861    9.4866   -0.9470 H   0  0  0  0  0  0  0  0  0  0  0  0
    7.3214    8.7199    0.6143 N   0  0  0  0  0  0  0  0  0  0  0  0
    7.5924   11.6147    0.3111 O   0  0  0  0  0  0  0  0  0  0  0  0
    6.4034   12.8745   -1.9311 O   0  0  0  0  0  0  0  0  0  0  0  0
    2.0293    5.7978   -1.5325 C   0  0  0  0  0  0  0  0  0  0  0  0
    0.7570    6.3748   -1.5298 O   0  0  0  0  0  0  0  0  0  0  0  0
    2.4377    7.9436   -2.4596 O   0  0  0  0  0  0  0  0  0  0  0  0
    2.1320    8.5609   -1.0565 C   0  0  1  0  0  0  0  0  0  0  0  0
    2.0103    9.5825   -1.3995 H   0  0  0  0  0  0  0  0  0  0  0  0
    0.8632    8.2950   -0.4075 O   0  0  0  0  0  0  0  0  0  0  0  0
    0.7763    7.2176    0.5983 C   0  0  2  0  0  0  0  0  0  0  0  0
    1.2210    6.2864    0.2905 H   0  0  0  0  0  0  0  0  0  0  0  0
   -0.6870    6.7947    0.6899 C   0  0  0  0  0  0  0  0  0  0  0  0
   -0.8812    5.6216    1.4613 O   0  0  0  0  0  0  0  0  0  0  0  0
    1.6354    7.2860    1.8212 C   0  0  2  0  0  0  0  0  0  0  0  0
    1.3523    8.1151    2.4565 H   0  0  0  0  0  0  0  0  0  0  0  0
    3.0477    7.4520    1.3795 C   0  0  1  0  0  0  0  0  0  0  0  0
    3.4797    6.4858    1.0814 H   0  0  0  0  0  0  0  0  0  0  0  0
    3.1956    8.5482    0.2995 C   0  0  1  0  0  0  0  0  0  0  0  0
    2.9041    9.4844    0.7770 H   0  0  0  0  0  0  0  0  0  0  0  0
    4.6278    8.5495    0.4023 N   0  0  0  0  0  0  0  0  0  0  0  0
    3.8259    7.7380    2.5722 O   0  0  0  0  0  0  0  0  0  0  0  0
    1.6400    6.0365    2.5466 O   0  0  0  0  0  0  0  0  0  0  0  0
   -2.2241    1.6576   -3.3766 O   0  0  0  0  0  0  0  0  0  0  0  0
    2.8572    3.7041   -2.0977 H   0  0  0  0  0  0  0  0  0  0  0  0
    2.7661    2.6805   -3.2659 H   0  0  0  0  0  0  0  0  0  0  0  0
    0.9858    3.7178   -3.6943 H   0  0  0  0  0  0  0  0  0  0  0  0
    0.4453    4.0814   -2.0895 H   0  0  0  0  0  0  0  0  0  0  0  0
   -0.2120    1.8586   -1.9069 H   0  0  0  0  0  0  0  0  0  0  0  0
    0.4580    1.4625   -3.5137 H   0  0  0  0  0  0  0  0  0  0  0  0
   -0.7906    4.3226   -6.6614 H   0  0  0  0  0  0  0  0  0  0  0  0
   -1.4633    6.8900   -4.7285 H   0  0  0  0  0  0  0  0  0  0  0  0
   -0.1922    7.3727   -5.8991 H   0  0  0  0  0  0  0  0  0  0  0  0
   -0.4719    8.7278   -2.5045 H   0  0  0  0  0  0  0  0  0  0  0  0
    0.8292    9.3023   -3.2472 H   0  0  0  0  0  0  0  0  0  0  0  0
    1.6281    3.1088   -5.1888 H   0  0  0  0  0  0  0  0  0  0  0  0
    7.1759    6.2632   -4.8694 H   0  0  0  0  0  0  0  0  0  0  0  0
    7.2066    4.6878   -4.0111 H   0  0  0  0  0  0  0  0  0  0  0  0
    8.8871    5.7253   -2.4087 H   0  0  0  0  0  0  0  0  0  0  0  0
    8.9677    7.1333   -3.4712 H   0  0  0  0  0  0  0  0  0  0  0  0
    9.3888    5.6625   -5.3379 H   0  0  0  0  0  0  0  0  0  0  0  0
   11.0207    5.0855   -2.9853 H   0  0  0  0  0  0  0  0  0  0  0  0
   11.2293    6.5042   -4.0411 H   0  0  0  0  0  0  0  0  0  0  0  0
   11.5360    4.9611   -6.0032 H   0  0  0  0  0  0  0  0  0  0  0  0
   11.4143    3.5668   -4.9258 H   0  0  0  0  0  0  0  0  0  0  0  0
   13.7805    4.5674   -6.7370 H   0  0  0  0  0  0  0  0  0  0  0  0
   16.1620    4.1835   -6.2031 H   0  0  0  0  0  0  0  0  0  0  0  0
   16.9496    4.3192   -3.8503 H   0  0  0  0  0  0  0  0  0  0  0  0
   15.3446    4.8833   -2.0370 H   0  0  0  0  0  0  0  0  0  0  0  0
   12.9690    4.8938   -2.5007 H   0  0  0  0  0  0  0  0  0  0  0  0
    4.1885   11.8717   -3.1196 H   0  0  0  0  0  0  0  0  0  0  0  0
    4.0095   10.1655   -3.5447 H   0  0  0  0  0  0  0  0  0  0  0  0
    3.7228   11.3410   -0.8952 H   0  0  0  0  0  0  0  0  0  0  0  0
    4.2644    9.7499   -1.2047 H   0  0  0  0  0  0  0  0  0  0  0  0
    6.3782    8.6089    1.0182 H   0  0  0  0  0  0  0  0  0  0  0  0
    7.7861    9.3264    1.2939 H   0  0  0  0  0  0  0  0  0  0  0  0
    7.2725   12.5336    0.2360 H   0  0  0  0  0  0  0  0  0  0  0  0
    5.4635   12.8695   -1.6789 H   0  0  0  0  0  0  0  0  0  0  0  0
    1.9166    4.9337   -0.8872 H   0  0  0  0  0  0  0  0  0  0  0  0
    1.7482    5.4553   -2.4487 H   0  0  0  0  0  0  0  0  0  0  0  0
    0.7605    7.3439   -1.6627 H   0  0  0  0  0  0  0  0  0  0  0  0
   -1.0955    6.5711   -0.3065 H   0  0  0  0  0  0  0  0  0  0  0  0
   -1.2665    7.6306    1.0688 H   0  0  0  0  0  0  0  0  0  0  0  0
   -0.3380    4.9097    1.0774 H   0  0  0  0  0  0  0  0  0  0  0  0
    5.0558    7.7682   -0.1179 H   0  0  0  0  0  0  0  0  0  0  0  0
    5.1065    9.3574    0.0852 H   0  0  0  0  0  0  0  0  0  0  0  0
    3.9911    6.8680    2.9769 H   0  0  0  0  0  0  0  0  0  0  0  0
    1.9068    5.3106    1.9467 H   0  0  0  0  0  0  0  0  0  0  0  0
   -2.0859    1.3433   -2.4641 H   0  0  0  0  0  0  0  0  0  0  0  0
  1  2  1  0  0  0  0
  1 81  1  0  0  0  0
  1 82  1  0  0  0  0
  2  3  1  0  0  0  0
  2 83  1  0  0  0  0
  2 84  1  0  0  0  0
  3  4  1  0  0  0  0
  3 85  1  0  0  0  0
  3 86  1  0  0  0  0
  4  5  1  1  0  0  0
  4  6  1  0  0  0  0
  4 80  1  0  0  0  0
  6  7  2  0  0  0  0
  6  8  1  0  0  0  0
  8 87  1  0  0  0  0
  9 11  1  0  0  0  0
  9 19  1  0  0  0  0
  9 10  1  1  0  0  0
  9  8  1  0  0  0  0
 11 12  1  0  0  0  0
 11 88  1  0  0  0  0
 11 89  1  0  0  0  0
 12 13  1  1  0  0  0
 12 14  1  0  0  0  0
 12 15  1  0  0  0  0
 14 90  1  0  0  0  0
 14 91  1  0  0  0  0
 15 17  1  0  0  0  0
 15 63  1  0  0  0  0
 15 16  1  6  0  0  0
 17 18  1  1  0  0  0
 17 19  1  0  0  0  0
 17 22  1  0  0  0  0
 19 21  1  0  0  0  0
 19 20  1  6  0  0  0
 21 92  1  0  0  0  0
 23 25  1  0  0  0  0
 23 30  1  0  0  0  0
 23 24  1  6  0  0  0
 23 22  1  0  0  0  0
 25 26  1  0  0  0  0
 26 27  1  1  0  0  0
 26 28  1  0  0  0  0
 26 61  1  0  0  0  0
 28 30  1  0  0  0  0
 28 44  1  0  0  0  0
 28 29  1  6  0  0  0
 30 32  1  0  0  0  0
 30 31  1  6  0  0  0
 32 33  1  0  0  0  0
 33 34  1  0  0  0  0
 33 93  1  0  0  0  0
 33 94  1  0  0  0  0
 34 35  1  0  0  0  0
 34 95  1  0  0  0  0
 34 96  1  0  0  0  0
 35 36  1  0  0  0  0
 35 97  1  0  0  0  0
 36 37  1  0  0  0  0
 36 98  1  0  0  0  0
 36 99  1  0  0  0  0
 37 38  1  0  0  0  0
 37100  1  0  0  0  0
 37101  1  0  0  0  0
 38 39  2  0  0  0  0
 38 43  1  0  0  0  0
 39 40  1  0  0  0  0
 39102  1  0  0  0  0
 40 41  2  0  0  0  0
 40103  1  0  0  0  0
 41 42  1  0  0  0  0
 41104  1  0  0  0  0
 42 43  2  0  0  0  0
 42105  1  0  0  0  0
 43106  1  0  0  0  0
 44 45  1  0  0  0  0
 45 46  1  6  0  0  0
 45 47  1  0  0  0  0
 45 56  1  0  0  0  0
 47 48  1  0  0  0  0
 48 52  1  0  0  0  0
 48 50  1  0  0  0  0
 48 49  1  6  0  0  0
 50 51  1  0  0  0  0
 50107  1  0  0  0  0
 50108  1  0  0  0  0
 51109  1  0  0  0  0
 51110  1  0  0  0  0
 52 54  1  0  0  0  0
 52 60  1  0  0  0  0
 52 53  1  6  0  0  0
 54 55  1  1  0  0  0
 54 56  1  0  0  0  0
 54 59  1  0  0  0  0
 56 58  1  0  0  0  0
 56 57  1  6  0  0  0
 58111  1  0  0  0  0
 58112  1  0  0  0  0
 59113  1  0  0  0  0
 60114  1  0  0  0  0
 61 62  1  0  0  0  0
 61115  1  0  0  0  0
 61116  1  0  0  0  0
 62117  1  0  0  0  0
 63 64  1  0  0  0  0
 64 65  1  6  0  0  0
 64 66  1  0  0  0  0
 64 75  1  0  0  0  0
 66 67  1  0  0  0  0
 67 68  1  6  0  0  0
 67 69  1  0  0  0  0
 67 71  1  0  0  0  0
 69 70  1  0  0  0  0
 69118  1  0  0  0  0
 69119  1  0  0  0  0
 70120  1  0  0  0  0
 71 73  1  0  0  0  0
 71 79  1  0  0  0  0
 71 72  1  1  0  0  0
 73 74  1  6  0  0  0
 73 75  1  0  0  0  0
 73 78  1  0  0  0  0
 75 77  1  0  0  0  0
 75 76  1  1  0  0  0
 77121  1  0  0  0  0
 77122  1  0  0  0  0
 78123  1  0  0  0  0
 79124  1  0  0  0  0
 80125  1  0  0  0  0
M  END
$$$$
