LHL
 OpenBabel04121316143D

 63 66  0  0  0  0  0  0  0  0999 V2000
    1.1020   -0.3099    0.0367 C   0  0  0  0  0  0  0  0  0  0  0  0
    2.6039   -0.0015   -0.0358 C   0  0  0  0  0  0  0  0  0  0  0  0
    3.0625    0.9543   -1.0797 N   0  0  0  0  0  0  0  0  0  0  0  0
    2.5939    2.3404   -0.8689 C   0  0  0  0  0  0  0  0  0  0  0  0
    1.0970    2.4661   -0.9344 C   0  0  0  0  0  0  0  0  0  0  0  0
    0.6597    3.7919   -0.8172 O   0  0  0  0  0  0  0  0  0  0  0  0
   -0.6999    3.8240   -0.6772 C   0  0  0  0  0  0  0  0  0  0  0  0
   -1.6168    2.7519   -0.6251 C   0  0  0  0  0  0  0  0  0  0  0  0
   -2.9942    2.9806   -0.7431 C   0  0  0  0  0  0  0  0  0  0  0  0
   -3.4599    4.2839   -0.7588 C   0  0  0  0  0  0  0  0  0  0  0  0
   -2.5072    5.2840   -0.5322 C   0  0  0  0  0  0  0  0  0  0  0  0
   -1.1529    5.1016   -0.5919 C   0  0  0  0  0  0  0  0  0  0  0  0
   -4.8085    4.6066   -0.9532 N   0  0  0  0  0  0  0  0  0  0  0  0
   -5.3488    5.8891   -1.1007 C   0  0  0  0  0  0  0  0  0  0  0  0
   -6.6664    6.0301   -1.2281 N   0  0  0  0  0  0  0  0  0  0  0  0
   -7.1143    7.3014   -1.2672 C   0  0  0  0  0  0  0  0  0  0  0  0
   -6.3042    8.4177   -1.1947 C   0  0  0  0  0  0  0  0  0  0  0  0
   -4.9627    8.1859   -1.1056 C   0  0  0  0  0  0  0  0  0  0  0  0
   -4.5167    6.9428   -1.0727 N   0  0  0  0  0  0  0  0  0  0  0  0
   -4.0474    9.2644   -1.1206 N   0  0  0  0  0  0  0  0  0  0  0  0
   -2.6619    9.1228   -0.6864 C   0  0  0  0  0  0  0  0  0  0  0  0
   -4.5016   10.5435   -1.3739 C   0  0  0  0  0  0  0  0  0  0  0  0
   -3.7698   11.4443   -1.8114 O   0  0  0  0  0  0  0  0  0  0  0  0
   -5.8049   10.7759   -0.9614 N   0  0  0  0  0  0  0  0  0  0  0  0
   -6.8219    9.8006   -1.2602 C   0  0  0  0  0  0  0  0  0  0  0  0
   -6.0125   11.7295    0.0784 C   0  0  0  0  0  0  0  0  0  0  0  0
   -5.6050   11.4961    1.4091 C   0  0  0  0  0  0  0  0  0  0  0  0
   -5.1011    9.9454    1.9832 Cl  0  0  0  0  0  0  0  0  0  0  0  0
   -5.6036   12.5352    2.3454 C   0  0  0  0  0  0  0  0  0  0  0  0
   -5.8743   13.8344    1.9330 C   0  0  0  0  0  0  0  0  0  0  0  0
   -6.4023   14.0517    0.6627 C   0  0  0  0  0  0  0  0  0  0  0  0
   -6.5186   12.9940   -0.2438 C   0  0  0  0  0  0  0  0  0  0  0  0
   -7.3135   13.2912   -1.7481 Cl  0  0  0  0  0  0  0  0  0  0  0  0
    4.5431    0.9519   -1.1218 C   0  0  0  0  0  0  0  0  0  0  0  0
    5.1209    1.8346   -2.2290 C   0  0  0  0  0  0  0  0  0  0  0  0
    0.9063   -1.2030    0.6319 H   0  0  0  0  0  0  0  0  0  0  0  0
    0.6675   -0.4382   -0.9604 H   0  0  0  0  0  0  0  0  0  0  0  0
    0.5354    0.4389    0.5862 H   0  0  0  0  0  0  0  0  0  0  0  0
    3.0773   -0.9707   -0.2364 H   0  0  0  0  0  0  0  0  0  0  0  0
    2.9475    0.3271    0.9521 H   0  0  0  0  0  0  0  0  0  0  0  0
    2.9628    3.0153   -1.6460 H   0  0  0  0  0  0  0  0  0  0  0  0
    2.9588    2.7366    0.0869 H   0  0  0  0  0  0  0  0  0  0  0  0
    0.7280    2.0252   -0.0310 H   0  0  0  0  0  0  0  0  0  0  0  0
    0.7010    2.0131   -1.8526 H   0  0  0  0  0  0  0  0  0  0  0  0
   -1.2996    1.7190   -0.5199 H   0  0  0  0  0  0  0  0  0  0  0  0
   -3.6712    2.1351   -0.8259 H   0  0  0  0  0  0  0  0  0  0  0  0
   -2.7870    6.2881   -0.3111 H   0  0  0  0  0  0  0  0  0  0  0  0
   -0.4785    5.9493   -0.5703 H   0  0  0  0  0  0  0  0  0  0  0  0
   -5.4670    3.8766   -1.1724 H   0  0  0  0  0  0  0  0  0  0  0  0
   -8.1911    7.4017   -1.3587 H   0  0  0  0  0  0  0  0  0  0  0  0
   -2.4052    8.1353   -0.3212 H   0  0  0  0  0  0  0  0  0  0  0  0
   -2.4856    9.8009    0.1627 H   0  0  0  0  0  0  0  0  0  0  0  0
   -1.9665    9.4128   -1.4784 H   0  0  0  0  0  0  0  0  0  0  0  0
   -7.1356    9.9981   -2.2910 H   0  0  0  0  0  0  0  0  0  0  0  0
   -7.6785    9.9248   -0.5909 H   0  0  0  0  0  0  0  0  0  0  0  0
   -5.3647   12.3443    3.3899 H   0  0  0  0  0  0  0  0  0  0  0  0
   -5.6865   14.6699    2.6030 H   0  0  0  0  0  0  0  0  0  0  0  0
   -6.7168   15.0529    0.3805 H   0  0  0  0  0  0  0  0  0  0  0  0
    4.9005   -0.0698   -1.2997 H   0  0  0  0  0  0  0  0  0  0  0  0
    4.9511    1.2742   -0.1551 H   0  0  0  0  0  0  0  0  0  0  0  0
    4.7426    1.5270   -3.2090 H   0  0  0  0  0  0  0  0  0  0  0  0
    6.2119    1.7697   -2.2375 H   0  0  0  0  0  0  0  0  0  0  0  0
    4.8864    2.8937   -2.0864 H   0  0  0  0  0  0  0  0  0  0  0  0
  1  2  1  0  0  0  0
  1 36  1  0  0  0  0
  1 37  1  0  0  0  0
  1 38  1  0  0  0  0
  2  3  1  0  0  0  0
  2 39  1  0  0  0  0
  2 40  1  0  0  0  0
  3  4  1  0  0  0  0
  3 34  1  0  0  0  0
  4  5  1  0  0  0  0
  4 41  1  0  0  0  0
  4 42  1  0  0  0  0
  5  6  1  0  0  0  0
  5 43  1  0  0  0  0
  5 44  1  0  0  0  0
  6  7  1  0  0  0  0
  7  8  2  0  0  0  0
  7 12  1  0  0  0  0
  8  9  1  0  0  0  0
  8 45  1  0  0  0  0
  9 10  2  0  0  0  0
  9 46  1  0  0  0  0
 10 11  1  0  0  0  0
 10 13  1  0  0  0  0
 11 12  2  0  0  0  0
 11 47  1  0  0  0  0
 12 48  1  0  0  0  0
 13 14  1  0  0  0  0
 13 49  1  0  0  0  0
 14 15  2  0  0  0  0
 14 19  1  0  0  0  0
 15 16  1  0  0  0  0
 16 17  2  0  0  0  0
 16 50  1  0  0  0  0
 17 18  1  0  0  0  0
 17 25  1  0  0  0  0
 18 19  2  0  0  0  0
 18 20  1  0  0  0  0
 20 21  1  0  0  0  0
 20 22  1  0  0  0  0
 21 51  1  0  0  0  0
 21 52  1  0  0  0  0
 21 53  1  0  0  0  0
 22 23  2  0  0  0  0
 22 24  1  0  0  0  0
 24 25  1  0  0  0  0
 24 26  1  0  0  0  0
 25 54  1  0  0  0  0
 25 55  1  0  0  0  0
 26 27  2  0  0  0  0
 26 32  1  0  0  0  0
 27 28  1  0  0  0  0
 27 29  1  0  0  0  0
 29 30  2  0  0  0  0
 29 56  1  0  0  0  0
 30 31  1  0  0  0  0
 30 57  1  0  0  0  0
 31 32  2  0  0  0  0
 31 58  1  0  0  0  0
 32 33  1  0  0  0  0
 34 35  1  0  0  0  0
 34 59  1  0  0  0  0
 34 60  1  0  0  0  0
 35 61  1  0  0  0  0
 35 62  1  0  0  0  0
 35 63  1  0  0  0  0
M  END
$$$$
