LI8
 OpenBabel04121316143D

 66 68  0  0  0  0  0  0  0  0999 V2000
    1.0492    0.0376   -0.0309 O   0  0  0  0  0  0  0  0  0  0  0  0
    2.2818    0.0882   -0.0745 C   0  0  0  0  0  0  0  0  0  0  0  0
    2.9540    1.1387   -0.6318 N   0  0  0  0  0  0  0  0  0  0  0  0
    3.0459    2.4466   -0.0201 C   0  0  0  0  0  0  0  0  0  0  0  0
    3.0186    3.4015   -1.1833 C   0  0  0  0  0  0  0  0  0  0  0  0
    3.6474    2.6154   -2.3381 C   0  0  0  0  0  0  0  0  0  0  0  0
    3.5013    1.1377   -1.9771 C   0  0  0  0  0  0  0  0  0  0  0  0
    3.0255   -0.9515    0.4224 N   0  0  0  0  0  0  0  0  0  0  0  0
    4.4259   -1.0476    0.5157 C   0  0  0  0  0  0  0  0  0  0  0  0
    5.2637    0.0418    0.5380 C   0  0  0  0  0  0  0  0  0  0  0  0
    6.6343   -0.0478    0.3911 C   0  0  0  0  0  0  0  0  0  0  0  0
    7.2026   -1.2923    0.1996 C   0  0  0  0  0  0  0  0  0  0  0  0
    6.4060   -2.4378    0.2981 C   0  0  0  0  0  0  0  0  0  0  0  0
    5.0326   -2.2760    0.5747 C   0  0  0  0  0  0  0  0  0  0  0  0
    6.9737   -3.7042    0.0999 N   0  0  0  0  0  0  0  0  0  0  0  0
    6.3323   -4.9412    0.0664 C   0  0  0  0  0  0  0  0  0  0  0  0
    7.0773   -6.0429   -0.0070 N   0  0  0  0  0  0  0  0  0  0  0  0
    6.3964   -7.2084    0.0717 C   0  0  0  0  0  0  0  0  0  0  0  0
    5.0263   -7.3091    0.2203 C   0  0  0  0  0  0  0  0  0  0  0  0
    4.3261   -6.1270    0.2624 C   0  0  0  0  0  0  0  0  0  0  0  0
    4.9913   -4.9801    0.1539 N   0  0  0  0  0  0  0  0  0  0  0  0
    2.9610   -6.0793    0.4778 N   0  0  0  0  0  0  0  0  0  0  0  0
    2.2182   -4.8340    0.5295 C   0  0  0  0  0  0  0  0  0  0  0  0
    0.7292   -5.1321    0.6912 C   0  0  0  0  0  0  0  0  0  0  0  0
   -0.0733   -3.8448    0.7797 C   0  0  0  0  0  0  0  0  0  0  0  0
   -1.4865   -4.1022    0.9505 N   0  0  0  0  0  0  0  0  0  0  0  0
   -2.3663   -3.0435    1.0271 C   0  0  0  0  0  0  0  0  0  0  0  0
   -1.9780   -1.8814    0.9736 O   0  0  0  0  0  0  0  0  0  0  0  0
   -3.8442   -3.4040    1.1733 C   0  0  0  0  0  0  0  0  0  0  0  0
   -4.3307   -4.2301   -0.0192 C   0  0  0  0  0  0  0  0  0  0  0  0
   -4.7752   -5.3646    0.0770 O   0  0  0  0  0  0  0  0  0  0  0  0
   -4.2389   -3.6444   -1.2499 N   0  0  0  0  0  0  0  0  0  0  0  0
   -4.0505   -4.2002    2.4718 C   0  0  0  0  0  0  0  0  0  0  0  0
   -4.6645   -2.1051    1.2650 C   0  0  0  0  0  0  0  0  0  0  0  0
    4.1796   -8.9879    0.3439 Br  0  0  0  0  0  0  0  0  0  0  0  0
    4.0333    2.5746    0.4328 H   0  0  0  0  0  0  0  0  0  0  0  0
    2.3167    2.5953    0.7773 H   0  0  0  0  0  0  0  0  0  0  0  0
    3.5784    4.3162   -0.9611 H   0  0  0  0  0  0  0  0  0  0  0  0
    1.9841    3.6656   -1.4090 H   0  0  0  0  0  0  0  0  0  0  0  0
    4.7079    2.8717   -2.4537 H   0  0  0  0  0  0  0  0  0  0  0  0
    3.1498    2.8515   -3.2827 H   0  0  0  0  0  0  0  0  0  0  0  0
    4.4880    0.6610   -1.9658 H   0  0  0  0  0  0  0  0  0  0  0  0
    2.8729    0.5737   -2.6731 H   0  0  0  0  0  0  0  0  0  0  0  0
    2.4663   -1.7607    0.6593 H   0  0  0  0  0  0  0  0  0  0  0  0
    4.8583    1.0098    0.6979 H   0  0  0  0  0  0  0  0  0  0  0  0
    7.2126    0.8685    0.4063 H   0  0  0  0  0  0  0  0  0  0  0  0
    8.2671   -1.3474    0.0035 H   0  0  0  0  0  0  0  0  0  0  0  0
    4.3957   -3.1130    0.7969 H   0  0  0  0  0  0  0  0  0  0  0  0
    7.9571   -3.7644   -0.1117 H   0  0  0  0  0  0  0  0  0  0  0  0
    7.0182   -8.0956    0.0214 H   0  0  0  0  0  0  0  0  0  0  0  0
    2.4596   -6.9565    0.4722 H   0  0  0  0  0  0  0  0  0  0  0  0
    2.3735   -4.2399   -0.3806 H   0  0  0  0  0  0  0  0  0  0  0  0
    2.5479   -4.2368    1.3884 H   0  0  0  0  0  0  0  0  0  0  0  0
    0.5640   -5.7330    1.5944 H   0  0  0  0  0  0  0  0  0  0  0  0
    0.3728   -5.7354   -0.1531 H   0  0  0  0  0  0  0  0  0  0  0  0
    0.0547   -3.2429   -0.1280 H   0  0  0  0  0  0  0  0  0  0  0  0
    0.2583   -3.2362    1.6293 H   0  0  0  0  0  0  0  0  0  0  0  0
   -1.8327   -5.0553    0.9484 H   0  0  0  0  0  0  0  0  0  0  0  0
   -3.8204   -2.7362   -1.4066 H   0  0  0  0  0  0  0  0  0  0  0  0
   -4.5407   -4.1833   -2.0512 H   0  0  0  0  0  0  0  0  0  0  0  0
   -3.5080   -5.1524    2.4594 H   0  0  0  0  0  0  0  0  0  0  0  0
   -5.1102   -4.4375    2.6220 H   0  0  0  0  0  0  0  0  0  0  0  0
   -3.7015   -3.6358    3.3436 H   0  0  0  0  0  0  0  0  0  0  0  0
   -4.5369   -1.4794    0.3738 H   0  0  0  0  0  0  0  0  0  0  0  0
   -4.3485   -1.5016    2.1247 H   0  0  0  0  0  0  0  0  0  0  0  0
   -5.7338   -2.3145    1.3701 H   0  0  0  0  0  0  0  0  0  0  0  0
  1  2  2  0  0  0  0
  2  3  1  0  0  0  0
  2  8  1  0  0  0  0
  3  4  1  0  0  0  0
  3  7  1  0  0  0  0
  4  5  1  0  0  0  0
  4 36  1  0  0  0  0
  4 37  1  0  0  0  0
  5  6  1  0  0  0  0
  5 38  1  0  0  0  0
  5 39  1  0  0  0  0
  6  7  1  0  0  0  0
  6 40  1  0  0  0  0
  6 41  1  0  0  0  0
  7 42  1  0  0  0  0
  7 43  1  0  0  0  0
  8  9  1  0  0  0  0
  8 44  1  0  0  0  0
  9 10  2  0  0  0  0
  9 14  1  0  0  0  0
 10 11  1  0  0  0  0
 10 45  1  0  0  0  0
 11 12  2  0  0  0  0
 11 46  1  0  0  0  0
 12 13  1  0  0  0  0
 12 47  1  0  0  0  0
 13 14  2  0  0  0  0
 13 15  1  0  0  0  0
 14 48  1  0  0  0  0
 15 16  1  0  0  0  0
 15 49  1  0  0  0  0
 16 17  2  0  0  0  0
 16 21  1  0  0  0  0
 17 18  1  0  0  0  0
 18 19  2  0  0  0  0
 18 50  1  0  0  0  0
 19 20  1  0  0  0  0
 19 35  1  0  0  0  0
 20 21  2  0  0  0  0
 20 22  1  0  0  0  0
 22 23  1  0  0  0  0
 22 51  1  0  0  0  0
 23 24  1  0  0  0  0
 23 52  1  0  0  0  0
 23 53  1  0  0  0  0
 24 25  1  0  0  0  0
 24 54  1  0  0  0  0
 24 55  1  0  0  0  0
 25 26  1  0  0  0  0
 25 56  1  0  0  0  0
 25 57  1  0  0  0  0
 26 27  1  0  0  0  0
 26 58  1  0  0  0  0
 27 28  2  0  0  0  0
 27 29  1  0  0  0  0
 29 30  1  0  0  0  0
 29 33  1  0  0  0  0
 29 34  1  0  0  0  0
 30 31  2  0  0  0  0
 30 32  1  0  0  0  0
 32 59  1  0  0  0  0
 32 60  1  0  0  0  0
 33 61  1  0  0  0  0
 33 62  1  0  0  0  0
 33 63  1  0  0  0  0
 34 64  1  0  0  0  0
 34 65  1  0  0  0  0
 34 66  1  0  0  0  0
M  END
$$$$
