LI9
 OpenBabel04121316143D

 64 68  0  0  1  0  0  0  0  0999 V2000
    4.1559    3.0327    2.5807 F   0  0  0  0  0  0  0  0  0  0  0  0
    4.8500    2.2030    3.3671 C   0  0  0  0  0  0  0  0  0  0  0  0
    5.4397    2.6233    4.5533 C   0  0  0  0  0  0  0  0  0  0  0  0
    6.2514    1.7467    5.3329 C   0  0  0  0  0  0  0  0  0  0  0  0
    6.4126    0.4010    4.9870 C   0  0  0  0  0  0  0  0  0  0  0  0
    5.7088    0.0624    3.8254 C   0  0  0  0  0  0  0  0  0  0  0  0
    4.9822    0.9046    2.9957 C   0  0  0  0  0  0  0  0  0  0  0  0
    7.2804   -0.6199    5.6907 C   0  0  0  0  0  0  0  0  0  0  0  0
    8.1925   -0.3633    6.9023 C   0  0  0  0  0  0  0  0  0  0  0  0
    8.2677    0.7362    7.4534 O   0  0  0  0  0  0  0  0  0  0  0  0
    8.8595   -1.5539    7.2456 N   0  0  0  0  0  0  0  0  0  0  0  0
    8.4902   -2.4914    6.2725 N   0  0  0  0  0  0  0  0  0  0  0  0
    7.5165   -1.9388    5.4202 C   0  0  0  0  0  0  0  0  0  0  0  0
    6.8772   -2.8256    4.3833 C   0  0  0  0  0  0  0  0  0  0  0  0
    7.5797   -3.7910    3.7101 C   0  0  0  0  0  0  0  0  0  0  0  0
    6.8163   -4.6983    3.0277 C   0  0  0  0  0  0  0  0  0  0  0  0
    5.5758   -4.4365    2.6044 N   0  0  0  0  0  0  0  0  0  0  0  0
    5.0386   -3.3240    3.0784 C   0  0  0  0  0  0  0  0  0  0  0  0
    5.5512   -2.7096    4.1558 N   0  0  0  0  0  0  0  0  0  0  0  0
    4.0860   -2.6392    2.3602 N   0  0  0  0  0  0  0  0  0  0  0  0
    3.3090   -3.2468    1.2957 C   0  0  2  0  0  0  0  0  0  0  0  0
    3.8668   -4.0887    0.8670 H   0  0  0  0  0  0  0  0  0  0  0  0
    3.0511   -2.2705    0.1468 C   0  0  0  0  0  0  0  0  0  0  0  0
    3.0028   -2.7539   -1.1720 C   0  0  0  0  0  0  0  0  0  0  0  0
    3.0325   -1.8722   -2.2557 C   0  0  0  0  0  0  0  0  0  0  0  0
    2.9828   -0.4982   -2.0388 C   0  0  0  0  0  0  0  0  0  0  0  0
    2.8299   -0.0123   -0.7448 C   0  0  0  0  0  0  0  0  0  0  0  0
    2.8760   -0.8928    0.3389 C   0  0  0  0  0  0  0  0  0  0  0  0
    1.9963   -3.7508    1.8731 C   0  0  0  0  0  0  0  0  0  0  0  0
    8.9241   -3.8717    6.3186 C   0  0  0  0  0  0  0  0  0  0  0  0
    9.8532   -1.9390    8.3143 C   0  0  0  0  0  0  0  0  0  0  0  0
   11.3327   -1.8189    7.9108 C   0  0  0  0  0  0  0  0  0  0  0  0
   11.7775   -0.3684    7.9707 C   0  0  0  0  0  0  0  0  0  0  0  0
   11.5909    0.1804    9.3175 N   0  0  0  0  0  0  0  0  0  0  0  0
   10.1930    0.0981    9.7518 C   0  0  0  0  0  0  0  0  0  0  0  0
    9.6552   -1.3182    9.6941 C   0  0  0  0  0  0  0  0  0  0  0  0
    5.2666    3.6454    4.8670 H   0  0  0  0  0  0  0  0  0  0  0  0
    6.7507    2.1640    6.2030 H   0  0  0  0  0  0  0  0  0  0  0  0
    5.6871   -0.9190    3.4427 H   0  0  0  0  0  0  0  0  0  0  0  0
    4.5557    0.5087    2.0845 H   0  0  0  0  0  0  0  0  0  0  0  0
    8.6445   -3.9213    3.7712 H   0  0  0  0  0  0  0  0  0  0  0  0
    7.1943   -5.6883    2.8083 H   0  0  0  0  0  0  0  0  0  0  0  0
    3.7420   -1.8041    2.8044 H   0  0  0  0  0  0  0  0  0  0  0  0
    2.9736   -3.8243   -1.3656 H   0  0  0  0  0  0  0  0  0  0  0  0
    3.1148   -2.2584   -3.2683 H   0  0  0  0  0  0  0  0  0  0  0  0
    3.0480    0.1912   -2.8762 H   0  0  0  0  0  0  0  0  0  0  0  0
    2.7025    1.0538   -0.5727 H   0  0  0  0  0  0  0  0  0  0  0  0
    2.7943   -0.4818    1.3383 H   0  0  0  0  0  0  0  0  0  0  0  0
    1.4104   -4.2747    1.1121 H   0  0  0  0  0  0  0  0  0  0  0  0
    1.3890   -2.9251    2.2613 H   0  0  0  0  0  0  0  0  0  0  0  0
    2.1853   -4.4432    2.6999 H   0  0  0  0  0  0  0  0  0  0  0  0
    9.5956   -4.1579    7.1216 H   0  0  0  0  0  0  0  0  0  0  0  0
    9.5242   -4.0828    5.4342 H   0  0  0  0  0  0  0  0  0  0  0  0
    8.0537   -4.5308    6.3696 H   0  0  0  0  0  0  0  0  0  0  0  0
    9.6755   -2.9957    8.5252 H   0  0  0  0  0  0  0  0  0  0  0  0
   11.5282   -2.2484    6.9224 H   0  0  0  0  0  0  0  0  0  0  0  0
   11.9523   -2.3989    8.6167 H   0  0  0  0  0  0  0  0  0  0  0  0
   11.2258    0.2173    7.2287 H   0  0  0  0  0  0  0  0  0  0  0  0
   12.8404   -0.3030    7.7116 H   0  0  0  0  0  0  0  0  0  0  0  0
   11.8452    1.1693    9.2926 H   0  0  0  0  0  0  0  0  0  0  0  0
    9.5956    0.7632    9.1400 H   0  0  0  0  0  0  0  0  0  0  0  0
   10.1005    0.4755   10.7744 H   0  0  0  0  0  0  0  0  0  0  0  0
    8.6043   -1.3751    9.9917 H   0  0  0  0  0  0  0  0  0  0  0  0
   10.2144   -1.9237   10.4290 H   0  0  0  0  0  0  0  0  0  0  0  0
  1  2  1  0  0  0  0
  2  3  2  0  0  0  0
  2  7  1  0  0  0  0
  3  4  1  0  0  0  0
  3 37  1  0  0  0  0
  4  5  2  0  0  0  0
  4 38  1  0  0  0  0
  5  6  1  0  0  0  0
  5  8  1  0  0  0  0
  6  7  2  0  0  0  0
  6 39  1  0  0  0  0
  7 40  1  0  0  0  0
  8  9  1  0  0  0  0
  8 13  2  0  0  0  0
  9 10  2  0  0  0  0
  9 11  1  0  0  0  0
 11 12  1  0  0  0  0
 11 31  1  0  0  0  0
 12 13  1  0  0  0  0
 12 30  1  0  0  0  0
 13 14  1  0  0  0  0
 14 15  2  0  0  0  0
 14 19  1  0  0  0  0
 15 16  1  0  0  0  0
 15 41  1  0  0  0  0
 16 17  2  0  0  0  0
 16 42  1  0  0  0  0
 17 18  1  0  0  0  0
 18 19  2  0  0  0  0
 18 20  1  0  0  0  0
 20 43  1  0  0  0  0
 21 23  1  0  0  0  0
 21 29  1  0  0  0  0
 21 22  1  6  0  0  0
 21 20  1  0  0  0  0
 23 24  2  0  0  0  0
 23 28  1  0  0  0  0
 24 25  1  0  0  0  0
 24 44  1  0  0  0  0
 25 26  2  0  0  0  0
 25 45  1  0  0  0  0
 26 27  1  0  0  0  0
 26 46  1  0  0  0  0
 27 28  2  0  0  0  0
 27 47  1  0  0  0  0
 28 48  1  0  0  0  0
 29 49  1  0  0  0  0
 29 50  1  0  0  0  0
 29 51  1  0  0  0  0
 30 52  1  0  0  0  0
 30 53  1  0  0  0  0
 30 54  1  0  0  0  0
 31 32  1  0  0  0  0
 31 36  1  0  0  0  0
 31 55  1  0  0  0  0
 32 33  1  0  0  0  0
 32 56  1  0  0  0  0
 32 57  1  0  0  0  0
 33 34  1  0  0  0  0
 33 58  1  0  0  0  0
 33 59  1  0  0  0  0
 34 35  1  0  0  0  0
 34 60  1  0  0  0  0
 35 36  1  0  0  0  0
 35 61  1  0  0  0  0
 35 62  1  0  0  0  0
 36 63  1  0  0  0  0
 36 64  1  0  0  0  0
M  END
$$$$
