LIC
 OpenBabel04121316143D

 61 63  0  0  1  0  0  0  0  0999 V2000
   -1.7115   -0.2545   10.7065 C   0  0  0  0  0  0  0  0  0  0  0  0
   -1.1177   -0.4763    9.4338 O   0  0  0  0  0  0  0  0  0  0  0  0
    0.0517   -1.1504    9.5744 C   0  0  0  0  0  0  0  0  0  0  0  0
    1.2097   -0.4848    9.2697 C   0  0  0  0  0  0  0  0  0  0  0  0
    2.4189   -1.1688    9.3193 C   0  0  0  0  0  0  0  0  0  0  0  0
    2.5429   -2.5387    9.5721 C   0  0  0  0  0  0  0  0  0  0  0  0
    1.3518   -3.1115   10.0567 C   0  0  0  0  0  0  0  0  0  0  0  0
    0.1162   -2.4594   10.0040 C   0  0  0  0  0  0  0  0  0  0  0  0
    3.7700   -3.3339    9.3619 N   0  0  0  0  0  0  0  0  0  0  0  0
    4.9810   -2.7289    8.7463 C   0  0  0  0  0  0  0  0  0  0  0  0
    5.0861   -1.4179    8.3521 C   0  0  0  0  0  0  0  0  0  0  0  0
    6.3126   -0.8184    8.3795 C   0  0  0  0  0  0  0  0  0  0  0  0
    7.4133   -1.5335    8.2726 N   0  0  0  0  0  0  0  0  0  0  0  0
    7.2389   -2.8474    8.2034 C   0  0  0  0  0  0  0  0  0  0  0  0
    6.0942   -3.4691    8.5495 N   0  0  0  0  0  0  0  0  0  0  0  0
    8.2737   -3.6213    7.7613 N   0  0  0  0  0  0  0  0  0  0  0  0
    9.4096   -3.0063    7.0897 C   0  0  2  0  0  0  0  0  0  0  0  0
    9.3449   -1.9097    7.0522 H   0  0  0  0  0  0  0  0  0  0  0  0
    9.5617   -3.4931    5.6145 C   0  0  0  0  0  0  0  0  0  0  0  0
   10.6898   -2.8493    4.9987 O   0  0  0  0  0  0  0  0  0  0  0  0
    9.7722   -5.0074    5.5256 C   0  0  0  0  0  0  0  0  0  0  0  0
    8.3418   -3.0958    4.7738 C   0  0  0  0  0  0  0  0  0  0  0  0
   10.6294   -3.3284    7.9530 C   0  0  0  0  0  0  0  0  0  0  0  0
    3.7630   -4.6888    9.7980 C   0  0  0  0  0  0  0  0  0  0  0  0
    2.8172   -5.3146   10.3010 O   0  0  0  0  0  0  0  0  0  0  0  0
    4.9199   -5.3799    9.7019 N   0  0  0  0  0  0  0  0  0  0  0  0
    5.0110   -6.7569   10.1200 C   0  0  0  0  0  0  0  0  0  0  0  0
    6.3557   -7.3738    9.8639 C   0  0  0  0  0  0  0  0  0  0  0  0
    7.4356   -6.6090    9.3952 C   0  0  0  0  0  0  0  0  0  0  0  0
    8.6075   -7.1986    8.9482 C   0  0  0  0  0  0  0  0  0  0  0  0
    8.7953   -8.5548    9.1484 C   0  0  0  0  0  0  0  0  0  0  0  0
    7.8064   -9.3079    9.7822 C   0  0  0  0  0  0  0  0  0  0  0  0
    6.5673   -8.7387   10.0771 C   0  0  0  0  0  0  0  0  0  0  0  0
    5.3236   -9.7706   10.6884 Cl  0  0  0  0  0  0  0  0  0  0  0  0
   -2.6417    0.2879   10.5320 H   0  0  0  0  0  0  0  0  0  0  0  0
   -1.0601    0.3608   11.3382 H   0  0  0  0  0  0  0  0  0  0  0  0
   -1.9516   -1.1965   11.2089 H   0  0  0  0  0  0  0  0  0  0  0  0
    1.2084    0.5703    9.0180 H   0  0  0  0  0  0  0  0  0  0  0  0
    3.2351   -0.4867    9.2064 H   0  0  0  0  0  0  0  0  0  0  0  0
    1.2906   -4.0895   10.5151 H   0  0  0  0  0  0  0  0  0  0  0  0
   -0.7753   -3.0048   10.2940 H   0  0  0  0  0  0  0  0  0  0  0  0
    4.3005   -0.8415    7.9061 H   0  0  0  0  0  0  0  0  0  0  0  0
    6.4277    0.2594    8.4149 H   0  0  0  0  0  0  0  0  0  0  0  0
    8.0457   -4.5873    7.5987 H   0  0  0  0  0  0  0  0  0  0  0  0
   11.4945   -3.0888    5.4880 H   0  0  0  0  0  0  0  0  0  0  0  0
   10.6716   -5.3181    6.0655 H   0  0  0  0  0  0  0  0  0  0  0  0
    9.9203   -5.3239    4.4891 H   0  0  0  0  0  0  0  0  0  0  0  0
    8.9175   -5.5559    5.9320 H   0  0  0  0  0  0  0  0  0  0  0  0
    8.2018   -2.0085    4.7715 H   0  0  0  0  0  0  0  0  0  0  0  0
    7.4234   -3.5647    5.1393 H   0  0  0  0  0  0  0  0  0  0  0  0
    8.4801   -3.3911    3.7266 H   0  0  0  0  0  0  0  0  0  0  0  0
   11.5316   -2.8523    7.5640 H   0  0  0  0  0  0  0  0  0  0  0  0
   10.7979   -4.4074    8.0149 H   0  0  0  0  0  0  0  0  0  0  0  0
   10.4739   -2.9744    8.9775 H   0  0  0  0  0  0  0  0  0  0  0  0
    5.6315   -4.9426    9.1346 H   0  0  0  0  0  0  0  0  0  0  0  0
    4.2372   -7.3114    9.5706 H   0  0  0  0  0  0  0  0  0  0  0  0
    4.7705   -6.7981   11.1892 H   0  0  0  0  0  0  0  0  0  0  0  0
    7.3870   -5.5297    9.3750 H   0  0  0  0  0  0  0  0  0  0  0  0
    9.3713   -6.5891    8.4751 H   0  0  0  0  0  0  0  0  0  0  0  0
    9.7227   -9.0193    8.8327 H   0  0  0  0  0  0  0  0  0  0  0  0
    8.0003  -10.3463   10.0302 H   0  0  0  0  0  0  0  0  0  0  0  0
  1  2  1  0  0  0  0
  1 35  1  0  0  0  0
  1 36  1  0  0  0  0
  1 37  1  0  0  0  0
  2  3  1  0  0  0  0
  3  4  2  0  0  0  0
  3  8  1  0  0  0  0
  4  5  1  0  0  0  0
  4 38  1  0  0  0  0
  5  6  2  0  0  0  0
  5 39  1  0  0  0  0
  6  7  1  0  0  0  0
  6  9  1  0  0  0  0
  7  8  2  0  0  0  0
  7 40  1  0  0  0  0
  8 41  1  0  0  0  0
  9 10  1  0  0  0  0
  9 24  1  0  0  0  0
 10 11  2  0  0  0  0
 10 15  1  0  0  0  0
 11 12  1  0  0  0  0
 11 42  1  0  0  0  0
 12 13  2  0  0  0  0
 12 43  1  0  0  0  0
 13 14  1  0  0  0  0
 14 15  2  0  0  0  0
 14 16  1  0  0  0  0
 16 44  1  0  0  0  0
 17 19  1  0  0  0  0
 17 23  1  0  0  0  0
 17 18  1  6  0  0  0
 17 16  1  0  0  0  0
 19 20  1  0  0  0  0
 19 21  1  0  0  0  0
 19 22  1  0  0  0  0
 20 45  1  0  0  0  0
 21 46  1  0  0  0  0
 21 47  1  0  0  0  0
 21 48  1  0  0  0  0
 22 49  1  0  0  0  0
 22 50  1  0  0  0  0
 22 51  1  0  0  0  0
 23 52  1  0  0  0  0
 23 53  1  0  0  0  0
 23 54  1  0  0  0  0
 24 25  2  0  0  0  0
 24 26  1  0  0  0  0
 26 27  1  0  0  0  0
 26 55  1  0  0  0  0
 27 28  1  0  0  0  0
 27 56  1  0  0  0  0
 27 57  1  0  0  0  0
 28 29  2  0  0  0  0
 28 33  1  0  0  0  0
 29 30  1  0  0  0  0
 29 58  1  0  0  0  0
 30 31  2  0  0  0  0
 30 59  1  0  0  0  0
 31 32  1  0  0  0  0
 31 60  1  0  0  0  0
 32 33  2  0  0  0  0
 32 61  1  0  0  0  0
 33 34  1  0  0  0  0
M  END
$$$$
