LID
 OpenBabel04121316143D

 43 46  0  0  0  0  0  0  0  0999 V2000
    0.9580   -0.1522    0.1003 C   0  0  0  0  0  0  0  0  0  0  0  0
    2.4776   -0.0880    0.1204 C   0  0  0  0  0  0  0  0  0  0  0  0
    2.9539    1.1098   -0.5266 N   0  0  0  0  0  0  0  0  0  0  0  0
    3.7473    1.2259   -1.6532 C   0  0  0  0  0  0  0  0  0  0  0  0
    4.4168    0.2189   -2.2673 N   0  0  0  0  0  0  0  0  0  0  0  0
    5.1873    0.4257   -3.4512 C   0  0  0  0  0  0  0  0  0  0  0  0
    5.4894    1.7125   -3.9464 C   0  0  0  0  0  0  0  0  0  0  0  0
    6.0203    1.9341   -5.2092 C   0  0  0  0  0  0  0  0  0  0  0  0
    6.4505    0.8533   -5.9505 C   0  0  0  0  0  0  0  0  0  0  0  0
    6.3314   -0.4342   -5.4226 C   0  0  0  0  0  0  0  0  0  0  0  0
    5.6525   -0.6525   -4.2144 C   0  0  0  0  0  0  0  0  0  0  0  0
    5.3749   -2.2815   -3.7057 Cl  0  0  0  0  0  0  0  0  0  0  0  0
    3.7602    2.4617   -2.0628 N   0  0  0  0  0  0  0  0  0  0  0  0
    3.1341    3.1823   -1.1354 C   0  0  0  0  0  0  0  0  0  0  0  0
    2.5828    2.3877   -0.1565 C   0  0  0  0  0  0  0  0  0  0  0  0
    1.8094    2.8084    0.8721 N   0  0  0  0  0  0  0  0  0  0  0  0
    1.6695    4.1500    0.8644 C   0  0  0  0  0  0  0  0  0  0  0  0
    2.3276    4.9768    0.0406 N   0  0  0  0  0  0  0  0  0  0  0  0
    2.9781    4.5283   -1.0286 C   0  0  0  0  0  0  0  0  0  0  0  0
    0.7550    4.7673    1.7175 N   0  0  0  0  0  0  0  0  0  0  0  0
    0.4802    6.1511    1.8022 C   0  0  0  0  0  0  0  0  0  0  0  0
   -0.2015    6.6610    2.9071 C   0  0  0  0  0  0  0  0  0  0  0  0
   -0.7064    5.8209    3.8245 F   0  0  0  0  0  0  0  0  0  0  0  0
   -0.3684    8.0369    3.0955 C   0  0  0  0  0  0  0  0  0  0  0  0
    0.2830    8.9430    2.2619 C   0  0  0  0  0  0  0  0  0  0  0  0
    0.8759    8.4765    1.1074 C   0  0  0  0  0  0  0  0  0  0  0  0
    0.8695    7.1155    0.8447 C   0  0  0  0  0  0  0  0  0  0  0  0
    1.1700    6.8115   -0.4257 F   0  0  0  0  0  0  0  0  0  0  0  0
    0.6024   -1.0684    0.5743 H   0  0  0  0  0  0  0  0  0  0  0  0
    0.5855   -0.1121   -0.9292 H   0  0  0  0  0  0  0  0  0  0  0  0
    0.5086    0.6889    0.6375 H   0  0  0  0  0  0  0  0  0  0  0  0
    2.8878   -0.9584   -0.3996 H   0  0  0  0  0  0  0  0  0  0  0  0
    2.8699   -0.0860    1.1427 H   0  0  0  0  0  0  0  0  0  0  0  0
    4.2949   -0.7547   -2.0244 H   0  0  0  0  0  0  0  0  0  0  0  0
    5.3079    2.6144   -3.3747 H   0  0  0  0  0  0  0  0  0  0  0  0
    6.0940    2.9542   -5.5776 H   0  0  0  0  0  0  0  0  0  0  0  0
    6.8916    1.0224   -6.9268 H   0  0  0  0  0  0  0  0  0  0  0  0
    6.7542   -1.2684   -5.9723 H   0  0  0  0  0  0  0  0  0  0  0  0
    3.3403    5.2528   -1.7433 H   0  0  0  0  0  0  0  0  0  0  0  0
    0.4174    4.1614    2.4506 H   0  0  0  0  0  0  0  0  0  0  0  0
   -0.9975    8.3964    3.9015 H   0  0  0  0  0  0  0  0  0  0  0  0
    0.2901   10.0060    2.4743 H   0  0  0  0  0  0  0  0  0  0  0  0
    1.3069    9.1395    0.3637 H   0  0  0  0  0  0  0  0  0  0  0  0
  1  2  1  0  0  0  0
  1 29  1  0  0  0  0
  1 30  1  0  0  0  0
  1 31  1  0  0  0  0
  2  3  1  0  0  0  0
  2 32  1  0  0  0  0
  2 33  1  0  0  0  0
  3  4  1  0  0  0  0
  3 15  1  0  0  0  0
  4  5  1  0  0  0  0
  4 13  2  0  0  0  0
  5  6  1  0  0  0  0
  5 34  1  0  0  0  0
  6  7  2  0  0  0  0
  6 11  1  0  0  0  0
  7  8  1  0  0  0  0
  7 35  1  0  0  0  0
  8  9  2  0  0  0  0
  8 36  1  0  0  0  0
  9 10  1  0  0  0  0
  9 37  1  0  0  0  0
 10 11  2  0  0  0  0
 10 38  1  0  0  0  0
 11 12  1  0  0  0  0
 13 14  1  0  0  0  0
 14 15  2  0  0  0  0
 14 19  1  0  0  0  0
 15 16  1  0  0  0  0
 16 17  2  0  0  0  0
 17 18  1  0  0  0  0
 17 20  1  0  0  0  0
 18 19  2  0  0  0  0
 19 39  1  0  0  0  0
 20 21  1  0  0  0  0
 20 40  1  0  0  0  0
 21 22  2  0  0  0  0
 21 27  1  0  0  0  0
 22 23  1  0  0  0  0
 22 24  1  0  0  0  0
 24 25  2  0  0  0  0
 24 41  1  0  0  0  0
 25 26  1  0  0  0  0
 25 42  1  0  0  0  0
 26 27  2  0  0  0  0
 26 43  1  0  0  0  0
 27 28  1  0  0  0  0
M  END
$$$$
