LIH
 OpenBabel04121316143D

 42 45  0  0  0  0  0  0  0  0999 V2000
    1.0018    0.1181   -0.0376 N   0  0  0  0  0  0  0  0  0  0  0  0
    2.3580    0.0983   -0.0288 C   0  0  0  0  0  0  0  0  0  0  0  0
    2.8959   -1.1147   -0.0221 N   0  0  0  0  0  0  0  0  0  0  0  0
    4.2124   -1.1838   -0.0159 C   0  0  0  0  0  0  0  0  0  0  0  0
    4.6380   -2.4995   -0.0252 N   0  0  0  0  0  0  0  0  0  0  0  0
    5.0381   -0.0262   -0.0305 C   0  0  0  0  0  0  0  0  0  0  0  0
    4.3606    1.1970   -0.0279 C   0  0  0  0  0  0  0  0  0  0  0  0
    3.0385    1.2443   -0.0287 N   0  0  0  0  0  0  0  0  0  0  0  0
    5.0433    2.3528   -0.0305 N   0  0  0  0  0  0  0  0  0  0  0  0
    6.4018    2.3509   -0.0198 C   0  0  0  0  0  0  0  0  0  0  0  0
    7.1942    1.2089   -0.0121 C   0  0  0  0  0  0  0  0  0  0  0  0
    6.4741    0.0031   -0.0469 C   0  0  0  0  0  0  0  0  0  0  0  0
    7.0223   -1.3704   -0.0695 C   0  0  0  0  0  0  0  0  0  0  0  0
    8.7062    1.3982    0.0201 C   0  0  0  0  0  0  0  0  0  0  0  0
    9.3817    0.1373    0.2504 N   0  0  0  0  0  0  0  0  0  0  0  0
   10.7167   -0.1916    0.0686 C   0  0  0  0  0  0  0  0  0  0  0  0
   11.6437    0.8215   -0.0450 C   0  0  0  0  0  0  0  0  0  0  0  0
   12.9842    0.5016   -0.0788 C   0  0  0  0  0  0  0  0  0  0  0  0
   13.3817   -0.8374   -0.0075 C   0  0  0  0  0  0  0  0  0  0  0  0
   12.4939   -1.8996    0.0384 C   0  0  0  0  0  0  0  0  0  0  0  0
   11.1219   -1.5951    0.0784 C   0  0  0  0  0  0  0  0  0  0  0  0
   10.2878   -2.7496    0.0824 C   0  0  0  0  0  0  0  0  0  0  0  0
   10.7434   -4.0266   -0.1897 C   0  0  0  0  0  0  0  0  0  0  0  0
   12.0984   -4.1951   -0.1164 C   0  0  0  0  0  0  0  0  0  0  0  0
   12.9629   -3.1676    0.0293 N   0  0  0  0  0  0  0  0  0  0  0  0
    0.5353   -0.7738   -0.0284 H   0  0  0  0  0  0  0  0  0  0  0  0
    0.5285    1.0030   -0.0282 H   0  0  0  0  0  0  0  0  0  0  0  0
    3.9284   -3.2109   -0.0080 H   0  0  0  0  0  0  0  0  0  0  0  0
    5.5674   -2.8573    0.0357 H   0  0  0  0  0  0  0  0  0  0  0  0
    6.8508    3.3448   -0.0161 H   0  0  0  0  0  0  0  0  0  0  0  0
    7.9933   -1.7214   -0.2690 H   0  0  0  0  0  0  0  0  0  0  0  0
    6.6342   -1.8079   -0.9938 H   0  0  0  0  0  0  0  0  0  0  0  0
    6.8151   -1.8140    0.9112 H   0  0  0  0  0  0  0  0  0  0  0  0
    8.9603    2.0507    0.8599 H   0  0  0  0  0  0  0  0  0  0  0  0
    9.0148    1.8811   -0.9188 H   0  0  0  0  0  0  0  0  0  0  0  0
    8.9275   -0.5638   -0.2605 H   0  0  0  0  0  0  0  0  0  0  0  0
   11.3236    1.8548   -0.1088 H   0  0  0  0  0  0  0  0  0  0  0  0
   13.7066    1.3041   -0.1524 H   0  0  0  0  0  0  0  0  0  0  0  0
   14.4454   -1.0637   -0.0186 H   0  0  0  0  0  0  0  0  0  0  0  0
    9.2434   -2.7160    0.3331 H   0  0  0  0  0  0  0  0  0  0  0  0
   10.0635   -4.8467   -0.3933 H   0  0  0  0  0  0  0  0  0  0  0  0
   12.5269   -5.1895   -0.1494 H   0  0  0  0  0  0  0  0  0  0  0  0
  1  2  1  0  0  0  0
  1 26  1  0  0  0  0
  1 27  1  0  0  0  0
  2  3  2  0  0  0  0
  2  8  1  0  0  0  0
  3  4  1  0  0  0  0
  4  5  1  0  0  0  0
  4  6  2  0  0  0  0
  5 28  1  0  0  0  0
  5 29  1  0  0  0  0
  6  7  1  0  0  0  0
  6 12  1  0  0  0  0
  7  8  2  0  0  0  0
  7  9  1  0  0  0  0
  9 10  2  0  0  0  0
 10 11  1  0  0  0  0
 10 30  1  0  0  0  0
 11 12  2  0  0  0  0
 11 14  1  0  0  0  0
 12 13  1  0  0  0  0
 13 31  1  0  0  0  0
 13 32  1  0  0  0  0
 13 33  1  0  0  0  0
 14 15  1  0  0  0  0
 14 34  1  0  0  0  0
 14 35  1  0  0  0  0
 15 16  1  0  0  0  0
 15 36  1  0  0  0  0
 16 17  2  0  0  0  0
 16 21  1  0  0  0  0
 17 18  1  0  0  0  0
 17 37  1  0  0  0  0
 18 19  2  0  0  0  0
 18 38  1  0  0  0  0
 19 20  1  0  0  0  0
 19 39  1  0  0  0  0
 20 21  2  0  0  0  0
 20 25  1  0  0  0  0
 21 22  1  0  0  0  0
 22 23  2  0  0  0  0
 22 40  1  0  0  0  0
 23 24  1  0  0  0  0
 23 41  1  0  0  0  0
 24 25  2  0  0  0  0
 24 42  1  0  0  0  0
M  END
$$$$
