LII
 OpenBabel04121316143D

 44 46  0  0  0  0  0  0  0  0999 V2000
    1.4231    0.5475   -1.2996 C   0  0  0  0  0  0  0  0  0  0  0  0
    2.7789    0.6228   -1.6728 O   0  0  0  0  0  0  0  0  0  0  0  0
    3.3838    1.5501   -0.8646 C   0  0  0  0  0  0  0  0  0  0  0  0
    2.6668    2.7484   -0.6019 C   0  0  0  0  0  0  0  0  0  0  0  0
    3.2291    3.7760    0.0867 C   0  0  0  0  0  0  0  0  0  0  0  0
    4.5406    3.6183    0.4664 C   0  0  0  0  0  0  0  0  0  0  0  0
    5.1754    2.3458    0.4550 C   0  0  0  0  0  0  0  0  0  0  0  0
    4.5768    1.2457   -0.1831 C   0  0  0  0  0  0  0  0  0  0  0  0
    5.0632   -0.1582    0.1035 C   0  0  0  0  0  0  0  0  0  0  0  0
    4.3678   -1.3078    0.3536 C   0  0  0  0  0  0  0  0  0  0  0  0
    2.8837   -1.5282    0.5475 C   0  0  0  0  0  0  0  0  0  0  0  0
    2.2159   -2.4980   -0.2028 C   0  0  0  0  0  0  0  0  0  0  0  0
    0.8453   -2.5979   -0.2980 N   0  0  0  0  0  0  0  0  0  0  0  0
    0.0206   -1.6597    0.2128 C   0  0  0  0  0  0  0  0  0  0  0  0
    0.5546   -0.6485    1.0646 C   0  0  0  0  0  0  0  0  0  0  0  0
    2.0306   -0.6951    1.3373 C   0  0  0  0  0  0  0  0  0  0  0  0
    2.6992    0.4265    2.1179 C   0  0  0  0  0  0  0  0  0  0  0  0
   -0.3555    0.4780    1.1532 C   0  0  0  0  0  0  0  0  0  0  0  0
    0.0132    1.7318    1.6891 N   0  0  0  0  0  0  0  0  0  0  0  0
   -1.5415    0.5778    0.5486 N   0  0  0  0  0  0  0  0  0  0  0  0
   -1.9458   -0.4689   -0.1733 C   0  0  0  0  0  0  0  0  0  0  0  0
   -1.2041   -1.5706   -0.3237 N   0  0  0  0  0  0  0  0  0  0  0  0
   -3.1811   -0.3318   -0.7659 N   0  0  0  0  0  0  0  0  0  0  0  0
    5.1054    4.8062    0.8176 O   0  0  0  0  0  0  0  0  0  0  0  0
    6.5152    4.7678    0.7749 C   0  0  0  0  0  0  0  0  0  0  0  0
    1.1126   -0.4695   -1.4404 H   0  0  0  0  0  0  0  0  0  0  0  0
    0.6854    1.1935   -1.7695 H   0  0  0  0  0  0  0  0  0  0  0  0
    1.3817    0.8460   -0.2617 H   0  0  0  0  0  0  0  0  0  0  0  0
    1.6135    2.8638   -0.8447 H   0  0  0  0  0  0  0  0  0  0  0  0
    2.6650    4.6877    0.2530 H   0  0  0  0  0  0  0  0  0  0  0  0
    6.0996    2.2122    1.0115 H   0  0  0  0  0  0  0  0  0  0  0  0
    6.1506   -0.2261    0.2319 H   0  0  0  0  0  0  0  0  0  0  0  0
    4.9646   -2.2271    0.4268 H   0  0  0  0  0  0  0  0  0  0  0  0
    2.7597   -3.1819   -0.8625 H   0  0  0  0  0  0  0  0  0  0  0  0
    2.0380    1.0275    2.7254 H   0  0  0  0  0  0  0  0  0  0  0  0
    3.0586    1.1626    1.4302 H   0  0  0  0  0  0  0  0  0  0  0  0
    3.5729    0.1307    2.7039 H   0  0  0  0  0  0  0  0  0  0  0  0
    0.9487    2.0356    1.4607 H   0  0  0  0  0  0  0  0  0  0  0  0
   -0.6453    2.4280    1.3293 H   0  0  0  0  0  0  0  0  0  0  0  0
   -3.7321    0.3876   -0.3111 H   0  0  0  0  0  0  0  0  0  0  0  0
   -3.6485   -1.2152   -0.9351 H   0  0  0  0  0  0  0  0  0  0  0  0
    6.8755    5.7897    0.6605 H   0  0  0  0  0  0  0  0  0  0  0  0
    6.9027    4.1822   -0.0695 H   0  0  0  0  0  0  0  0  0  0  0  0
    6.8456    4.3576    1.7287 H   0  0  0  0  0  0  0  0  0  0  0  0
  1  2  1  0  0  0  0
  1 26  1  0  0  0  0
  1 27  1  0  0  0  0
  1 28  1  0  0  0  0
  2  3  1  0  0  0  0
  3  4  2  0  0  0  0
  3  8  1  0  0  0  0
  4  5  1  0  0  0  0
  4 29  1  0  0  0  0
  5  6  2  0  0  0  0
  5 30  1  0  0  0  0
  6  7  1  0  0  0  0
  6 24  1  0  0  0  0
  7  8  2  0  0  0  0
  7 31  1  0  0  0  0
  8  9  1  0  0  0  0
  9 10  2  0  0  0  0
  9 32  1  0  0  0  0
 10 11  1  0  0  0  0
 10 33  1  0  0  0  0
 11 12  2  0  0  0  0
 11 16  1  0  0  0  0
 12 13  1  0  0  0  0
 12 34  1  0  0  0  0
 13 14  2  0  0  0  0
 14 15  1  0  0  0  0
 14 22  1  0  0  0  0
 15 16  2  0  0  0  0
 15 18  1  0  0  0  0
 16 17  1  0  0  0  0
 17 35  1  0  0  0  0
 17 36  1  0  0  0  0
 17 37  1  0  0  0  0
 18 19  1  0  0  0  0
 18 20  2  0  0  0  0
 19 38  1  0  0  0  0
 19 39  1  0  0  0  0
 20 21  1  0  0  0  0
 21 22  2  0  0  0  0
 21 23  1  0  0  0  0
 23 40  1  0  0  0  0
 23 41  1  0  0  0  0
 24 25  1  0  0  0  0
 25 42  1  0  0  0  0
 25 43  1  0  0  0  0
 25 44  1  0  0  0  0
M  END
$$$$
