LIJ
 OpenBabel04121316143D

 96 98  0  0  1  0  0  0  0  0999 V2000
    9.8582    1.5916   -4.7022 C   0  0  0  0  0  0  0  0  0  0  0  0
   10.9389    1.6830   -3.6712 C   0  0  0  0  0  0  0  0  0  0  0  0
   11.2137    0.7374   -2.5897 C   0  0  0  0  0  0  0  0  0  0  0  0
   12.0769    1.5074   -1.6668 C   0  0  0  0  0  0  0  0  0  0  0  0
   11.1731    2.8140   -0.9315 S   0  0  0  0  0  0  0  0  0  0  0  0
   10.2385    1.9342   -0.1561 O   0  0  0  0  0  0  0  0  0  0  0  0
   12.2185    3.4206   -0.2941 O   0  0  0  0  0  0  0  0  0  0  0  0
   10.2219    4.3654   -1.9821 C   0  0  0  0  0  0  0  0  0  0  0  0
    9.2522    3.8127   -2.9040 C   0  0  2  0  0  0  0  0  0  0  0  0
    8.3337    4.3821   -3.0703 H   0  0  0  0  0  0  0  0  0  0  0  0
    8.5824    2.3565   -2.1176 C   0  0  0  0  0  0  0  0  0  0  0  0
    8.5095    1.2165   -2.5870 O   0  0  0  0  0  0  0  0  0  0  0  0
    8.2140    2.2559   -0.8021 N   0  0  0  0  0  0  0  0  0  0  0  0
    8.3371    3.1705    0.3944 C   0  0  2  0  0  0  0  0  0  0  0  0
    7.2333    3.1944    0.5079 H   0  0  0  0  0  0  0  0  0  0  0  0
    8.8622    4.7088    0.0949 C   0  0  1  0  0  0  0  0  0  0  0  0
    8.4970    5.1893    0.9801 H   0  0  0  0  0  0  0  0  0  0  0  0
   10.5333    5.4806    0.1176 C   0  0  0  0  0  0  0  0  0  0  0  0
   10.9611    5.3193    1.4436 N   0  0  0  0  0  0  0  0  0  0  0  0
   12.4408    5.3004    1.7698 C   0  0  0  0  0  0  0  0  0  0  0  0
   12.9329    4.5577    3.4944 C   0  0  0  0  0  0  0  0  0  0  0  0
   14.1247    5.0488    3.8149 C   0  0  0  0  0  0  0  0  0  0  0  0
   14.6983    4.2893    4.8672 C   0  0  0  0  0  0  0  0  0  0  0  0
   14.5641    2.8264    5.2627 C   0  0  0  0  0  0  0  0  0  0  0  0
   13.6372    1.9947    4.7603 C   0  0  0  0  0  0  0  0  0  0  0  0
   12.7380    2.9464    4.2126 C   0  0  0  0  0  0  0  0  0  0  0  0
   13.6642    0.6165    5.0059 O   0  0  0  0  0  0  0  0  0  0  0  0
   13.0990   -0.5808    4.3268 C   0  0  0  0  0  0  0  0  0  0  0  0
    7.9902    5.2433   -0.9409 O   0  0  0  0  0  0  0  0  0  0  0  0
    8.8444    2.5179    1.8593 C   0  0  0  0  0  0  0  0  0  0  0  0
   10.2691    2.2100    2.2705 C   0  0  0  0  0  0  0  0  0  0  0  0
   11.2937    3.1057    2.3081 C   0  0  0  0  0  0  0  0  0  0  0  0
   12.8510    3.0170    1.8638 C   0  0  0  0  0  0  0  0  0  0  0  0
   13.4187    1.9073    2.0371 C   0  0  0  0  0  0  0  0  0  0  0  0
   12.2475    1.0005    2.0662 C   0  0  0  0  0  0  0  0  0  0  0  0
   10.8283    1.0169    2.2104 C   0  0  0  0  0  0  0  0  0  0  0  0
   10.1623    4.2794   -4.1002 N   0  0  0  0  0  0  0  0  0  0  0  0
   11.6114    4.2412   -4.1363 C   0  0  0  0  0  0  0  0  0  0  0  0
   12.4113    4.0701   -3.2170 O   0  0  0  0  0  0  0  0  0  0  0  0
   12.0281    4.1063   -5.3791 O   0  0  0  0  0  0  0  0  0  0  0  0
   13.3736    3.6136   -5.4652 C   0  0  0  0  0  0  0  0  0  0  0  0
   13.7159    3.8813   -6.8814 C   0  0  0  0  0  0  0  0  0  0  0  0
   12.6907    4.0131   -7.8336 C   0  0  0  0  0  0  0  0  0  0  0  0
   12.9947    4.0749   -9.1734 C   0  0  0  0  0  0  0  0  0  0  0  0
   14.3247    4.1751   -9.5521 C   0  0  0  0  0  0  0  0  0  0  0  0
   15.3390    4.2187   -8.5927 C   0  0  0  0  0  0  0  0  0  0  0  0
   15.0465    3.9783   -7.2608 C   0  0  0  0  0  0  0  0  0  0  0  0
   12.4649    0.3447   -0.7098 C   0  0  0  0  0  0  0  0  0  0  0  0
   13.7343    0.6808    0.0244 C   0  0  0  0  0  0  0  0  0  0  0  0
   14.2333   -0.2540    1.4289 C   0  0  0  0  0  0  0  0  0  0  0  0
    9.7579    2.5066   -5.2888 H   0  0  0  0  0  0  0  0  0  0  0  0
    8.8138    1.4546   -4.4376 H   0  0  0  0  0  0  0  0  0  0  0  0
   10.1742    0.7688   -5.2942 H   0  0  0  0  0  0  0  0  0  0  0  0
   10.7711    2.5438   -3.1060 H   0  0  0  0  0  0  0  0  0  0  0  0
   11.8929    1.8912   -4.1233 H   0  0  0  0  0  0  0  0  0  0  0  0
   11.7814   -0.0958   -2.9491 H   0  0  0  0  0  0  0  0  0  0  0  0
   10.3847    0.3844   -1.9636 H   0  0  0  0  0  0  0  0  0  0  0  0
   12.9548    2.0922   -1.9623 H   0  0  0  0  0  0  0  0  0  0  0  0
   11.0743    5.0097   -2.2856 H   0  0  0  0  0  0  0  0  0  0  0  0
    9.8015    5.3578   -1.7326 H   0  0  0  0  0  0  0  0  0  0  0  0
    8.5866    1.3129   -0.5528 H   0  0  0  0  0  0  0  0  0  0  0  0
   10.6987    6.4721   -0.2723 H   0  0  0  0  0  0  0  0  0  0  0  0
   11.3433    5.0781   -0.5044 H   0  0  0  0  0  0  0  0  0  0  0  0
   10.7629    4.3323    1.2355 H   0  0  0  0  0  0  0  0  0  0  0  0
   12.9378    6.2187    1.4324 H   0  0  0  0  0  0  0  0  0  0  0  0
   12.9743    4.8549    0.8569 H   0  0  0  0  0  0  0  0  0  0  0  0
   14.4251    5.9692    3.3387 H   0  0  0  0  0  0  0  0  0  0  0  0
   14.9179    4.9167    5.7224 H   0  0  0  0  0  0  0  0  0  0  0  0
   15.0476    2.4294    6.1431 H   0  0  0  0  0  0  0  0  0  0  0  0
   11.9313    2.2482    3.9912 H   0  0  0  0  0  0  0  0  0  0  0  0
   13.1066   -1.5489    4.8773 H   0  0  0  0  0  0  0  0  0  0  0  0
   13.7981   -0.9948    3.5973 H   0  0  0  0  0  0  0  0  0  0  0  0
   12.0625   -0.4724    3.9943 H   0  0  0  0  0  0  0  0  0  0  0  0
    7.3717    4.5502   -1.2500 H   0  0  0  0  0  0  0  0  0  0  0  0
    8.3537    1.5406    1.9873 H   0  0  0  0  0  0  0  0  0  0  0  0
    8.4912    3.2350    2.6006 H   0  0  0  0  0  0  0  0  0  0  0  0
   10.9564    3.9734    2.9238 H   0  0  0  0  0  0  0  0  0  0  0  0
   13.7566    3.7262    1.7319 H   0  0  0  0  0  0  0  0  0  0  0  0
   14.5014    2.0039    1.6360 H   0  0  0  0  0  0  0  0  0  0  0  0
   12.2117    0.1251    1.4629 H   0  0  0  0  0  0  0  0  0  0  0  0
   10.2984    0.1416    1.8467 H   0  0  0  0  0  0  0  0  0  0  0  0
    9.6888    4.5606   -4.9389 H   0  0  0  0  0  0  0  0  0  0  0  0
   13.4395    2.5284   -5.2765 H   0  0  0  0  0  0  0  0  0  0  0  0
   14.0665    4.1290   -4.7853 H   0  0  0  0  0  0  0  0  0  0  0  0
   11.6445    4.0603   -7.5333 H   0  0  0  0  0  0  0  0  0  0  0  0
   12.1952    4.0565   -9.9042 H   0  0  0  0  0  0  0  0  0  0  0  0
   14.5685    4.2296  -10.6056 H   0  0  0  0  0  0  0  0  0  0  0  0
   16.3608    4.4259   -8.8870 H   0  0  0  0  0  0  0  0  0  0  0  0
   15.8392    3.8846   -6.5222 H   0  0  0  0  0  0  0  0  0  0  0  0
   12.7183   -0.5981   -1.1384 H   0  0  0  0  0  0  0  0  0  0  0  0
   11.5252    0.1450   -0.1562 H   0  0  0  0  0  0  0  0  0  0  0  0
   13.2286    1.6236    0.1991 H   0  0  0  0  0  0  0  0  0  0  0  0
   14.5651    1.2165   -0.4274 H   0  0  0  0  0  0  0  0  0  0  0  0
   13.3936   -0.7472    1.9453 H   0  0  0  0  0  0  0  0  0  0  0  0
   14.7074    0.2864    2.3187 H   0  0  0  0  0  0  0  0  0  0  0  0
   14.7418   -1.1542    1.2242 H   0  0  0  0  0  0  0  0  0  0  0  0
  1  2  1  0  0  0  0
  1 51  1  0  0  0  0
  1 52  1  0  0  0  0
  1 53  1  0  0  0  0
  2  3  1  0  0  0  0
  2 54  1  0  0  0  0
  2 55  1  0  0  0  0
  3  4  1  0  0  0  0
  3 56  1  0  0  0  0
  3 57  1  0  0  0  0
  4  5  1  0  0  0  0
  4 48  1  0  0  0  0
  4 58  1  0  0  0  0
  5  6  2  0  0  0  0
  5  7  2  0  0  0  0
  5  8  1  0  0  0  0
  8 59  1  0  0  0  0
  8 60  1  0  0  0  0
  9 11  1  0  0  0  0
  9 37  1  0  0  0  0
  9 10  1  1  0  0  0
  9  8  1  0  0  0  0
 11 12  2  0  0  0  0
 11 13  1  0  0  0  0
 13 61  1  0  0  0  0
 14 16  1  0  0  0  0
 14 30  1  0  0  0  0
 14 15  1  1  0  0  0
 14 13  1  0  0  0  0
 16 17  1  1  0  0  0
 16 18  1  0  0  0  0
 16 29  1  0  0  0  0
 18 19  1  0  0  0  0
 18 62  1  0  0  0  0
 18 63  1  0  0  0  0
 19 20  1  0  0  0  0
 19 64  1  0  0  0  0
 20 21  1  0  0  0  0
 20 65  1  0  0  0  0
 20 66  1  0  0  0  0
 21 22  2  0  0  0  0
 21 26  1  0  0  0  0
 22 23  1  0  0  0  0
 22 67  1  0  0  0  0
 23 24  2  0  0  0  0
 23 68  1  0  0  0  0
 24 25  1  0  0  0  0
 24 69  1  0  0  0  0
 25 26  2  0  0  0  0
 25 27  1  0  0  0  0
 26 70  1  0  0  0  0
 27 28  1  0  0  0  0
 28 71  1  0  0  0  0
 28 72  1  0  0  0  0
 28 73  1  0  0  0  0
 29 74  1  0  0  0  0
 30 31  1  0  0  0  0
 30 75  1  0  0  0  0
 30 76  1  0  0  0  0
 31 32  2  0  0  0  0
 31 36  1  0  0  0  0
 32 33  1  0  0  0  0
 32 77  1  0  0  0  0
 33 34  2  0  0  0  0
 33 78  1  0  0  0  0
 34 35  1  0  0  0  0
 34 79  1  0  0  0  0
 35 36  2  0  0  0  0
 35 80  1  0  0  0  0
 36 81  1  0  0  0  0
 37 38  1  0  0  0  0
 37 82  1  0  0  0  0
 38 39  2  0  0  0  0
 38 40  1  0  0  0  0
 40 41  1  0  0  0  0
 41 42  1  0  0  0  0
 41 83  1  0  0  0  0
 41 84  1  0  0  0  0
 42 43  2  0  0  0  0
 42 47  1  0  0  0  0
 43 44  1  0  0  0  0
 43 85  1  0  0  0  0
 44 45  2  0  0  0  0
 44 86  1  0  0  0  0
 45 46  1  0  0  0  0
 45 87  1  0  0  0  0
 46 47  2  0  0  0  0
 46 88  1  0  0  0  0
 47 89  1  0  0  0  0
 48 49  1  0  0  0  0
 48 90  1  0  0  0  0
 48 91  1  0  0  0  0
 49 50  1  0  0  0  0
 49 92  1  0  0  0  0
 49 93  1  0  0  0  0
 50 94  1  0  0  0  0
 50 95  1  0  0  0  0
 50 96  1  0  0  0  0
M  END
$$$$
