LIT
 OpenBabel04121316143D

 23 24  0  0  0  0  0  0  0  0999 V2000
    1.0262   -0.1827    0.2738 O   0  0  0  0  0  0  0  0  0  0  0  0
    2.3527   -0.0409    0.0348 C   0  0  0  0  0  0  0  0  0  0  0  0
    2.7630    0.9229   -0.5970 O   0  0  0  0  0  0  0  0  0  0  0  0
    3.1422   -1.1353    0.7269 C   0  0  0  0  0  0  0  0  0  0  0  0
    4.9328   -0.8081    0.6865 S   0  0  0  0  0  0  0  0  0  0  0  0
    5.5930   -2.1893    1.5149 C   0  0  0  0  0  0  0  0  0  0  0  0
    6.6184   -2.1520    2.3445 N   0  0  0  0  0  0  0  0  0  0  0  0
    6.8922   -3.4664    2.7045 N   0  0  0  0  0  0  0  0  0  0  0  0
    6.0082   -4.2174    2.0743 C   0  0  0  0  0  0  0  0  0  0  0  0
    5.1535   -3.4647    1.3047 O   0  0  0  0  0  0  0  0  0  0  0  0
    5.9101   -5.6470    2.1378 C   0  0  0  0  0  0  0  0  0  0  0  0
    6.9155   -6.6071    2.1850 C   0  0  0  0  0  0  0  0  0  0  0  0
    6.2914   -7.8823    2.1527 C   0  0  0  0  0  0  0  0  0  0  0  0
    4.9451   -7.6260    2.1143 C   0  0  0  0  0  0  0  0  0  0  0  0
    4.6899   -6.2927    2.0905 O   0  0  0  0  0  0  0  0  0  0  0  0
    3.8238   -8.5124    2.0823 N   0  3  0  0  0  0  0  0  0  0  0  0
    4.0905   -9.7220    2.0872 O   0  0  0  0  0  0  0  0  0  0  0  0
    2.6901   -8.0189    2.0549 O   0  5  0  0  0  0  0  0  0  0  0  0
    0.6185    0.6837    0.0586 H   0  0  0  0  0  0  0  0  0  0  0  0
    2.8903   -2.0957    0.2658 H   0  0  0  0  0  0  0  0  0  0  0  0
    2.8191   -1.1289    1.7727 H   0  0  0  0  0  0  0  0  0  0  0  0
    7.9810   -6.4136    2.1981 H   0  0  0  0  0  0  0  0  0  0  0  0
    6.7500   -8.8621    2.1508 H   0  0  0  0  0  0  0  0  0  0  0  0
  1  2  1  0  0  0  0
  1 19  1  0  0  0  0
  2  3  2  0  0  0  0
  2  4  1  0  0  0  0
  4  5  1  0  0  0  0
  4 20  1  0  0  0  0
  4 21  1  0  0  0  0
  5  6  1  0  0  0  0
  6  7  2  0  0  0  0
  6 10  1  0  0  0  0
  7  8  1  0  0  0  0
  8  9  2  0  0  0  0
  9 10  1  0  0  0  0
  9 11  1  0  0  0  0
 11 12  2  0  0  0  0
 11 15  1  0  0  0  0
 12 13  1  0  0  0  0
 12 22  1  0  0  0  0
 13 14  2  0  0  0  0
 13 23  1  0  0  0  0
 14 15  1  0  0  0  0
 14 16  1  0  0  0  0
 16 17  2  0  0  0  0
 16 18  1  0  0  0  0
M  CHG  2  16   1  18  -1
M  END
$$$$
