LIV
 OpenBabel04121316143D

107111  0  0  1  0  0  0  0  0999 V2000
   -1.5212   -0.4045    2.6645 O   0  0  0  0  0  0  0  0  0  0  0  0
   -0.3555    0.3258    3.0107 C   0  0  0  0  0  0  0  0  0  0  0  0
    1.2404   -0.0753    2.9705 C   0  0  1  0  0  0  0  0  0  0  0  0
    1.6965    0.7602    3.4682 H   0  0  0  0  0  0  0  0  0  0  0  0
    1.4226   -0.9851    4.0176 O   0  0  0  0  0  0  0  0  0  0  0  0
    2.5727   -1.7714    3.8486 C   0  0  2  0  0  0  0  0  0  0  0  0
    3.3353   -1.3672    4.5208 H   0  0  0  0  0  0  0  0  0  0  0  0
    3.0285   -1.6699    2.3979 C   0  0  1  0  0  0  0  0  0  0  0  0
    2.6345   -2.5301    1.8568 H   0  0  0  0  0  0  0  0  0  0  0  0
    2.2763   -0.4659    1.7689 C   0  0  2  0  0  0  0  0  0  0  0  0
    1.9267   -1.0349    0.9192 H   0  0  0  0  0  0  0  0  0  0  0  0
    3.0696    0.5152    1.0987 O   0  0  0  0  0  0  0  0  0  0  0  0
    2.6131    1.6178    0.2498 C   0  0  1  0  0  0  0  0  0  0  0  0
    3.2785    1.6134   -0.6221 H   0  0  0  0  0  0  0  0  0  0  0  0
    1.3340    1.7010   -0.3797 O   0  0  0  0  0  0  0  0  0  0  0  0
    0.2162    1.5820    0.4867 C   0  0  1  0  0  0  0  0  0  0  0  0
   -0.7148    1.9227    0.0081 H   0  0  0  0  0  0  0  0  0  0  0  0
   -0.1222   -0.0570    0.3825 C   0  0  0  0  0  0  0  0  0  0  0  0
    0.4569   -0.5214   -0.8797 N   0  0  0  0  0  0  0  0  0  0  0  0
    0.4180    2.8113    1.6591 C   0  0  2  0  0  0  0  0  0  0  0  0
    0.1503    3.7269    1.1202 H   0  0  0  0  0  0  0  0  0  0  0  0
    1.8813    2.9724    2.1367 C   0  0  1  0  0  0  0  0  0  0  0  0
    2.1424    2.1878    2.8099 H   0  0  0  0  0  0  0  0  0  0  0  0
    2.9008    2.9080    1.0179 C   0  0  1  0  0  0  0  0  0  0  0  0
    2.7990    3.7990    0.3913 H   0  0  0  0  0  0  0  0  0  0  0  0
    4.2662    2.8414    1.5925 N   0  0  0  0  0  0  0  0  0  0  0  0
    2.1070    4.1208    2.9532 O   0  0  0  0  0  0  0  0  0  0  0  0
   -0.4538    2.7221    2.8046 O   0  0  0  0  0  0  0  0  0  0  0  0
   -0.6947    3.8057    3.6734 C   0  0  1  0  0  0  0  0  0  0  0  0
    0.2178    4.2151    4.0903 H   0  0  0  0  0  0  0  0  0  0  0  0
   -1.3598    4.7855    2.9053 O   0  0  0  0  0  0  0  0  0  0  0  0
   -2.5865    4.2663    2.3793 C   0  0  2  0  0  0  0  0  0  0  0  0
   -2.4297    3.3082    1.8597 H   0  0  0  0  0  0  0  0  0  0  0  0
   -3.0292    5.2358    1.2972 C   0  0  0  0  0  0  0  0  0  0  0  0
   -4.2822    4.9078    0.7269 O   0  0  0  0  0  0  0  0  0  0  0  0
   -3.5607    4.0209    3.5358 C   0  0  2  0  0  0  0  0  0  0  0  0
   -3.7214    4.9553    4.0838 H   0  0  0  0  0  0  0  0  0  0  0  0
   -2.9533    2.9789    4.4883 C   0  0  1  0  0  0  0  0  0  0  0  0
   -2.9277    1.9967    3.9978 H   0  0  0  0  0  0  0  0  0  0  0  0
   -1.5397    3.3754    4.9144 C   0  0  2  0  0  0  0  0  0  0  0  0
   -1.0799    2.5331    5.4480 H   0  0  0  0  0  0  0  0  0  0  0  0
   -1.5881    4.4644    5.8527 O   0  0  0  0  0  0  0  0  0  0  0  0
   -3.8013    2.8244    5.6359 O   0  0  0  0  0  0  0  0  0  0  0  0
   -4.8358    3.5230    3.1271 O   0  0  0  0  0  0  0  0  0  0  0  0
    4.4335   -1.7780    2.2651 O   0  0  0  0  0  0  0  0  0  0  0  0
    2.2238   -3.1246    4.2625 O   0  0  0  0  0  0  0  0  0  0  0  0
    0.8468   -3.3872    3.9021 C   0  0  2  0  0  0  0  0  0  0  0  0
    0.7424   -2.8444    2.9536 H   0  0  0  0  0  0  0  0  0  0  0  0
   -0.0997   -2.8998    5.0478 C   0  0  1  0  0  0  0  0  0  0  0  0
   -0.3675   -3.7127    5.7187 H   0  0  0  0  0  0  0  0  0  0  0  0
    0.3758   -1.8758    5.9316 O   0  0  0  0  0  0  0  0  0  0  0  0
   -1.3263   -2.4232    4.2950 C   0  0  2  0  0  0  0  0  0  0  0  0
   -0.9003   -1.9512    3.4297 H   0  0  0  0  0  0  0  0  0  0  0  0
   -2.1423   -1.4853    5.0628 N   0  0  0  0  0  0  0  0  0  0  0  0
   -2.0913   -3.5626    3.6727 C   0  0  0  0  0  0  0  0  0  0  0  0
   -1.1638   -4.3982    2.7633 C   0  0  1  0  0  0  0  0  0  0  0  0
   -0.9280   -3.8123    1.8578 H   0  0  0  0  0  0  0  0  0  0  0  0
    0.2367   -4.7543    3.4444 C   0  0  1  0  0  0  0  0  0  0  0  0
    0.0563   -5.4097    4.3044 H   0  0  0  0  0  0  0  0  0  0  0  0
    0.9687   -5.4947    2.4668 O   0  0  0  0  0  0  0  0  0  0  0  0
    2.3761   -5.3477    2.5238 C   0  0  1  0  0  0  0  0  0  0  0  0
    2.6192   -4.3263    2.2794 H   0  0  0  0  0  0  0  0  0  0  0  0
    2.8990   -5.6396    3.8127 O   0  0  0  0  0  0  0  0  0  0  0  0
    2.6914   -6.9955    4.1939 C   0  0  2  0  0  0  0  0  0  0  0  0
    1.6172   -7.2231    4.1947 H   0  0  0  0  0  0  0  0  0  0  0  0
    3.1802   -7.1590    5.6391 C   0  0  0  0  0  0  0  0  0  0  0  0
    3.0014   -8.4707    6.1529 O   0  0  0  0  0  0  0  0  0  0  0  0
    3.4079   -7.9152    3.1933 C   0  0  2  0  0  0  0  0  0  0  0  0
    4.4843   -7.7041    3.2281 H   0  0  0  0  0  0  0  0  0  0  0  0
    2.9031   -7.6553    1.7712 C   0  0  0  0  0  0  0  0  0  0  0  0
    3.0550   -6.1832    1.4206 C   0  0  1  0  0  0  0  0  0  0  0  0
    4.1217   -5.9272    1.4176 H   0  0  0  0  0  0  0  0  0  0  0  0
    2.5123   -5.8942    0.0839 N   0  0  0  0  0  0  0  0  0  0  0  0
    3.2032   -9.2905    3.4784 O   0  0  0  0  0  0  0  0  0  0  0  0
   -1.9407   -5.5483    2.2853 N   0  0  0  0  0  0  0  0  0  0  0  0
   -2.2333    0.1747    2.2648 H   0  0  0  0  0  0  0  0  0  0  0  0
   -0.5325    0.8641    3.9430 H   0  0  0  0  0  0  0  0  0  0  0  0
   -0.5342    0.9804    2.2258 H   0  0  0  0  0  0  0  0  0  0  0  0
    0.2629   -0.7467    1.1226 H   0  0  0  0  0  0  0  0  0  0  0  0
   -1.1630   -0.3896    0.4286 H   0  0  0  0  0  0  0  0  0  0  0  0
    1.4329   -0.1865   -0.8489 H   0  0  0  0  0  0  0  0  0  0  0  0
    0.0813    0.1284   -1.5675 H   0  0  0  0  0  0  0  0  0  0  0  0
    4.3866    1.8850    1.9549 H   0  0  0  0  0  0  0  0  0  0  0  0
    4.3044    3.4630    2.3990 H   0  0  0  0  0  0  0  0  0  0  0  0
    2.0790    3.8074    3.8794 H   0  0  0  0  0  0  0  0  0  0  0  0
   -2.2797    5.2279    0.4939 H   0  0  0  0  0  0  0  0  0  0  0  0
   -3.0532    6.2541    1.6926 H   0  0  0  0  0  0  0  0  0  0  0  0
   -4.2787    3.9714    0.4751 H   0  0  0  0  0  0  0  0  0  0  0  0
   -2.3031    4.2504    6.4849 H   0  0  0  0  0  0  0  0  0  0  0  0
   -4.7085    2.7321    5.2757 H   0  0  0  0  0  0  0  0  0  0  0  0
   -4.7055    2.7852    2.5100 H   0  0  0  0  0  0  0  0  0  0  0  0
    4.6716   -2.6228    2.7017 H   0  0  0  0  0  0  0  0  0  0  0  0
    1.3386   -1.8290    5.7929 H   0  0  0  0  0  0  0  0  0  0  0  0
   -1.4986   -0.7186    5.2967 H   0  0  0  0  0  0  0  0  0  0  0  0
   -2.3304   -1.9015    5.9699 H   0  0  0  0  0  0  0  0  0  0  0  0
   -2.9266   -3.1634    3.0786 H   0  0  0  0  0  0  0  0  0  0  0  0
   -2.5013   -4.1718    4.4793 H   0  0  0  0  0  0  0  0  0  0  0  0
    2.6360   -6.4706    6.2968 H   0  0  0  0  0  0  0  0  0  0  0  0
    4.2388   -6.8910    5.7179 H   0  0  0  0  0  0  0  0  0  0  0  0
    2.1223   -8.7876    5.8916 H   0  0  0  0  0  0  0  0  0  0  0  0
    1.8487   -7.9575    1.7034 H   0  0  0  0  0  0  0  0  0  0  0  0
    3.4471   -8.2858    1.0605 H   0  0  0  0  0  0  0  0  0  0  0  0
    1.5058   -6.0869    0.0963 H   0  0  0  0  0  0  0  0  0  0  0  0
    2.9189   -6.5262   -0.6029 H   0  0  0  0  0  0  0  0  0  0  0  0
    2.2478   -9.4386    3.5681 H   0  0  0  0  0  0  0  0  0  0  0  0
   -2.7785   -5.1951    1.8151 H   0  0  0  0  0  0  0  0  0  0  0  0
   -2.2803   -6.0795    3.0832 H   0  0  0  0  0  0  0  0  0  0  0  0
  1  2  1  0  0  0  0
  1 76  1  0  0  0  0
  2  3  1  0  0  0  0
  2 77  1  0  0  0  0
  2 78  1  0  0  0  0
  3  4  1  1  0  0  0
  3  5  1  0  0  0  0
  3 10  1  0  0  0  0
  5  6  1  0  0  0  0
  6  8  1  0  0  0  0
  6 46  1  0  0  0  0
  6  7  1  1  0  0  0
  8  9  1  6  0  0  0
  8 10  1  0  0  0  0
  8 45  1  0  0  0  0
 10 11  1  6  0  0  0
 10 12  1  0  0  0  0
 12 13  1  0  0  0  0
 13 14  1  6  0  0  0
 13 15  1  0  0  0  0
 13 24  1  0  0  0  0
 15 16  1  0  0  0  0
 16 20  1  0  0  0  0
 16 18  1  0  0  0  0
 16 17  1  6  0  0  0
 18 19  1  0  0  0  0
 18 79  1  0  0  0  0
 18 80  1  0  0  0  0
 19 81  1  0  0  0  0
 19 82  1  0  0  0  0
 20 22  1  0  0  0  0
 20 28  1  0  0  0  0
 20 21  1  6  0  0  0
 22 23  1  1  0  0  0
 22 24  1  0  0  0  0
 22 27  1  0  0  0  0
 24 26  1  0  0  0  0
 24 25  1  6  0  0  0
 26 83  1  0  0  0  0
 26 84  1  0  0  0  0
 27 85  1  0  0  0  0
 28 29  1  0  0  0  0
 29 30  1  1  0  0  0
 29 31  1  0  0  0  0
 29 40  1  0  0  0  0
 31 32  1  0  0  0  0
 32 33  1  6  0  0  0
 32 34  1  0  0  0  0
 32 36  1  0  0  0  0
 34 35  1  0  0  0  0
 34 86  1  0  0  0  0
 34 87  1  0  0  0  0
 35 88  1  0  0  0  0
 36 38  1  0  0  0  0
 36 44  1  0  0  0  0
 36 37  1  1  0  0  0
 38 39  1  6  0  0  0
 38 40  1  0  0  0  0
 38 43  1  0  0  0  0
 40 41  1  1  0  0  0
 40 42  1  0  0  0  0
 42 89  1  0  0  0  0
 43 90  1  0  0  0  0
 44 91  1  0  0  0  0
 45 92  1  0  0  0  0
 47 49  1  0  0  0  0
 47 58  1  0  0  0  0
 47 48  1  6  0  0  0
 47 46  1  0  0  0  0
 49 50  1  1  0  0  0
 49 51  1  0  0  0  0
 49 52  1  0  0  0  0
 51 93  1  0  0  0  0
 52 53  1  6  0  0  0
 52 54  1  0  0  0  0
 52 55  1  0  0  0  0
 54 94  1  0  0  0  0
 54 95  1  0  0  0  0
 55 56  1  0  0  0  0
 55 96  1  0  0  0  0
 55 97  1  0  0  0  0
 56 57  1  6  0  0  0
 56 58  1  0  0  0  0
 56 75  1  0  0  0  0
 58 60  1  0  0  0  0
 58 59  1  1  0  0  0
 60 61  1  0  0  0  0
 61 62  1  6  0  0  0
 61 63  1  0  0  0  0
 61 71  1  0  0  0  0
 63 64  1  0  0  0  0
 64 65  1  6  0  0  0
 64 66  1  0  0  0  0
 64 68  1  0  0  0  0
 66 67  1  0  0  0  0
 66 98  1  0  0  0  0
 66 99  1  0  0  0  0
 67100  1  0  0  0  0
 68 70  1  0  0  0  0
 68 74  1  0  0  0  0
 68 69  1  1  0  0  0
 70 71  1  0  0  0  0
 70101  1  0  0  0  0
 70102  1  0  0  0  0
 71 73  1  0  0  0  0
 71 72  1  6  0  0  0
 73103  1  0  0  0  0
 73104  1  0  0  0  0
 74105  1  0  0  0  0
 75106  1  0  0  0  0
 75107  1  0  0  0  0
M  END
$$$$
