LIY
 OpenBabel04121316143D

 62 65  0  0  1  0  0  0  0  0999 V2000
    0.9188   -0.0654   -0.0220 C   0  0  0  0  0  0  0  0  0  0  0  0
    2.3412   -0.0631   -0.0366 O   0  0  0  0  0  0  0  0  0  0  0  0
    2.8393   -0.7315   -1.1919 C   0  0  0  0  0  0  0  0  0  0  0  0
    4.3685   -0.7015   -1.1818 C   0  0  0  0  0  0  0  0  0  0  0  0
    4.8797   -1.5727   -2.3323 C   0  0  0  0  0  0  0  0  0  0  0  0
    6.3330   -1.5544   -2.6161 N   0  0  0  0  0  0  0  0  0  0  0  0
    7.1233   -2.7204   -2.5245 C   0  0  0  0  0  0  0  0  0  0  0  0
    6.5914   -3.9934   -2.2705 C   0  0  0  0  0  0  0  0  0  0  0  0
    7.3380   -4.9835   -1.6114 C   0  0  0  0  0  0  0  0  0  0  0  0
    8.7315   -4.8533   -1.6675 C   0  0  0  0  0  0  0  0  0  0  0  0
    9.3163   -3.7733   -2.3044 C   0  0  0  0  0  0  0  0  0  0  0  0
    8.5232   -2.6790   -2.6649 C   0  0  0  0  0  0  0  0  0  0  0  0
    9.2183   -1.4711   -3.2181 C   0  0  0  0  0  0  0  0  0  0  0  0
    8.2054   -0.4950   -3.7792 C   0  0  0  0  0  0  0  0  0  0  0  0
    7.0894   -0.2742   -2.7478 C   0  0  1  0  0  0  0  0  0  0  0  0
    7.5293   -0.0291   -1.7657 H   0  0  0  0  0  0  0  0  0  0  0  0
    6.2926    0.9403   -3.2181 C   0  0  0  0  0  0  0  0  0  0  0  0
    5.2350    0.8333   -4.1313 C   0  0  0  0  0  0  0  0  0  0  0  0
    4.5244    1.9430   -4.5683 C   0  0  0  0  0  0  0  0  0  0  0  0
    4.9170    3.2085   -4.1619 C   0  0  0  0  0  0  0  0  0  0  0  0
    5.9814    3.3542   -3.2731 C   0  0  0  0  0  0  0  0  0  0  0  0
    6.6720    2.2304   -2.8082 C   0  0  0  0  0  0  0  0  0  0  0  0
    6.7055   -6.1294   -0.8960 C   0  0  0  0  0  0  0  0  0  0  0  0
    7.1352   -7.4334   -1.2049 C   0  0  0  0  0  0  0  0  0  0  0  0
    8.2033   -7.6403   -2.0853 N   0  0  0  0  0  0  0  0  0  0  0  0
    6.6794   -8.5375   -0.6089 N   0  0  0  0  0  0  0  0  0  0  0  0
    5.7452   -8.3867    0.3313 C   0  0  0  0  0  0  0  0  0  0  0  0
    5.2555   -7.2056    0.7188 N   0  0  0  0  0  0  0  0  0  0  0  0
    5.7375   -6.0772    0.1361 C   0  0  0  0  0  0  0  0  0  0  0  0
    5.1093   -4.8540    0.7830 C   0  0  0  0  0  0  0  0  0  0  0  0
    5.6452   -3.5133    0.3941 C   0  0  0  0  0  0  0  0  0  0  0  0
    5.2747   -9.5087    0.9245 N   0  0  0  0  0  0  0  0  0  0  0  0
    0.5803    0.4517    0.8790 H   0  0  0  0  0  0  0  0  0  0  0  0
    0.5384   -1.0917   -0.0026 H   0  0  0  0  0  0  0  0  0  0  0  0
    0.5298    0.4618   -0.8986 H   0  0  0  0  0  0  0  0  0  0  0  0
    2.4636   -0.2311   -2.0930 H   0  0  0  0  0  0  0  0  0  0  0  0
    2.4775   -1.7673   -1.1890 H   0  0  0  0  0  0  0  0  0  0  0  0
    4.7282   -1.0463   -0.2122 H   0  0  0  0  0  0  0  0  0  0  0  0
    4.6978    0.3387   -1.2349 H   0  0  0  0  0  0  0  0  0  0  0  0
    4.3384   -1.3222   -3.2402 H   0  0  0  0  0  0  0  0  0  0  0  0
    4.4885   -2.5767   -2.1776 H   0  0  0  0  0  0  0  0  0  0  0  0
    5.5354   -4.1850   -2.4214 H   0  0  0  0  0  0  0  0  0  0  0  0
    9.3801   -5.6301   -1.2659 H   0  0  0  0  0  0  0  0  0  0  0  0
   10.3900   -3.7700   -2.4720 H   0  0  0  0  0  0  0  0  0  0  0  0
    9.8952   -1.7847   -4.0218 H   0  0  0  0  0  0  0  0  0  0  0  0
    9.8189   -1.0008   -2.4300 H   0  0  0  0  0  0  0  0  0  0  0  0
    7.7649   -0.9132   -4.6960 H   0  0  0  0  0  0  0  0  0  0  0  0
    8.7139    0.4323   -4.0617 H   0  0  0  0  0  0  0  0  0  0  0  0
    4.9491   -0.1278   -4.5389 H   0  0  0  0  0  0  0  0  0  0  0  0
    3.6882    1.8027   -5.2462 H   0  0  0  0  0  0  0  0  0  0  0  0
    4.4073    4.0792   -4.5619 H   0  0  0  0  0  0  0  0  0  0  0  0
    6.2790    4.3479   -2.9499 H   0  0  0  0  0  0  0  0  0  0  0  0
    7.5287    2.3749   -2.1512 H   0  0  0  0  0  0  0  0  0  0  0  0
    8.2421   -7.0081   -2.8757 H   0  0  0  0  0  0  0  0  0  0  0  0
    8.3647   -8.6161   -2.2896 H   0  0  0  0  0  0  0  0  0  0  0  0
    5.1733   -4.9233    1.8756 H   0  0  0  0  0  0  0  0  0  0  0  0
    4.0375   -4.8593    0.5330 H   0  0  0  0  0  0  0  0  0  0  0  0
    6.7356   -3.4540    0.4274 H   0  0  0  0  0  0  0  0  0  0  0  0
    5.2303   -2.6723    0.9409 H   0  0  0  0  0  0  0  0  0  0  0  0
    5.2628   -3.3766   -0.5981 H   0  0  0  0  0  0  0  0  0  0  0  0
    5.6976  -10.3808    0.6509 H   0  0  0  0  0  0  0  0  0  0  0  0
    4.5783   -9.4300    1.6477 H   0  0  0  0  0  0  0  0  0  0  0  0
  1  2  1  0  0  0  0
  1 33  1  0  0  0  0
  1 34  1  0  0  0  0
  1 35  1  0  0  0  0
  2  3  1  0  0  0  0
  3  4  1  0  0  0  0
  3 36  1  0  0  0  0
  3 37  1  0  0  0  0
  4  5  1  0  0  0  0
  4 38  1  0  0  0  0
  4 39  1  0  0  0  0
  5  6  1  0  0  0  0
  5 40  1  0  0  0  0
  5 41  1  0  0  0  0
  6  7  1  0  0  0  0
  6 15  1  0  0  0  0
  7  8  2  0  0  0  0
  7 12  1  0  0  0  0
  8  9  1  0  0  0  0
  8 42  1  0  0  0  0
  9 10  2  0  0  0  0
  9 23  1  0  0  0  0
 10 11  1  0  0  0  0
 10 43  1  0  0  0  0
 11 12  2  0  0  0  0
 11 44  1  0  0  0  0
 12 13  1  0  0  0  0
 13 14  1  0  0  0  0
 13 45  1  0  0  0  0
 13 46  1  0  0  0  0
 14 15  1  0  0  0  0
 14 47  1  0  0  0  0
 14 48  1  0  0  0  0
 15 16  1  1  0  0  0
 15 17  1  0  0  0  0
 17 18  2  0  0  0  0
 17 22  1  0  0  0  0
 18 19  1  0  0  0  0
 18 49  1  0  0  0  0
 19 20  2  0  0  0  0
 19 50  1  0  0  0  0
 20 21  1  0  0  0  0
 20 51  1  0  0  0  0
 21 22  2  0  0  0  0
 21 52  1  0  0  0  0
 22 53  1  0  0  0  0
 23 24  2  0  0  0  0
 23 29  1  0  0  0  0
 24 25  1  0  0  0  0
 24 26  1  0  0  0  0
 25 54  1  0  0  0  0
 25 55  1  0  0  0  0
 26 27  2  0  0  0  0
 27 28  1  0  0  0  0
 27 32  1  0  0  0  0
 28 29  2  0  0  0  0
 29 30  1  0  0  0  0
 30 31  1  0  0  0  0
 30 56  1  0  0  0  0
 30 57  1  0  0  0  0
 31 58  1  0  0  0  0
 31 59  1  0  0  0  0
 31 60  1  0  0  0  0
 32 61  1  0  0  0  0
 32 62  1  0  0  0  0
M  END
$$$$
