LIZ
 OpenBabel04121316153D

 94 95  0  0  1  0  0  0  0  0999 V2000
    0.9743   -0.0429    0.0607 O   0  0  0  0  0  0  0  0  0  0  0  0
    2.3959   -0.0959    0.0121 C   0  0  0  0  0  0  0  0  0  0  0  0
    2.9290   -1.2320    0.9105 C   0  0  0  0  0  0  0  0  0  0  0  0
    2.4940   -1.0293    2.3201 N   0  0  0  0  0  0  0  0  0  0  0  0
    2.8065    0.1300    3.0133 C   0  0  0  0  0  0  0  0  0  0  0  0
    3.8097    1.4007    2.4747 S   0  0  0  0  0  0  0  0  0  0  0  0
    2.3249    0.1641    4.2923 N   0  0  0  0  0  0  0  0  0  0  0  0
    2.4235    1.3244    5.0542 C   0  0  0  0  0  0  0  0  0  0  0  0
    1.7604    2.4995    4.7108 C   0  0  0  0  0  0  0  0  0  0  0  0
    2.0506    3.7432    5.2582 C   0  0  0  0  0  0  0  0  0  0  0  0
    2.6948    3.7740    6.4427 C   0  0  0  0  0  0  0  0  0  0  0  0
    2.9236    2.4820    7.0232 C   0  0  0  0  0  0  0  0  0  0  0  0
    3.0935    1.3039    6.2139 C   0  0  0  0  0  0  0  0  0  0  0  0
    3.3310    5.1214    6.8695 C   0  0  0  0  0  0  0  0  0  0  0  0
    4.3103    5.0242    7.9755 C   0  0  1  0  0  0  0  0  0  0  0  0
    3.9855    4.3768    8.7821 H   0  0  0  0  0  0  0  0  0  0  0  0
    5.3721    4.3644    7.2650 N   0  0  0  0  0  0  0  0  0  0  0  0
    6.2850    4.0345    8.7846 C   0  0  0  0  0  0  0  0  0  0  0  0
    6.8010    5.0947    8.7857 C   0  0  0  0  0  0  0  0  0  0  0  0
    6.5556    6.1400    7.8949 O   0  0  0  0  0  0  0  0  0  0  0  0
    8.7863    4.8429    9.0413 O   0  0  0  0  0  0  0  0  0  0  0  0
    4.9753    3.0474    6.3343 C   0  0  0  0  0  0  0  0  0  0  0  0
    5.8222    2.3366    5.4708 C   0  0  0  0  0  0  0  0  0  0  0  0
    6.6589    3.1601    5.2079 O   0  0  0  0  0  0  0  0  0  0  0  0
    5.8963    0.9932    5.6675 O   0  0  0  0  0  0  0  0  0  0  0  0
    4.7380    6.4396    8.6506 C   0  0  0  0  0  0  0  0  0  0  0  0
    6.0375    6.4760    9.8523 N   0  0  0  0  0  0  0  0  0  0  0  0
    7.8800    6.2000    9.1986 C   0  0  1  0  0  0  0  0  0  0  0  0
    8.3588    6.8645    8.4425 H   0  0  0  0  0  0  0  0  0  0  0  0
    7.7762    4.4459   10.4705 C   0  0  0  0  0  0  0  0  0  0  0  0
    6.9210    2.9518   10.5796 C   0  0  0  0  0  0  0  0  0  0  0  0
    6.9116    1.9891    9.2520 C   0  0  0  0  0  0  0  0  0  0  0  0
    6.7110    2.8059    7.6775 C   0  0  0  0  0  0  0  0  0  0  0  0
    7.7104    4.7002    7.4048 C   0  0  2  0  0  0  0  0  0  0  0  0
    7.0859    5.2698    6.4741 H   0  0  0  0  0  0  0  0  0  0  0  0
    8.8533    4.1465    6.8794 N   0  0  0  0  0  0  0  0  0  0  0  0
    8.6923    3.3135    5.6927 C   0  0  0  0  0  0  0  0  0  0  0  0
    8.2995    1.6753    5.9414 C   0  0  0  0  0  0  0  0  0  0  0  0
    8.1356    0.9893    6.9560 O   0  0  0  0  0  0  0  0  0  0  0  0
    7.9631    1.0818    4.7169 O   0  0  0  0  0  0  0  0  0  0  0  0
    9.5123    5.3822    6.6823 C   0  0  0  0  0  0  0  0  0  0  0  0
   10.8353    4.8731    6.3132 C   0  0  0  0  0  0  0  0  0  0  0  0
   11.1604    3.6938    6.2806 O   0  0  0  0  0  0  0  0  0  0  0  0
   11.6818    5.8508    6.0241 O   0  0  0  0  0  0  0  0  0  0  0  0
    6.3976    7.7136   10.3281 C   0  0  0  0  0  0  0  0  0  0  0  0
    7.4690    7.3438   11.4036 C   0  0  0  0  0  0  0  0  0  0  0  0
    7.8882    6.2939   11.8310 O   0  0  0  0  0  0  0  0  0  0  0  0
    8.1240    8.3874   11.8598 O   0  0  0  0  0  0  0  0  0  0  0  0
    2.4123   -2.5709    0.3510 C   0  0  0  0  0  0  0  0  0  0  0  0
    0.9938   -2.6696    0.3371 O   0  0  0  0  0  0  0  0  0  0  0  0
    4.4704   -1.2864    0.8789 C   0  0  0  0  0  0  0  0  0  0  0  0
    4.9605   -2.3441    1.7019 O   0  0  0  0  0  0  0  0  0  0  0  0
    0.6885    0.6848   -0.5121 H   0  0  0  0  0  0  0  0  0  0  0  0
    2.7344    0.8811    0.3267 H   0  0  0  0  0  0  0  0  0  0  0  0
    2.7555   -0.2091   -1.0118 H   0  0  0  0  0  0  0  0  0  0  0  0
    1.8819   -1.7401    2.7102 H   0  0  0  0  0  0  0  0  0  0  0  0
    1.7533   -0.5607    4.6995 H   0  0  0  0  0  0  0  0  0  0  0  0
    0.9445    2.4352    4.0272 H   0  0  0  0  0  0  0  0  0  0  0  0
    1.7055    4.6828    4.8720 H   0  0  0  0  0  0  0  0  0  0  0  0
    3.5070    2.5243    7.9413 H   0  0  0  0  0  0  0  0  0  0  0  0
    3.8533    0.5168    6.3974 H   0  0  0  0  0  0  0  0  0  0  0  0
    2.5369    5.6967    7.2764 H   0  0  0  0  0  0  0  0  0  0  0  0
    3.8422    5.6800    6.0367 H   0  0  0  0  0  0  0  0  0  0  0  0
    7.7088    3.4983    8.6274 H   0  0  0  0  0  0  0  0  0  0  0  0
    5.6550    3.9856    9.5495 H   0  0  0  0  0  0  0  0  0  0  0  0
    9.2718    5.0767   10.0839 H   0  0  0  0  0  0  0  0  0  0  0  0
    4.4930    3.3437    5.4054 H   0  0  0  0  0  0  0  0  0  0  0  0
    4.8906    2.1118    6.9861 H   0  0  0  0  0  0  0  0  0  0  0  0
    5.3048    0.4045    5.2026 H   0  0  0  0  0  0  0  0  0  0  0  0
    3.8646    6.8470    9.0968 H   0  0  0  0  0  0  0  0  0  0  0  0
    4.9833    7.0876    7.7807 H   0  0  0  0  0  0  0  0  0  0  0  0
    7.8376    4.5486   11.5098 H   0  0  0  0  0  0  0  0  0  0  0  0
    8.6381    3.5732   10.0383 H   0  0  0  0  0  0  0  0  0  0  0  0
    5.9258    3.2857   10.9343 H   0  0  0  0  0  0  0  0  0  0  0  0
    7.5042    2.3835   11.2838 H   0  0  0  0  0  0  0  0  0  0  0  0
    6.0926    1.2589    9.2998 H   0  0  0  0  0  0  0  0  0  0  0  0
    7.9145    1.7256    8.9907 H   0  0  0  0  0  0  0  0  0  0  0  0
    5.3520    2.8020    8.2722 H   0  0  0  0  0  0  0  0  0  0  0  0
    6.6811    1.9874    7.1200 H   0  0  0  0  0  0  0  0  0  0  0  0
    9.5922    3.0045    5.2136 H   0  0  0  0  0  0  0  0  0  0  0  0
    8.1854    3.9676    4.9106 H   0  0  0  0  0  0  0  0  0  0  0  0
    7.6067    1.6705    4.0124 H   0  0  0  0  0  0  0  0  0  0  0  0
    9.6638    5.9112    7.6268 H   0  0  0  0  0  0  0  0  0  0  0  0
    8.9278    6.0409    6.0187 H   0  0  0  0  0  0  0  0  0  0  0  0
   11.2897    6.7216    6.1970 H   0  0  0  0  0  0  0  0  0  0  0  0
    5.4702    8.0656   10.7039 H   0  0  0  0  0  0  0  0  0  0  0  0
    6.8003    8.1626    9.4179 H   0  0  0  0  0  0  0  0  0  0  0  0
    7.6907    9.1705   11.5232 H   0  0  0  0  0  0  0  0  0  0  0  0
    2.7801   -3.4066    0.9466 H   0  0  0  0  0  0  0  0  0  0  0  0
    2.7704   -2.6919   -0.6790 H   0  0  0  0  0  0  0  0  0  0  0  0
    0.6700   -2.4116    1.2147 H   0  0  0  0  0  0  0  0  0  0  0  0
    4.9358   -0.3821    1.2473 H   0  0  0  0  0  0  0  0  0  0  0  0
    4.8437   -1.3946   -0.1376 H   0  0  0  0  0  0  0  0  0  0  0  0
    4.6080   -2.1903    2.5990 H   0  0  0  0  0  0  0  0  0  0  0  0
  1  2  1  0  0  0  0
  1 53  1  0  0  0  0
  2  3  1  0  0  0  0
  2 54  1  0  0  0  0
  2 55  1  0  0  0  0
  3  4  1  0  0  0  0
  3 49  1  0  0  0  0
  3 51  1  0  0  0  0
  4  5  1  0  0  0  0
  4 56  1  0  0  0  0
  5  6  2  0  0  0  0
  5  7  1  0  0  0  0
  7  8  1  0  0  0  0
  7 57  1  0  0  0  0
  8  9  2  0  0  0  0
  8 13  1  0  0  0  0
  9 10  1  0  0  0  0
  9 58  1  0  0  0  0
 10 11  2  0  0  0  0
 10 59  1  0  0  0  0
 11 12  1  0  0  0  0
 11 14  1  0  0  0  0
 12 13  2  0  0  0  0
 12 60  1  0  0  0  0
 13 61  1  0  0  0  0
 14 15  1  0  0  0  0
 14 62  1  0  0  0  0
 14 63  1  0  0  0  0
 15 16  1  1  0  0  0
 15 17  1  0  0  0  0
 15 26  1  0  0  0  0
 17 18  1  0  0  0  0
 17 22  1  0  0  0  0
 18 19  1  0  0  0  0
 18 64  1  0  0  0  0
 18 65  1  0  0  0  0
 19 20  2  0  0  0  0
 19 21  1  0  0  0  0
 21 66  1  0  0  0  0
 22 23  1  0  0  0  0
 22 67  1  0  0  0  0
 22 68  1  0  0  0  0
 23 24  2  0  0  0  0
 23 25  1  0  0  0  0
 25 69  1  0  0  0  0
 26 27  1  0  0  0  0
 26 70  1  0  0  0  0
 26 71  1  0  0  0  0
 27 28  1  0  0  0  0
 27 45  1  0  0  0  0
 28 29  1  1  0  0  0
 28 30  1  0  0  0  0
 28 34  1  0  0  0  0
 30 31  1  0  0  0  0
 30 72  1  0  0  0  0
 30 73  1  0  0  0  0
 31 32  1  0  0  0  0
 31 74  1  0  0  0  0
 31 75  1  0  0  0  0
 32 33  1  0  0  0  0
 32 76  1  0  0  0  0
 32 77  1  0  0  0  0
 33 34  1  0  0  0  0
 33 78  1  0  0  0  0
 33 79  1  0  0  0  0
 34 35  1  6  0  0  0
 34 36  1  0  0  0  0
 36 37  1  0  0  0  0
 36 41  1  0  0  0  0
 37 38  1  0  0  0  0
 37 80  1  0  0  0  0
 37 81  1  0  0  0  0
 38 39  2  0  0  0  0
 38 40  1  0  0  0  0
 40 82  1  0  0  0  0
 41 42  1  0  0  0  0
 41 83  1  0  0  0  0
 41 84  1  0  0  0  0
 42 43  2  0  0  0  0
 42 44  1  0  0  0  0
 44 85  1  0  0  0  0
 45 46  1  0  0  0  0
 45 86  1  0  0  0  0
 45 87  1  0  0  0  0
 46 47  2  0  0  0  0
 46 48  1  0  0  0  0
 48 88  1  0  0  0  0
 49 50  1  0  0  0  0
 49 89  1  0  0  0  0
 49 90  1  0  0  0  0
 50 91  1  0  0  0  0
 51 52  1  0  0  0  0
 51 92  1  0  0  0  0
 51 93  1  0  0  0  0
 52 94  1  0  0  0  0
M  END
$$$$
