LJ4
 OpenBabel04121316153D

 24 25  0  0  0  0  0  0  0  0999 V2000
    0.8678    0.1041    0.0516 Br  0  0  0  0  0  0  0  0  0  0  0  0
    2.7628   -0.0046    0.0399 C   0  0  0  0  0  0  0  0  0  0  0  0
    3.5160    1.1917    0.0584 C   0  0  0  0  0  0  0  0  0  0  0  0
    4.9129    1.1401    0.1808 C   0  0  0  0  0  0  0  0  0  0  0  0
    5.6189    2.3339    0.1601 O   0  0  0  0  0  0  0  0  0  0  0  0
    7.0035    2.4030    0.0462 C   0  0  0  0  0  0  0  0  0  0  0  0
    7.5854    3.6777    0.1249 C   0  0  0  0  0  0  0  0  0  0  0  0
    8.9740    3.8289   -0.0563 C   0  0  0  0  0  0  0  0  0  0  0  0
    9.8141    2.7231   -0.1387 C   0  0  0  0  0  0  0  0  0  0  0  0
    9.2602    1.4574   -0.1153 C   0  0  0  0  0  0  0  0  0  0  0  0
    7.8800    1.3474   -0.1921 C   0  0  0  0  0  0  0  0  0  0  0  0
    5.4680   -0.1171    0.3772 C   0  0  0  0  0  0  0  0  0  0  0  0
    4.7693   -1.2949    0.1828 C   0  0  0  0  0  0  0  0  0  0  0  0
    3.3942   -1.2516    0.0522 C   0  0  0  0  0  0  0  0  0  0  0  0
    2.6889   -2.4212    0.0121 O   0  0  0  0  0  0  0  0  0  0  0  0
    5.7503   -2.9159    0.1526 Br  0  0  0  0  0  0  0  0  0  0  0  0
    3.0065    2.1519    0.0278 H   0  0  0  0  0  0  0  0  0  0  0  0
    6.9725    4.5616    0.2694 H   0  0  0  0  0  0  0  0  0  0  0  0
    9.4107    4.8234   -0.1409 H   0  0  0  0  0  0  0  0  0  0  0  0
   10.8848    2.8202   -0.2781 H   0  0  0  0  0  0  0  0  0  0  0  0
    9.8699    0.5619   -0.1315 H   0  0  0  0  0  0  0  0  0  0  0  0
    7.5623    0.3692   -0.5253 H   0  0  0  0  0  0  0  0  0  0  0  0
    6.4712   -0.2435    0.7528 H   0  0  0  0  0  0  0  0  0  0  0  0
    3.3358   -3.1509    0.0733 H   0  0  0  0  0  0  0  0  0  0  0  0
  1  2  1  0  0  0  0
  2  3  2  0  0  0  0
  2 14  1  0  0  0  0
  3  4  1  0  0  0  0
  3 17  1  0  0  0  0
  4  5  1  0  0  0  0
  4 12  2  0  0  0  0
  5  6  1  0  0  0  0
  6  7  2  0  0  0  0
  6 11  1  0  0  0  0
  7  8  1  0  0  0  0
  7 18  1  0  0  0  0
  8  9  2  0  0  0  0
  8 19  1  0  0  0  0
  9 10  1  0  0  0  0
  9 20  1  0  0  0  0
 10 11  2  0  0  0  0
 10 21  1  0  0  0  0
 11 22  1  0  0  0  0
 12 13  1  0  0  0  0
 12 23  1  0  0  0  0
 13 14  2  0  0  0  0
 13 16  1  0  0  0  0
 14 15  1  0  0  0  0
 15 24  1  0  0  0  0
M  END
$$$$
