LJG
 OpenBabel04121316153D

 74 75  0  0  0  0  0  0  0  0999 V2000
    1.4830   -0.1139   -0.3624 C   0  0  0  0  0  0  0  0  0  0  0  0
    2.9050   -0.0663   -0.1030 C   0  0  0  0  0  0  0  0  0  0  0  0
    3.0568   -0.9338    1.1214 C   0  0  0  0  0  0  0  0  0  0  0  0
    2.3114   -0.3852    2.3479 N   0  0  0  0  0  0  0  0  0  0  0  0
    0.4595   -0.4396    2.3965 S   0  0  0  0  0  0  0  0  0  0  0  0
    0.0359   -1.7819    2.1480 O   0  0  0  0  0  0  0  0  0  0  0  0
    0.1792    0.2523    3.6384 O   0  0  0  0  0  0  0  0  0  0  0  0
   -0.5036    0.7893    1.2483 C   0  0  0  0  0  0  0  0  0  0  0  0
   -1.0840    0.3056    0.0507 C   0  0  0  0  0  0  0  0  0  0  0  0
   -0.9810    1.1229   -1.1145 C   0  0  0  0  0  0  0  0  0  0  0  0
   -0.5555    2.4624   -1.0439 C   0  0  0  0  0  0  0  0  0  0  0  0
   -0.2250    2.9820    0.2173 C   0  0  0  0  0  0  0  0  0  0  0  0
   -0.1243    2.1449    1.3447 C   0  0  0  0  0  0  0  0  0  0  0  0
   -0.0952    3.1314   -2.1907 N   0  0  0  0  0  0  0  0  0  0  0  0
    2.9115   -1.2204    3.4931 C   0  0  0  0  0  0  0  0  0  0  0  0
    2.5612   -0.7452    4.8794 C   0  0  0  0  0  0  0  0  0  0  0  0
    3.1751   -1.5993    5.9110 N   0  0  0  0  0  0  0  0  0  0  0  0
    2.6652   -1.1206    7.1853 C   0  0  0  0  0  0  0  0  0  0  0  0
    2.9352   -1.9872    8.3866 C   0  0  0  0  0  0  0  0  0  0  0  0
    2.2360   -1.4665    9.6672 N   0  0  0  0  0  0  0  0  0  0  0  0
    0.4055   -1.5373    9.5310 S   0  0  0  0  0  0  0  0  0  0  0  0
    0.0916   -2.9016    9.1663 O   0  0  0  0  0  0  0  0  0  0  0  0
   -0.3567   -0.8636   10.5577 O   0  0  0  0  0  0  0  0  0  0  0  0
   -0.0134   -0.4340    8.2620 C   0  0  0  0  0  0  0  0  0  0  0  0
   -0.5759   -0.9567    7.1259 C   0  0  0  0  0  0  0  0  0  0  0  0
   -0.7033   -0.0848    6.0779 C   0  0  0  0  0  0  0  0  0  0  0  0
   -0.3757    1.2889    6.1848 C   0  0  0  0  0  0  0  0  0  0  0  0
   -0.0693    1.8151    7.4252 C   0  0  0  0  0  0  0  0  0  0  0  0
    0.1870    0.9425    8.4621 C   0  0  0  0  0  0  0  0  0  0  0  0
   -0.5377    2.1595    5.0942 N   0  0  0  0  0  0  0  0  0  0  0  0
    2.8381   -2.3611   10.7681 C   0  0  0  0  0  0  0  0  0  0  0  0
    2.5225   -1.9298   12.1968 C   0  0  0  0  0  0  0  0  0  0  0  0
    1.0487   -1.9395   12.4405 C   0  0  0  0  0  0  0  0  0  0  0  0
    3.0910   -2.8392   13.2542 C   0  0  0  0  0  0  0  0  0  0  0  0
    3.3323   -0.5609   -1.4463 C   0  0  0  0  0  0  0  0  0  0  0  0
    1.2595    0.4430    0.4937 H   0  0  0  0  0  0  0  0  0  0  0  0
    1.0182   -1.1126   -0.3730 H   0  0  0  0  0  0  0  0  0  0  0  0
    1.2061    0.5157   -1.1873 H   0  0  0  0  0  0  0  0  0  0  0  0
    3.1702    0.9827    0.1088 H   0  0  0  0  0  0  0  0  0  0  0  0
    4.1333   -0.9623    1.3342 H   0  0  0  0  0  0  0  0  0  0  0  0
    2.7161   -1.9617    0.9639 H   0  0  0  0  0  0  0  0  0  0  0  0
   -1.2014   -0.7697   -0.0923 H   0  0  0  0  0  0  0  0  0  0  0  0
   -0.9235    0.6205   -2.0896 H   0  0  0  0  0  0  0  0  0  0  0  0
    0.1136    4.0120    0.2980 H   0  0  0  0  0  0  0  0  0  0  0  0
    0.4375    2.5005    2.2070 H   0  0  0  0  0  0  0  0  0  0  0  0
   -0.3952    2.7827   -3.0948 H   0  0  0  0  0  0  0  0  0  0  0  0
   -0.0895    4.1458   -2.1336 H   0  0  0  0  0  0  0  0  0  0  0  0
    4.0096   -1.1962    3.4257 H   0  0  0  0  0  0  0  0  0  0  0  0
    2.6080   -2.2662    3.3610 H   0  0  0  0  0  0  0  0  0  0  0  0
    1.4897   -0.8479    4.9880 H   0  0  0  0  0  0  0  0  0  0  0  0
    2.8342    0.3075    5.0197 H   0  0  0  0  0  0  0  0  0  0  0  0
    4.1862   -1.5581    5.8841 H   0  0  0  0  0  0  0  0  0  0  0  0
    1.6196   -1.2154    7.0346 H   0  0  0  0  0  0  0  0  0  0  0  0
    2.9116   -0.0702    7.3767 H   0  0  0  0  0  0  0  0  0  0  0  0
    4.0247   -2.0104    8.5222 H   0  0  0  0  0  0  0  0  0  0  0  0
    2.6108   -3.0189    8.2004 H   0  0  0  0  0  0  0  0  0  0  0  0
   -0.7316   -2.0252    6.9966 H   0  0  0  0  0  0  0  0  0  0  0  0
   -0.9496   -0.5752    5.1455 H   0  0  0  0  0  0  0  0  0  0  0  0
    0.0047    2.8860    7.5677 H   0  0  0  0  0  0  0  0  0  0  0  0
    0.5306    1.3235    9.4200 H   0  0  0  0  0  0  0  0  0  0  0  0
   -0.2960    1.6283    4.2485 H   0  0  0  0  0  0  0  0  0  0  0  0
    0.0098    3.0107    5.1485 H   0  0  0  0  0  0  0  0  0  0  0  0
    3.9380   -2.3298   10.6653 H   0  0  0  0  0  0  0  0  0  0  0  0
    2.5542   -3.4022   10.5716 H   0  0  0  0  0  0  0  0  0  0  0  0
    2.8927   -0.9050   12.3329 H   0  0  0  0  0  0  0  0  0  0  0  0
    0.5562   -2.8352   12.0308 H   0  0  0  0  0  0  0  0  0  0  0  0
    0.8302   -1.0191   11.9559 H   0  0  0  0  0  0  0  0  0  0  0  0
    0.6603   -1.7101   13.4273 H   0  0  0  0  0  0  0  0  0  0  0  0
    2.7197   -3.8591   13.1101 H   0  0  0  0  0  0  0  0  0  0  0  0
    2.7423   -2.4904   14.2340 H   0  0  0  0  0  0  0  0  0  0  0  0
    4.1791   -2.8325   13.2413 H   0  0  0  0  0  0  0  0  0  0  0  0
    2.8882   -1.5502   -1.6247 H   0  0  0  0  0  0  0  0  0  0  0  0
    4.4032   -0.5714   -1.5323 H   0  0  0  0  0  0  0  0  0  0  0  0
    2.9032    0.1049   -2.2178 H   0  0  0  0  0  0  0  0  0  0  0  0
  1  2  1  0  0  0  0
  1 36  1  0  0  0  0
  1 37  1  0  0  0  0
  1 38  1  0  0  0  0
  2  3  1  0  0  0  0
  2 35  1  0  0  0  0
  2 39  1  0  0  0  0
  3  4  1  0  0  0  0
  3 40  1  0  0  0  0
  3 41  1  0  0  0  0
  4  5  1  0  0  0  0
  4 15  1  0  0  0  0
  5  6  2  0  0  0  0
  5  7  2  0  0  0  0
  5  8  1  0  0  0  0
  8  9  2  0  0  0  0
  8 13  1  0  0  0  0
  9 10  1  0  0  0  0
  9 42  1  0  0  0  0
 10 11  2  0  0  0  0
 10 43  1  0  0  0  0
 11 12  1  0  0  0  0
 11 14  1  0  0  0  0
 12 13  2  0  0  0  0
 12 44  1  0  0  0  0
 13 45  1  0  0  0  0
 14 46  1  0  0  0  0
 14 47  1  0  0  0  0
 15 16  1  0  0  0  0
 15 48  1  0  0  0  0
 15 49  1  0  0  0  0
 16 17  1  0  0  0  0
 16 50  1  0  0  0  0
 16 51  1  0  0  0  0
 17 18  1  0  0  0  0
 17 52  1  0  0  0  0
 18 19  1  0  0  0  0
 18 53  1  0  0  0  0
 18 54  1  0  0  0  0
 19 20  1  0  0  0  0
 19 55  1  0  0  0  0
 19 56  1  0  0  0  0
 20 21  1  0  0  0  0
 20 31  1  0  0  0  0
 21 22  2  0  0  0  0
 21 23  2  0  0  0  0
 21 24  1  0  0  0  0
 24 25  2  0  0  0  0
 24 29  1  0  0  0  0
 25 26  1  0  0  0  0
 25 57  1  0  0  0  0
 26 27  2  0  0  0  0
 26 58  1  0  0  0  0
 27 28  1  0  0  0  0
 27 30  1  0  0  0  0
 28 29  2  0  0  0  0
 28 59  1  0  0  0  0
 29 60  1  0  0  0  0
 30 61  1  0  0  0  0
 30 62  1  0  0  0  0
 31 32  1  0  0  0  0
 31 63  1  0  0  0  0
 31 64  1  0  0  0  0
 32 33  1  0  0  0  0
 32 34  1  0  0  0  0
 32 65  1  0  0  0  0
 33 66  1  0  0  0  0
 33 67  1  0  0  0  0
 33 68  1  0  0  0  0
 34 69  1  0  0  0  0
 34 70  1  0  0  0  0
 34 71  1  0  0  0  0
 35 72  1  0  0  0  0
 35 73  1  0  0  0  0
 35 74  1  0  0  0  0
M  END
$$$$
