LK1
 OpenBabel04121316153D

 51 52  0  0  1  0  0  0  0  0999 V2000
   20.4751   -2.9483   13.7950 C   0  0  0  0  0  0  0  0  0  0  0  0
   19.5675   -2.5915   12.6392 C   0  0  0  0  0  0  0  0  0  0  0  0
   19.9902   -3.3531   11.3975 C   0  0  0  0  0  0  0  0  0  0  0  0
   19.0924   -2.9881   10.2418 C   0  0  0  0  0  0  0  0  0  0  0  0
   19.5552   -3.7315    9.1243 O   0  0  0  0  0  0  0  0  0  0  0  0
   18.8541   -3.4673    7.9886 C   0  0  0  0  0  0  0  0  0  0  0  0
   18.3555   -2.2058    7.6517 C   0  0  0  0  0  0  0  0  0  0  0  0
   17.6787   -2.0033    6.4602 C   0  0  0  0  0  0  0  0  0  0  0  0
   17.5285   -3.0582    5.5809 C   0  0  0  0  0  0  0  0  0  0  0  0
   18.0456   -4.3393    5.9276 C   0  0  0  0  0  0  0  0  0  0  0  0
   18.7013   -4.5420    7.1314 C   0  0  0  0  0  0  0  0  0  0  0  0
   17.8929   -5.3972    5.0617 C   0  0  0  0  0  0  0  0  0  0  0  0
   17.2056   -5.1668    3.8871 C   0  0  0  0  0  0  0  0  0  0  0  0
   16.6964   -3.9204    3.5311 C   0  0  0  0  0  0  0  0  0  0  0  0
   16.8724   -2.8445    4.3721 C   0  0  0  0  0  0  0  0  0  0  0  0
   15.6745   -3.7412    2.1007 S   0  0  0  0  0  0  0  0  0  0  0  0
   14.4377   -3.1168    2.5085 O   0  0  0  0  0  0  0  0  0  0  0  0
   16.5135   -3.2266    1.0407 O   0  0  0  0  0  0  0  0  0  0  0  0
   15.2693   -5.3160    1.7023 N   0  0  0  0  0  0  0  0  0  0  0  0
   14.4058   -6.1701    2.5614 C   0  0  2  0  0  0  0  0  0  0  0  0
   13.3669   -6.0292    2.2296 H   0  0  0  0  0  0  0  0  0  0  0  0
   14.3747   -5.9185    4.0768 C   0  0  0  0  0  0  0  0  0  0  0  0
   14.7065   -6.7612    4.9028 O   0  0  0  0  0  0  0  0  0  0  0  0
   14.0085   -4.6806    4.4733 O   0  0  0  0  0  0  0  0  0  0  0  0
   14.7651   -7.6659    2.2936 C   0  0  0  0  0  0  0  0  0  0  0  0
   16.2472   -8.0483    2.4811 C   0  0  0  0  0  0  0  0  0  0  0  0
   16.5268   -9.5042    2.2582 C   0  0  0  0  0  0  0  0  0  0  0  0
   15.6794  -10.3332    1.9766 O   0  0  0  0  0  0  0  0  0  0  0  0
   17.8361   -9.8132    2.4144 O   0  0  0  0  0  0  0  0  0  0  0  0
   20.1719   -2.4066   14.6935 H   0  0  0  0  0  0  0  0  0  0  0  0
   21.5127   -2.6875   13.5629 H   0  0  0  0  0  0  0  0  0  0  0  0
   20.4283   -4.0222   14.0006 H   0  0  0  0  0  0  0  0  0  0  0  0
   19.6121   -1.5118   12.4509 H   0  0  0  0  0  0  0  0  0  0  0  0
   18.5282   -2.8348   12.8890 H   0  0  0  0  0  0  0  0  0  0  0  0
   19.9561   -4.4363   11.5625 H   0  0  0  0  0  0  0  0  0  0  0  0
   21.0284   -3.1159   11.1306 H   0  0  0  0  0  0  0  0  0  0  0  0
   19.1826   -1.9102   10.0773 H   0  0  0  0  0  0  0  0  0  0  0  0
   18.0474   -3.2466   10.4565 H   0  0  0  0  0  0  0  0  0  0  0  0
   18.4974   -1.3430    8.2880 H   0  0  0  0  0  0  0  0  0  0  0  0
   17.2884   -1.0181    6.2264 H   0  0  0  0  0  0  0  0  0  0  0  0
   19.0867   -5.5200    7.4137 H   0  0  0  0  0  0  0  0  0  0  0  0
   18.2563   -6.3951    5.2954 H   0  0  0  0  0  0  0  0  0  0  0  0
   16.9861   -6.0149    3.2884 H   0  0  0  0  0  0  0  0  0  0  0  0
   16.4889   -1.8657    4.0994 H   0  0  0  0  0  0  0  0  0  0  0  0
   15.9565   -5.7491    1.0878 H   0  0  0  0  0  0  0  0  0  0  0  0
   13.8319   -4.0084    3.7696 H   0  0  0  0  0  0  0  0  0  0  0  0
   14.4614   -7.9337    1.2742 H   0  0  0  0  0  0  0  0  0  0  0  0
   14.1673   -8.2976    2.9633 H   0  0  0  0  0  0  0  0  0  0  0  0
   16.5519   -7.8718    3.5159 H   0  0  0  0  0  0  0  0  0  0  0  0
   16.8812   -7.4840    1.7854 H   0  0  0  0  0  0  0  0  0  0  0  0
   18.4264   -9.0764    2.6661 H   0  0  0  0  0  0  0  0  0  0  0  0
  1  2  1  0  0  0  0
  1 30  1  0  0  0  0
  1 31  1  0  0  0  0
  1 32  1  0  0  0  0
  2  3  1  0  0  0  0
  2 33  1  0  0  0  0
  2 34  1  0  0  0  0
  3  4  1  0  0  0  0
  3 35  1  0  0  0  0
  3 36  1  0  0  0  0
  4  5  1  0  0  0  0
  4 37  1  0  0  0  0
  4 38  1  0  0  0  0
  5  6  1  0  0  0  0
  6  7  2  0  0  0  0
  6 11  1  0  0  0  0
  7  8  1  0  0  0  0
  7 39  1  0  0  0  0
  8  9  2  0  0  0  0
  8 40  1  0  0  0  0
  9 10  1  0  0  0  0
  9 15  1  0  0  0  0
 10 11  2  0  0  0  0
 10 12  1  0  0  0  0
 11 41  1  0  0  0  0
 12 13  2  0  0  0  0
 12 42  1  0  0  0  0
 13 14  1  0  0  0  0
 13 43  1  0  0  0  0
 14 15  2  0  0  0  0
 14 16  1  0  0  0  0
 15 44  1  0  0  0  0
 16 17  2  0  0  0  0
 16 18  2  0  0  0  0
 16 19  1  0  0  0  0
 19 45  1  0  0  0  0
 20 22  1  0  0  0  0
 20 25  1  0  0  0  0
 20 21  1  6  0  0  0
 20 19  1  0  0  0  0
 22 23  2  0  0  0  0
 22 24  1  0  0  0  0
 24 46  1  0  0  0  0
 25 26  1  0  0  0  0
 25 47  1  0  0  0  0
 25 48  1  0  0  0  0
 26 27  1  0  0  0  0
 26 49  1  0  0  0  0
 26 50  1  0  0  0  0
 27 28  2  0  0  0  0
 27 29  1  0  0  0  0
 29 51  1  0  0  0  0
M  END
$$$$
