LL1
 OpenBabel04121316153D

 24 26  0  0  0  0  0  0  0  0999 V2000
   -1.4499    0.0116    0.0290 N   0  0  0  0  0  0  0  0  0  0  0  0
   -0.7638    1.1776    0.0366 C   0  0  0  0  0  0  0  0  0  0  0  0
    0.6202    1.2702   -0.0377 C   0  0  0  0  0  0  0  0  0  0  0  0
    1.3694    0.0968   -0.0321 C   0  0  0  0  0  0  0  0  0  0  0  0
    0.6646   -1.1042    0.0947 C   0  0  0  0  0  0  0  0  0  0  0  0
   -0.7157   -1.1059    0.0460 C   0  0  0  0  0  0  0  0  0  0  0  0
    2.8361    0.1111   -0.1825 C   0  0  0  0  0  0  0  0  0  0  0  0
    3.5216    1.2695   -0.2636 N   0  0  0  0  0  0  0  0  0  0  0  0
    4.8040    0.8973   -0.4275 N   0  0  0  0  0  0  0  0  0  0  0  0
    5.5057    1.6205   -0.5215 H   0  0  0  0  0  0  0  0  0  0  0  0
    4.9996   -0.4565   -0.4491 C   0  0  0  0  0  0  0  0  0  0  0  0
    3.7335   -1.0067   -0.3092 C   0  0  0  0  0  0  0  0  0  0  0  0
    3.6258   -2.4151   -0.3331 C   0  0  0  0  0  0  0  0  0  0  0  0
    4.7620   -3.2108   -0.4433 C   0  0  0  0  0  0  0  0  0  0  0  0
    6.0112   -2.6262   -0.5686 C   0  0  0  0  0  0  0  0  0  0  0  0
    6.1600   -1.2332   -0.5872 C   0  0  0  0  0  0  0  0  0  0  0  0
   -1.3823    2.0644    0.1104 H   0  0  0  0  0  0  0  0  0  0  0  0
    1.0941    2.2465   -0.0883 H   0  0  0  0  0  0  0  0  0  0  0  0
    1.1361   -2.0534    0.2432 H   0  0  0  0  0  0  0  0  0  0  0  0
   -1.2585   -2.0476    0.0258 H   0  0  0  0  0  0  0  0  0  0  0  0
    2.6829   -2.9352   -0.2743 H   0  0  0  0  0  0  0  0  0  0  0  0
    4.6446   -4.2918   -0.4350 H   0  0  0  0  0  0  0  0  0  0  0  0
    6.8825   -3.2689   -0.6619 H   0  0  0  0  0  0  0  0  0  0  0  0
    7.1408   -0.7866   -0.7014 H   0  0  0  0  0  0  0  0  0  0  0  0
  1  2  2  0  0  0  0
  1  6  1  0  0  0  0
  2  3  1  0  0  0  0
  2 17  1  0  0  0  0
  3  4  2  0  0  0  0
  3 18  1  0  0  0  0
  4  5  1  0  0  0  0
  4  7  1  0  0  0  0
  5  6  2  0  0  0  0
  5 19  1  0  0  0  0
  6 20  1  0  0  0  0
  7  8  2  0  0  0  0
  7 12  1  0  0  0  0
  8  9  1  0  0  0  0
  9 10  1  0  0  0  0
  9 11  1  0  0  0  0
 11 12  2  0  0  0  0
 11 16  1  0  0  0  0
 12 13  1  0  0  0  0
 13 14  2  0  0  0  0
 13 21  1  0  0  0  0
 14 15  1  0  0  0  0
 14 22  1  0  0  0  0
 15 16  2  0  0  0  0
 15 23  1  0  0  0  0
 16 24  1  0  0  0  0
M  END
$$$$
