LLB
 OpenBabel04121316153D

 64 68  0  0  0  0  0  0  0  0999 V2000
    0.8800    0.0857    0.1327 C   0  0  0  0  0  0  0  0  0  0  0  0
    2.4105    0.0737    0.0744 C   0  0  0  0  0  0  0  0  0  0  0  0
    2.9144   -1.3270   -0.3055 C   0  0  0  0  0  0  0  0  0  0  0  0
    2.5359   -1.6671   -1.7522 C   0  0  0  0  0  0  0  0  0  0  0  0
    3.0182   -0.6586   -2.7115 N   0  0  0  0  0  0  0  0  0  0  0  0
    2.5086    0.6837   -2.3653 C   0  0  0  0  0  0  0  0  0  0  0  0
    2.9024    1.1096   -0.9466 C   0  0  0  0  0  0  0  0  0  0  0  0
    4.4865   -0.6958   -2.7495 C   0  0  0  0  0  0  0  0  0  0  0  0
    5.0662    0.2593   -3.7703 C   0  0  0  0  0  0  0  0  0  0  0  0
    6.4829    0.1695   -3.6283 O   0  0  0  0  0  0  0  0  0  0  0  0
    7.0669    1.0904   -4.4330 C   0  0  0  0  0  0  0  0  0  0  0  0
    6.8799    2.4571   -4.2611 C   0  0  0  0  0  0  0  0  0  0  0  0
    7.2835    3.3002   -5.2761 C   0  0  0  0  0  0  0  0  0  0  0  0
    8.0711    2.7933   -6.3175 C   0  0  0  0  0  0  0  0  0  0  0  0
    8.5622    1.5007   -6.2230 C   0  0  0  0  0  0  0  0  0  0  0  0
    7.9003    0.5993   -5.4152 C   0  0  0  0  0  0  0  0  0  0  0  0
    8.2748    3.6399   -7.5017 C   0  0  0  0  0  0  0  0  0  0  0  0
    7.8555    4.7940   -7.3329 O   0  0  0  0  0  0  0  0  0  0  0  0
    8.8442    3.1594   -8.7807 C   0  0  0  0  0  0  0  0  0  0  0  0
    9.5345    3.9952   -9.6616 C   0  0  0  0  0  0  0  0  0  0  0  0
   10.1446    3.1506  -11.0230 S   0  0  0  0  0  0  0  0  0  0  0  0
    9.5666    1.6595  -10.4788 C   0  0  0  0  0  0  0  0  0  0  0  0
    8.7883    1.7960   -9.3316 C   0  0  0  0  0  0  0  0  0  0  0  0
    8.1294    0.6135   -8.9001 C   0  0  0  0  0  0  0  0  0  0  0  0
    8.4566   -0.6388   -9.4076 C   0  0  0  0  0  0  0  0  0  0  0  0
    9.2496   -0.7140  -10.5291 C   0  0  0  0  0  0  0  0  0  0  0  0
    9.7810    0.4249  -11.1108 C   0  0  0  0  0  0  0  0  0  0  0  0
    9.4869   -1.9089  -11.1332 O   0  0  0  0  0  0  0  0  0  0  0  0
    9.8021    5.4399   -9.6433 C   0  0  0  0  0  0  0  0  0  0  0  0
    8.8074    6.3489   -9.2716 C   0  0  0  0  0  0  0  0  0  0  0  0
    9.0066    7.7164   -9.3353 C   0  0  0  0  0  0  0  0  0  0  0  0
   10.2147    8.1909   -9.8110 C   0  0  0  0  0  0  0  0  0  0  0  0
   11.2418    7.3246  -10.1565 C   0  0  0  0  0  0  0  0  0  0  0  0
   11.0289    5.9516  -10.0930 C   0  0  0  0  0  0  0  0  0  0  0  0
   10.3973    9.5256   -9.9935 O   0  0  0  0  0  0  0  0  0  0  0  0
    0.5162   -0.6571    0.8460 H   0  0  0  0  0  0  0  0  0  0  0  0
    0.4199   -0.1521   -0.8314 H   0  0  0  0  0  0  0  0  0  0  0  0
    0.5151    1.0745    0.4206 H   0  0  0  0  0  0  0  0  0  0  0  0
    2.8026    0.3347    1.0643 H   0  0  0  0  0  0  0  0  0  0  0  0
    2.5088   -2.0844    0.3732 H   0  0  0  0  0  0  0  0  0  0  0  0
    4.0037   -1.3755   -0.1759 H   0  0  0  0  0  0  0  0  0  0  0  0
    1.4475   -1.7548   -1.8466 H   0  0  0  0  0  0  0  0  0  0  0  0
    2.9199   -2.6594   -2.0178 H   0  0  0  0  0  0  0  0  0  0  0  0
    1.4193    0.6936   -2.4819 H   0  0  0  0  0  0  0  0  0  0  0  0
    2.8308    1.4410   -3.0870 H   0  0  0  0  0  0  0  0  0  0  0  0
    2.4920    2.1007   -0.7239 H   0  0  0  0  0  0  0  0  0  0  0  0
    3.9923    1.2222   -0.8688 H   0  0  0  0  0  0  0  0  0  0  0  0
    4.8356   -1.7102   -2.9814 H   0  0  0  0  0  0  0  0  0  0  0  0
    4.9477   -0.4571   -1.7838 H   0  0  0  0  0  0  0  0  0  0  0  0
    4.7430    1.2824   -3.5599 H   0  0  0  0  0  0  0  0  0  0  0  0
    4.7431   -0.0208   -4.7811 H   0  0  0  0  0  0  0  0  0  0  0  0
    6.3735    2.8606   -3.3923 H   0  0  0  0  0  0  0  0  0  0  0  0
    6.9806    4.3466   -5.2581 H   0  0  0  0  0  0  0  0  0  0  0  0
    9.3408    1.1383   -6.8797 H   0  0  0  0  0  0  0  0  0  0  0  0
    8.0095   -0.4701   -5.5699 H   0  0  0  0  0  0  0  0  0  0  0  0
    7.4005    0.6384   -8.0981 H   0  0  0  0  0  0  0  0  0  0  0  0
    8.0579   -1.5208   -8.9180 H   0  0  0  0  0  0  0  0  0  0  0  0
   10.3557    0.3688  -12.0290 H   0  0  0  0  0  0  0  0  0  0  0  0
    8.9992   -2.5903  -10.6427 H   0  0  0  0  0  0  0  0  0  0  0  0
    7.8236    6.0272   -8.9553 H   0  0  0  0  0  0  0  0  0  0  0  0
    8.1919    8.3655   -9.0355 H   0  0  0  0  0  0  0  0  0  0  0  0
   12.1971    7.7042  -10.4998 H   0  0  0  0  0  0  0  0  0  0  0  0
   11.8174    5.2901  -10.4470 H   0  0  0  0  0  0  0  0  0  0  0  0
    9.5413    9.9534   -9.8227 H   0  0  0  0  0  0  0  0  0  0  0  0
  1  2  1  0  0  0  0
  1 36  1  0  0  0  0
  1 37  1  0  0  0  0
  1 38  1  0  0  0  0
  2  3  1  0  0  0  0
  2  7  1  0  0  0  0
  2 39  1  0  0  0  0
  3  4  1  0  0  0  0
  3 40  1  0  0  0  0
  3 41  1  0  0  0  0
  4  5  1  0  0  0  0
  4 42  1  0  0  0  0
  4 43  1  0  0  0  0
  5  6  1  0  0  0  0
  5  8  1  0  0  0  0
  6  7  1  0  0  0  0
  6 44  1  0  0  0  0
  6 45  1  0  0  0  0
  7 46  1  0  0  0  0
  7 47  1  0  0  0  0
  8  9  1  0  0  0  0
  8 48  1  0  0  0  0
  8 49  1  0  0  0  0
  9 10  1  0  0  0  0
  9 50  1  0  0  0  0
  9 51  1  0  0  0  0
 10 11  1  0  0  0  0
 11 12  2  0  0  0  0
 11 16  1  0  0  0  0
 12 13  1  0  0  0  0
 12 52  1  0  0  0  0
 13 14  2  0  0  0  0
 13 53  1  0  0  0  0
 14 15  1  0  0  0  0
 14 17  1  0  0  0  0
 15 16  2  0  0  0  0
 15 54  1  0  0  0  0
 16 55  1  0  0  0  0
 17 18  2  0  0  0  0
 17 19  1  0  0  0  0
 19 20  2  0  0  0  0
 19 23  1  0  0  0  0
 20 21  1  0  0  0  0
 20 29  1  0  0  0  0
 21 22  1  0  0  0  0
 22 23  2  0  0  0  0
 22 27  1  0  0  0  0
 23 24  1  0  0  0  0
 24 25  2  0  0  0  0
 24 56  1  0  0  0  0
 25 26  1  0  0  0  0
 25 57  1  0  0  0  0
 26 27  2  0  0  0  0
 26 28  1  0  0  0  0
 27 58  1  0  0  0  0
 28 59  1  0  0  0  0
 29 30  2  0  0  0  0
 29 34  1  0  0  0  0
 30 31  1  0  0  0  0
 30 60  1  0  0  0  0
 31 32  2  0  0  0  0
 31 61  1  0  0  0  0
 32 33  1  0  0  0  0
 32 35  1  0  0  0  0
 33 34  2  0  0  0  0
 33 62  1  0  0  0  0
 34 63  1  0  0  0  0
 35 64  1  0  0  0  0
M  END
$$$$
