LLT
 OpenBabel04121316153D

 31 32  0  0  1  0  0  0  0  0999 V2000
    4.3570    1.2490    0.3882 O   0  0  0  0  0  0  0  0  0  0  0  0
    4.3089    0.0982    1.2398 C   0  0  0  0  0  0  0  0  0  0  0  0
    2.8320   -0.2976    1.3873 C   0  0  2  0  0  0  0  0  0  0  0  0
    2.3179   -0.0565    0.4492 H   0  0  0  0  0  0  0  0  0  0  0  0
    2.2375    0.5054    2.4381 O   0  0  0  0  0  0  0  0  0  0  0  0
    2.3178   -0.2582    3.6633 C   0  0  1  0  0  0  0  0  0  0  0  0
    1.5090    0.0893    4.3174 H   0  0  0  0  0  0  0  0  0  0  0  0
    2.0492   -1.6876    3.2151 C   0  0  0  0  0  0  0  0  0  0  0  0
    2.5725   -1.7489    1.7910 C   0  0  1  0  0  0  0  0  0  0  0  0
    3.4555   -2.3837    1.6740 H   0  0  0  0  0  0  0  0  0  0  0  0
    1.5419   -2.3152    0.9676 O   0  0  0  0  0  0  0  0  0  0  0  0
    3.5906    0.0612    4.3490 N   0  0  0  0  0  0  0  0  0  0  0  0
    3.8914    1.4056    4.5782 C   0  0  0  0  0  0  0  0  0  0  0  0
    5.1205    1.8062    4.9391 C   0  0  0  0  0  0  0  0  0  0  0  0
    5.6019    3.2168    4.9974 C   0  0  0  0  0  0  0  0  0  0  0  0
    6.1241    0.7663    5.2501 C   0  0  0  0  0  0  0  0  0  0  0  0
    7.3079    1.0267    5.4427 O   0  0  0  0  0  0  0  0  0  0  0  0
    5.6498   -0.5029    5.2983 N   0  0  0  0  0  0  0  0  0  0  0  0
    6.3328   -1.2278    5.4521 H   0  0  0  0  0  0  0  0  0  0  0  0
    4.5301   -0.9172    4.6472 C   0  0  0  0  0  0  0  0  0  0  0  0
    4.4774   -2.1032    4.3331 O   0  0  0  0  0  0  0  0  0  0  0  0
    5.2770    1.5551    0.3480 H   0  0  0  0  0  0  0  0  0  0  0  0
    4.7704    0.3962    2.1805 H   0  0  0  0  0  0  0  0  0  0  0  0
    4.9170   -0.6912    0.7908 H   0  0  0  0  0  0  0  0  0  0  0  0
    0.9697   -1.8798    3.2343 H   0  0  0  0  0  0  0  0  0  0  0  0
    2.4543   -2.4722    3.8515 H   0  0  0  0  0  0  0  0  0  0  0  0
    0.7632   -1.7302    1.0205 H   0  0  0  0  0  0  0  0  0  0  0  0
    3.1101    2.1296    4.3502 H   0  0  0  0  0  0  0  0  0  0  0  0
    4.8114    3.9318    4.7549 H   0  0  0  0  0  0  0  0  0  0  0  0
    6.4138    3.3631    4.2739 H   0  0  0  0  0  0  0  0  0  0  0  0
    5.9881    3.4497    5.9944 H   0  0  0  0  0  0  0  0  0  0  0  0
  1  2  1  0  0  0  0
  1 22  1  0  0  0  0
  2 23  1  0  0  0  0
  2 24  1  0  0  0  0
  3  5  1  0  0  0  0
  3  9  1  0  0  0  0
  3  4  1  6  0  0  0
  3  2  1  0  0  0  0
  5  6  1  0  0  0  0
  6  7  1  1  0  0  0
  6  8  1  0  0  0  0
  6 12  1  0  0  0  0
  8  9  1  0  0  0  0
  8 25  1  0  0  0  0
  8 26  1  0  0  0  0
  9 11  1  0  0  0  0
  9 10  1  6  0  0  0
 11 27  1  0  0  0  0
 12 13  1  0  0  0  0
 12 20  1  0  0  0  0
 13 14  2  0  0  0  0
 13 28  1  0  0  0  0
 14 15  1  0  0  0  0
 14 16  1  0  0  0  0
 15 29  1  0  0  0  0
 15 30  1  0  0  0  0
 15 31  1  0  0  0  0
 16 17  2  0  0  0  0
 16 18  1  0  0  0  0
 18 19  1  0  0  0  0
 18 20  1  0  0  0  0
 20 21  2  0  0  0  0
M  END
$$$$
