LLX
 OpenBabel04121316153D

 38 40  0  0  0  0  0  0  0  0999 V2000
    0.9772    0.2036    0.0585 O   0  0  0  0  0  0  0  0  0  0  0  0
    2.1876    0.1148   -0.0553 C   0  0  0  0  0  0  0  0  0  0  0  0
    2.7500   -1.0557   -0.7963 C   0  0  0  0  0  0  0  0  0  0  0  0
    3.7856   -0.9450   -1.7370 C   0  0  0  0  0  0  0  0  0  0  0  0
    4.4094   -2.0975   -2.2291 C   0  0  0  0  0  0  0  0  0  0  0  0
    4.0333   -3.3546   -1.7534 C   0  0  0  0  0  0  0  0  0  0  0  0
    3.0512   -3.4634   -0.7687 C   0  0  0  0  0  0  0  0  0  0  0  0
    2.3674   -2.3257   -0.3330 C   0  0  0  0  0  0  0  0  0  0  0  0
    3.0136    1.0779    0.5166 N   0  0  0  0  0  0  0  0  0  0  0  0
    4.4237    1.1100    0.6462 C   0  0  0  0  0  0  0  0  0  0  0  0
    5.0565    2.3556    0.5760 C   0  0  0  0  0  0  0  0  0  0  0  0
    6.4508    2.4507    0.3539 C   0  0  0  0  0  0  0  0  0  0  0  0
    7.1853    1.2571    0.2860 C   0  0  0  0  0  0  0  0  0  0  0  0
    6.5874    0.0350    0.5185 C   0  0  0  0  0  0  0  0  0  0  0  0
    5.2235   -0.0383    0.7525 C   0  0  0  0  0  0  0  0  0  0  0  0
    4.7456   -1.2773    1.2057 N   0  0  0  0  0  0  0  0  0  0  0  0
    7.1215    3.7452    0.1138 C   0  0  0  0  0  0  0  0  0  0  0  0
    6.5624    4.9529    0.5545 C   0  0  0  0  0  0  0  0  0  0  0  0
    7.0933    6.1776    0.1536 C   0  0  0  0  0  0  0  0  0  0  0  0
    8.2781    6.2197   -0.5736 C   0  0  0  0  0  0  0  0  0  0  0  0
    8.9341    5.0405   -0.8966 C   0  0  0  0  0  0  0  0  0  0  0  0
    8.3299    3.8203   -0.6086 C   0  0  0  0  0  0  0  0  0  0  0  0
    4.2041    0.0262   -1.9942 H   0  0  0  0  0  0  0  0  0  0  0  0
    5.2399   -2.0109   -2.9267 H   0  0  0  0  0  0  0  0  0  0  0  0
    4.5379   -4.2473   -2.1167 H   0  0  0  0  0  0  0  0  0  0  0  0
    2.8630   -4.4234   -0.2928 H   0  0  0  0  0  0  0  0  0  0  0  0
    1.6416   -2.4101    0.4742 H   0  0  0  0  0  0  0  0  0  0  0  0
    2.4992    1.9191    0.7570 H   0  0  0  0  0  0  0  0  0  0  0  0
    4.4486    3.2564    0.6210 H   0  0  0  0  0  0  0  0  0  0  0  0
    8.2536    1.2482    0.0987 H   0  0  0  0  0  0  0  0  0  0  0  0
    7.1906   -0.8662    0.5488 H   0  0  0  0  0  0  0  0  0  0  0  0
    5.0130   -2.0108    0.5490 H   0  0  0  0  0  0  0  0  0  0  0  0
    3.7447   -1.2646    1.3554 H   0  0  0  0  0  0  0  0  0  0  0  0
    5.6909    4.9600    1.2038 H   0  0  0  0  0  0  0  0  0  0  0  0
    6.5756    7.0957    0.4136 H   0  0  0  0  0  0  0  0  0  0  0  0
    8.6929    7.1724   -0.8846 H   0  0  0  0  0  0  0  0  0  0  0  0
    9.8978    5.0587   -1.3972 H   0  0  0  0  0  0  0  0  0  0  0  0
    8.8203    2.9275   -0.9883 H   0  0  0  0  0  0  0  0  0  0  0  0
  1  2  2  0  0  0  0
  2  3  1  0  0  0  0
  2  9  1  0  0  0  0
  3  4  2  0  0  0  0
  3  8  1  0  0  0  0
  4  5  1  0  0  0  0
  4 23  1  0  0  0  0
  5  6  2  0  0  0  0
  5 24  1  0  0  0  0
  6  7  1  0  0  0  0
  6 25  1  0  0  0  0
  7  8  2  0  0  0  0
  7 26  1  0  0  0  0
  8 27  1  0  0  0  0
  9 10  1  0  0  0  0
  9 28  1  0  0  0  0
 10 11  2  0  0  0  0
 10 15  1  0  0  0  0
 11 12  1  0  0  0  0
 11 29  1  0  0  0  0
 12 13  2  0  0  0  0
 12 17  1  0  0  0  0
 13 14  1  0  0  0  0
 13 30  1  0  0  0  0
 14 15  2  0  0  0  0
 14 31  1  0  0  0  0
 15 16  1  0  0  0  0
 16 32  1  0  0  0  0
 16 33  1  0  0  0  0
 17 18  2  0  0  0  0
 17 22  1  0  0  0  0
 18 19  1  0  0  0  0
 18 34  1  0  0  0  0
 19 20  2  0  0  0  0
 19 35  1  0  0  0  0
 20 21  1  0  0  0  0
 20 36  1  0  0  0  0
 21 22  2  0  0  0  0
 21 37  1  0  0  0  0
 22 38  1  0  0  0  0
M  END
$$$$
