LMR
 OpenBabel04121316153D

 15 14  0  0  1  0  0  0  0  0999 V2000
    1.0273   -0.0455   -0.3320 O   0  0  0  0  0  0  0  0  0  0  0  0
    2.3478    0.1003   -0.1656 C   0  0  0  0  0  0  0  0  0  0  0  0
    2.8099    1.0821    0.4041 O   0  0  0  0  0  0  0  0  0  0  0  0
    3.1463   -1.0035   -0.7816 C   0  0  0  0  0  0  0  0  0  0  0  0
    4.6455   -0.7802   -0.5989 C   0  0  1  0  0  0  0  0  0  0  0  0
    4.9599    0.2089   -0.9529 H   0  0  0  0  0  0  0  0  0  0  0  0
    5.1052   -0.9416    0.8708 C   0  0  0  0  0  0  0  0  0  0  0  0
    5.8937   -1.7966    1.2533 O   0  0  0  0  0  0  0  0  0  0  0  0
    4.6073   -0.0399    1.7492 O   0  0  0  0  0  0  0  0  0  0  0  0
    5.3319   -1.7471   -1.4102 O   0  0  0  0  0  0  0  0  0  0  0  0
    0.6265    0.7965   -0.0268 H   0  0  0  0  0  0  0  0  0  0  0  0
    2.9087   -1.0031   -1.8531 H   0  0  0  0  0  0  0  0  0  0  0  0
    2.8453   -1.9721   -0.3699 H   0  0  0  0  0  0  0  0  0  0  0  0
    4.0163    0.6589    1.3836 H   0  0  0  0  0  0  0  0  0  0  0  0
    5.0907   -1.6303   -2.3423 H   0  0  0  0  0  0  0  0  0  0  0  0
  1  2  1  0  0  0  0
  1 11  1  0  0  0  0
  2  3  2  0  0  0  0
  2  4  1  0  0  0  0
  4  5  1  0  0  0  0
  4 12  1  0  0  0  0
  4 13  1  0  0  0  0
  5  6  1  6  0  0  0
  5  7  1  0  0  0  0
  5 10  1  0  0  0  0
  7  8  2  0  0  0  0
  7  9  1  0  0  0  0
  9 14  1  0  0  0  0
 10 15  1  0  0  0  0
M  END
$$$$
