LMS
 OpenBabel04121316153D

 37 39  0  0  1  0  0  0  0  0999 V2000
    2.9379    0.1786   -1.2781 O   0  0  0  0  0  0  0  0  0  0  0  0
    2.4777    0.0572    0.0779 C   0  0  2  0  0  0  0  0  0  0  0  0
    1.3864    0.0919    0.0278 H   0  0  0  0  0  0  0  0  0  0  0  0
    3.0174    1.1793    0.9488 C   0  0  2  0  0  0  0  0  0  0  0  0
    2.3754    1.2638    1.8321 H   0  0  0  0  0  0  0  0  0  0  0  0
    3.0690    2.4397    0.3044 O   0  0  0  0  0  0  0  0  0  0  0  0
    4.3874    0.6528    1.3308 C   0  0  2  0  0  0  0  0  0  0  0  0
    5.1001    0.7822    0.5046 H   0  0  0  0  0  0  0  0  0  0  0  0
    4.2250   -0.7689    1.4943 O   0  0  0  0  0  0  0  0  0  0  0  0
    3.0392   -1.1966    0.7782 C   0  0  1  0  0  0  0  0  0  0  0  0
    3.3420   -1.9674    0.0579 H   0  0  0  0  0  0  0  0  0  0  0  0
    2.0773   -1.8310    1.6719 N   0  0  0  0  0  0  0  0  0  0  0  0
    0.7983   -2.1705    1.2886 C   0  0  0  0  0  0  0  0  0  0  0  0
    0.1022   -2.6917    2.2717 N   0  0  0  0  0  0  0  0  0  0  0  0
    0.9835   -2.7449    3.3287 C   0  0  0  0  0  0  0  0  0  0  0  0
    2.2238   -2.2319    2.9744 C   0  0  0  0  0  0  0  0  0  0  0  0
    3.3042   -2.1493    3.7674 N   0  0  0  0  0  0  0  0  0  0  0  0
    3.0497   -2.6346    4.9989 C   0  0  0  0  0  0  0  0  0  0  0  0
    1.8935   -3.1439    5.4787 N   0  0  0  0  0  0  0  0  0  0  0  0
    0.8315   -3.2074    4.6462 C   0  0  0  0  0  0  0  0  0  0  0  0
   -0.3595   -3.7089    5.1205 N   0  0  0  0  0  0  0  0  0  0  0  0
    5.0073    1.3285    2.5588 C   0  0  0  0  0  0  0  0  0  0  0  0
    4.0481    1.6752    3.5571 O   0  0  0  0  0  0  0  0  0  0  0  0
    4.6369    2.4659    4.8497 S   0  0  0  0  0  0  0  0  0  0  0  0
    5.4563    1.5388    5.5963 O   0  0  0  0  0  0  0  0  0  0  0  0
    5.1261    3.7476    4.4085 O   0  0  0  0  0  0  0  0  0  0  0  0
    3.2880    2.7681    5.7815 N   0  0  0  0  0  0  0  0  0  0  0  0
    3.9028    0.0646   -1.3149 H   0  0  0  0  0  0  0  0  0  0  0  0
    3.4623    2.3201   -0.5790 H   0  0  0  0  0  0  0  0  0  0  0  0
    0.4183   -1.9969    0.2887 H   0  0  0  0  0  0  0  0  0  0  0  0
    3.8793   -2.6065    5.7004 H   0  0  0  0  0  0  0  0  0  0  0  0
   -0.3990   -4.0521    6.0659 H   0  0  0  0  0  0  0  0  0  0  0  0
   -1.1440   -3.7764    4.4873 H   0  0  0  0  0  0  0  0  0  0  0  0
    5.7556    0.6676    3.0084 H   0  0  0  0  0  0  0  0  0  0  0  0
    5.5007    2.2503    2.2281 H   0  0  0  0  0  0  0  0  0  0  0  0
    2.8611    1.9207    6.1449 H   0  0  0  0  0  0  0  0  0  0  0  0
    2.6592    3.4475    5.3614 H   0  0  0  0  0  0  0  0  0  0  0  0
  1 28  1  0  0  0  0
  2  4  1  0  0  0  0
  2 10  1  0  0  0  0
  2  3  1  1  0  0  0
  2  1  1  0  0  0  0
  4  7  1  0  0  0  0
  4  6  1  0  0  0  0
  4  5  1  1  0  0  0
  6 29  1  0  0  0  0
  7  9  1  0  0  0  0
  7 22  1  0  0  0  0
  7  8  1  6  0  0  0
  9 10  1  0  0  0  0
 10 12  1  0  0  0  0
 10 11  1  6  0  0  0
 12 13  1  0  0  0  0
 12 16  1  0  0  0  0
 13 14  2  0  0  0  0
 13 30  1  0  0  0  0
 14 15  1  0  0  0  0
 15 16  2  0  0  0  0
 15 20  1  0  0  0  0
 16 17  1  0  0  0  0
 17 18  2  0  0  0  0
 18 19  1  0  0  0  0
 18 31  1  0  0  0  0
 19 20  2  0  0  0  0
 20 21  1  0  0  0  0
 21 32  1  0  0  0  0
 21 33  1  0  0  0  0
 22 23  1  0  0  0  0
 22 34  1  0  0  0  0
 22 35  1  0  0  0  0
 23 24  1  0  0  0  0
 24 25  2  0  0  0  0
 24 26  2  0  0  0  0
 24 27  1  0  0  0  0
 27 36  1  0  0  0  0
 27 37  1  0  0  0  0
M  END
$$$$
