LMU
 OpenBabel04121316153D

 81 82  0  0  1  0  0  0  0  0999 V2000
    1.0073    0.0393    0.0617 C   0  0  0  0  0  0  0  0  0  0  0  0
    2.5234    0.0393    0.0699 C   0  0  0  0  0  0  0  0  0  0  0  0
    3.0483    0.0462    1.4984 C   0  0  0  0  0  0  0  0  0  0  0  0
    4.5678    0.0463    1.5068 C   0  0  0  0  0  0  0  0  0  0  0  0
    5.0813    0.0531    2.9351 C   0  0  0  0  0  0  0  0  0  0  0  0
    6.5982    0.0529    2.9357 C   0  0  0  0  0  0  0  0  0  0  0  0
    7.1016    0.0594    4.3611 C   0  0  0  0  0  0  0  0  0  0  0  0
    8.6156    0.0588    4.3797 C   0  0  0  0  0  0  0  0  0  0  0  0
    9.0509    0.0656    5.8273 C   0  0  0  0  0  0  0  0  0  0  0  0
   10.5442    0.0760    5.9386 C   0  0  0  0  0  0  0  0  0  0  0  0
   10.9201    0.0968    7.4285 C   0  0  0  0  0  0  0  0  0  0  0  0
   12.3904    0.3566    7.4502 C   0  0  0  0  0  0  0  0  0  0  0  0
   13.0942    0.0975    8.6511 O   0  0  0  0  0  0  0  0  0  0  0  0
   14.5510    0.1830    8.5825 C   0  0  1  0  0  0  0  0  0  0  0  0
   14.8570    0.4361    9.6029 H   0  0  0  0  0  0  0  0  0  0  0  0
   15.1682   -1.0948    8.3156 O   0  0  0  0  0  0  0  0  0  0  0  0
   14.7694   -1.4920    7.0259 C   0  0  2  0  0  0  0  0  0  0  0  0
   13.6992   -1.4996    7.0758 H   0  0  0  0  0  0  0  0  0  0  0  0
   14.8475   -2.9384    6.7134 C   0  0  0  0  0  0  0  0  0  0  0  0
   13.8867   -3.0429    5.6359 O   0  0  0  0  0  0  0  0  0  0  0  0
   15.3649   -0.5936    5.8901 C   0  0  2  0  0  0  0  0  0  0  0  0
   16.4600   -0.6003    5.9398 H   0  0  0  0  0  0  0  0  0  0  0  0
   14.9185    0.8649    6.1163 C   0  0  1  0  0  0  0  0  0  0  0  0
   13.8888    0.9991    5.7941 H   0  0  0  0  0  0  0  0  0  0  0  0
   15.1389    1.2534    7.6038 C   0  0  1  0  0  0  0  0  0  0  0  0
   16.2246    1.2867    7.7525 H   0  0  0  0  0  0  0  0  0  0  0  0
   14.6572    2.5656    7.9094 O   0  0  0  0  0  0  0  0  0  0  0  0
   15.5898    1.7448    5.2072 O   0  0  0  0  0  0  0  0  0  0  0  0
   14.9363   -1.0042    4.5748 O   0  0  0  0  0  0  0  0  0  0  0  0
   15.9771   -1.5677    3.7405 C   0  0  1  0  0  0  0  0  0  0  0  0
   16.7189   -0.7679    3.6258 H   0  0  0  0  0  0  0  0  0  0  0  0
   16.6716   -2.7161    4.2718 O   0  0  0  0  0  0  0  0  0  0  0  0
   16.0470   -4.0060    4.1780 C   0  0  2  0  0  0  0  0  0  0  0  0
   15.1869   -4.0448    4.7868 H   0  0  0  0  0  0  0  0  0  0  0  0
   16.8275   -5.0918    4.9497 C   0  0  0  0  0  0  0  0  0  0  0  0
   16.0289   -6.2495    5.2171 O   0  0  0  0  0  0  0  0  0  0  0  0
   15.3725   -4.3266    2.8556 C   0  0  2  0  0  0  0  0  0  0  0  0
   16.1203   -4.6016    2.1104 H   0  0  0  0  0  0  0  0  0  0  0  0
   14.5367   -3.1216    2.3880 C   0  0  1  0  0  0  0  0  0  0  0  0
   13.6635   -2.9620    3.0350 H   0  0  0  0  0  0  0  0  0  0  0  0
   15.3859   -1.8503    2.3405 C   0  0  1  0  0  0  0  0  0  0  0  0
   16.2010   -2.0016    1.6259 H   0  0  0  0  0  0  0  0  0  0  0  0
   14.6216   -0.7246    1.8749 O   0  0  0  0  0  0  0  0  0  0  0  0
   13.9812   -3.4460    1.1071 O   0  0  0  0  0  0  0  0  0  0  0  0
   14.4521   -5.4321    2.9693 O   0  0  0  0  0  0  0  0  0  0  0  0
    0.6342    0.0344   -0.9658 H   0  0  0  0  0  0  0  0  0  0  0  0
    0.6173    0.9288    0.5667 H   0  0  0  0  0  0  0  0  0  0  0  0
    0.6173   -0.8453    0.5752 H   0  0  0  0  0  0  0  0  0  0  0  0
    2.8945    0.9196   -0.4679 H   0  0  0  0  0  0  0  0  0  0  0  0
    2.8945   -0.8461   -0.4594 H   0  0  0  0  0  0  0  0  0  0  0  0
    2.6769   -0.8338    2.0380 H   0  0  0  0  0  0  0  0  0  0  0  0
    2.6769    0.9314    2.0295 H   0  0  0  0  0  0  0  0  0  0  0  0
    4.9467    0.9268    0.9738 H   0  0  0  0  0  0  0  0  0  0  0  0
    4.9466   -0.8394    0.9823 H   0  0  0  0  0  0  0  0  0  0  0  0
    4.7086   -0.8270    3.4741 H   0  0  0  0  0  0  0  0  0  0  0  0
    4.7087    0.9384    3.4656 H   0  0  0  0  0  0  0  0  0  0  0  0
    6.9764    0.9342    2.4038 H   0  0  0  0  0  0  0  0  0  0  0  0
    6.9763   -0.8333    2.4120 H   0  0  0  0  0  0  0  0  0  0  0  0
    6.7253   -0.8204    4.8985 H   0  0  0  0  0  0  0  0  0  0  0  0
    6.7257    0.9447    4.8898 H   0  0  0  0  0  0  0  0  0  0  0  0
    9.0058    0.9400    3.8548 H   0  0  0  0  0  0  0  0  0  0  0  0
    9.0065   -0.8268    3.8632 H   0  0  0  0  0  0  0  0  0  0  0  0
    8.6619   -0.8186    6.3434 H   0  0  0  0  0  0  0  0  0  0  0  0
    8.6537    0.9534    6.3319 H   0  0  0  0  0  0  0  0  0  0  0  0
   10.9594    0.9502    5.4137 H   0  0  0  0  0  0  0  0  0  0  0  0
   10.9707   -0.8064    5.4361 H   0  0  0  0  0  0  0  0  0  0  0  0
   10.6536   -0.8466    7.9134 H   0  0  0  0  0  0  0  0  0  0  0  0
   10.4199    0.9147    7.9525 H   0  0  0  0  0  0  0  0  0  0  0  0
   12.5182    1.3953    7.1649 H   0  0  0  0  0  0  0  0  0  0  0  0
   12.7284   -0.2531    6.6232 H   0  0  0  0  0  0  0  0  0  0  0  0
   14.5697   -3.6402    7.4935 H   0  0  0  0  0  0  0  0  0  0  0  0
   15.8900   -3.1262    6.4540 H   0  0  0  0  0  0  0  0  0  0  0  0
   13.2252   -3.7445    5.8076 H   0  0  0  0  0  0  0  0  0  0  0  0
   13.7029    2.5244    8.0811 H   0  0  0  0  0  0  0  0  0  0  0  0
   15.1627    1.5948    4.3397 H   0  0  0  0  0  0  0  0  0  0  0  0
   17.1355   -4.7113    5.9341 H   0  0  0  0  0  0  0  0  0  0  0  0
   17.7371   -5.3915    4.4342 H   0  0  0  0  0  0  0  0  0  0  0  0
   15.2165   -5.9764    5.6783 H   0  0  0  0  0  0  0  0  0  0  0  0
   13.8510   -0.6481    2.4659 H   0  0  0  0  0  0  0  0  0  0  0  0
   13.6260   -4.3527    1.2038 H   0  0  0  0  0  0  0  0  0  0  0  0
   13.8357   -5.2447    3.7010 H   0  0  0  0  0  0  0  0  0  0  0  0
  1  2  1  0  0  0  0
  1 46  1  0  0  0  0
  1 47  1  0  0  0  0
  1 48  1  0  0  0  0
  2  3  1  0  0  0  0
  2 49  1  0  0  0  0
  2 50  1  0  0  0  0
  3  4  1  0  0  0  0
  3 51  1  0  0  0  0
  3 52  1  0  0  0  0
  4  5  1  0  0  0  0
  4 53  1  0  0  0  0
  4 54  1  0  0  0  0
  5  6  1  0  0  0  0
  5 55  1  0  0  0  0
  5 56  1  0  0  0  0
  6  7  1  0  0  0  0
  6 57  1  0  0  0  0
  6 58  1  0  0  0  0
  7  8  1  0  0  0  0
  7 59  1  0  0  0  0
  7 60  1  0  0  0  0
  8  9  1  0  0  0  0
  8 61  1  0  0  0  0
  8 62  1  0  0  0  0
  9 10  1  0  0  0  0
  9 63  1  0  0  0  0
  9 64  1  0  0  0  0
 10 11  1  0  0  0  0
 10 65  1  0  0  0  0
 10 66  1  0  0  0  0
 11 12  1  0  0  0  0
 11 67  1  0  0  0  0
 11 68  1  0  0  0  0
 12 13  1  0  0  0  0
 12 69  1  0  0  0  0
 12 70  1  0  0  0  0
 13 14  1  0  0  0  0
 14 15  1  1  0  0  0
 14 16  1  0  0  0  0
 14 25  1  0  0  0  0
 16 17  1  0  0  0  0
 17 18  1  6  0  0  0
 17 19  1  0  0  0  0
 17 21  1  0  0  0  0
 19 20  1  0  0  0  0
 19 71  1  0  0  0  0
 19 72  1  0  0  0  0
 20 73  1  0  0  0  0
 21 23  1  0  0  0  0
 21 29  1  0  0  0  0
 21 22  1  1  0  0  0
 23 24  1  6  0  0  0
 23 25  1  0  0  0  0
 23 28  1  0  0  0  0
 25 27  1  0  0  0  0
 25 26  1  1  0  0  0
 27 74  1  0  0  0  0
 28 75  1  0  0  0  0
 29 30  1  0  0  0  0
 30 31  1  6  0  0  0
 30 32  1  0  0  0  0
 30 41  1  0  0  0  0
 32 33  1  0  0  0  0
 33 34  1  1  0  0  0
 33 35  1  0  0  0  0
 33 37  1  0  0  0  0
 35 36  1  0  0  0  0
 35 76  1  0  0  0  0
 35 77  1  0  0  0  0
 36 78  1  0  0  0  0
 37 39  1  0  0  0  0
 37 45  1  0  0  0  0
 37 38  1  6  0  0  0
 39 40  1  1  0  0  0
 39 41  1  0  0  0  0
 39 44  1  0  0  0  0
 41 43  1  0  0  0  0
 41 42  1  6  0  0  0
 43 79  1  0  0  0  0
 44 80  1  0  0  0  0
 45 81  1  0  0  0  0
M  END
$$$$
