LMZ
 OpenBabel04121316153D

 34 34  0  0  1  0  0  0  0  0999 V2000
   -0.4433    1.2356   -2.1522 O   0  0  0  0  0  0  0  0  0  0  0  0
    0.8024    1.7588   -1.7090 C   0  0  0  0  0  0  0  0  0  0  0  0
    0.9073    3.2437   -2.0568 C   0  0  2  0  0  0  0  0  0  0  0  0
    0.6018    3.4159   -3.0945 H   0  0  0  0  0  0  0  0  0  0  0  0
    2.3480    3.7571   -1.8413 C   0  0  2  0  0  0  0  0  0  0  0  0
    3.0144    3.1790   -2.4917 H   0  0  0  0  0  0  0  0  0  0  0  0
    2.8722    3.6451   -0.3825 C   0  0  2  0  0  0  0  0  0  0  0  0
    2.6063    2.6752    0.0441 H   0  0  0  0  0  0  0  0  0  0  0  0
    2.4460    4.7557    0.5770 C   0  0  0  0  0  0  0  0  0  0  0  0
    1.0217    4.8517    0.7923 N   0  0  0  0  0  0  0  0  0  0  0  0
    0.3431    5.9747    1.2139 C   0  0  0  0  0  0  0  0  0  0  0  0
   -0.7160    5.6955    2.0417 N   0  0  0  0  0  0  0  0  0  0  0  0
   -0.9546    4.7252    2.2083 H   0  0  0  0  0  0  0  0  0  0  0  0
   -1.3740    6.6120    2.7983 C   0  0  0  0  0  0  0  0  0  0  0  0
   -2.2271    6.2898    3.6231 O   0  0  0  0  0  0  0  0  0  0  0  0
   -1.0012    7.9040    2.6116 N   0  0  0  0  0  0  0  0  0  0  0  0
   -1.4371    8.6071    3.1850 H   0  0  0  0  0  0  0  0  0  0  0  0
   -0.0514    8.3278    1.7250 C   0  0  0  0  0  0  0  0  0  0  0  0
    0.2236    9.5226    1.6380 O   0  0  0  0  0  0  0  0  0  0  0  0
    0.6527    7.2702    0.9420 C   0  0  0  0  0  0  0  0  0  0  0  0
    1.6027    7.7344    0.1217 N   0  0  0  0  0  0  0  0  0  0  0  0
    1.6420    7.2189   -0.9999 O   0  0  0  0  0  0  0  0  0  0  0  0
    4.3139    3.6703   -0.4369 O   0  0  0  0  0  0  0  0  0  0  0  0
    2.4066    5.0946   -2.3453 O   0  0  0  0  0  0  0  0  0  0  0  0
   -0.0393    3.9789   -1.2701 O   0  0  0  0  0  0  0  0  0  0  0  0
   -0.4684    0.2999   -1.8935 H   0  0  0  0  0  0  0  0  0  0  0  0
    1.6033    1.1981   -2.1992 H   0  0  0  0  0  0  0  0  0  0  0  0
    0.8548    1.6009   -0.6268 H   0  0  0  0  0  0  0  0  0  0  0  0
    2.9197    5.6815    0.2505 H   0  0  0  0  0  0  0  0  0  0  0  0
    2.8949    4.5761    1.5613 H   0  0  0  0  0  0  0  0  0  0  0  0
    0.4206    4.1368    0.3600 H   0  0  0  0  0  0  0  0  0  0  0  0
    4.6414    3.6021    0.4796 H   0  0  0  0  0  0  0  0  0  0  0  0
    3.2817    5.4650   -2.1279 H   0  0  0  0  0  0  0  0  0  0  0  0
    0.1850    4.9230   -1.4233 H   0  0  0  0  0  0  0  0  0  0  0  0
  1  2  1  0  0  0  0
  1 26  1  0  0  0  0
  2 27  1  0  0  0  0
  2 28  1  0  0  0  0
  3 25  1  0  0  0  0
  3  4  1  6  0  0  0
  3  2  1  0  0  0  0
  5 24  1  0  0  0  0
  5  6  1  6  0  0  0
  5  3  1  0  0  0  0
  7  9  1  0  0  0  0
  7 23  1  0  0  0  0
  7  8  1  1  0  0  0
  7  5  1  0  0  0  0
  9 10  1  0  0  0  0
  9 29  1  0  0  0  0
  9 30  1  0  0  0  0
 10 11  1  0  0  0  0
 10 31  1  0  0  0  0
 11 12  1  0  0  0  0
 11 20  2  0  0  0  0
 12 13  1  0  0  0  0
 12 14  1  0  0  0  0
 14 15  2  0  0  0  0
 14 16  1  0  0  0  0
 16 17  1  0  0  0  0
 16 18  1  0  0  0  0
 18 19  2  0  0  0  0
 18 20  1  0  0  0  0
 20 21  1  0  0  0  0
 21 22  2  0  0  0  0
 23 32  1  0  0  0  0
 24 33  1  0  0  0  0
 25 34  1  0  0  0  0
M  END
$$$$
