LN6
 OpenBabel04121316153D

 36 35  0  0  1  0  0  0  0  0999 V2000
    1.0542   -0.0928    0.0428 C   0  0  0  0  0  0  0  0  0  0  0  0
    2.5725   -0.1019    0.0493 C   0  0  0  0  0  0  0  0  0  0  0  0
    3.0823    1.0498   -0.7921 C   0  0  0  0  0  0  0  0  0  0  0  0
    4.5973    1.1148   -0.8389 C   0  0  0  0  0  0  0  0  0  0  0  0
    5.0805    2.2834   -1.6748 C   0  0  0  0  0  0  0  0  0  0  0  0
    4.2887    3.1084   -2.2852 N   0  0  0  0  0  0  0  0  0  0  0  0
    6.4227    2.4771   -1.7804 N   0  0  0  0  0  0  0  0  0  0  0  0
    6.9171    3.5743   -2.5813 C   0  0  0  0  0  0  0  0  0  0  0  0
    8.4209    3.5406   -2.5963 C   0  0  0  0  0  0  0  0  0  0  0  0
    9.0054    4.6594   -3.4484 C   0  0  0  0  0  0  0  0  0  0  0  0
   10.5380    4.6412   -3.4490 C   0  0  1  0  0  0  0  0  0  0  0  0
   10.9280    4.7219   -2.4282 H   0  0  0  0  0  0  0  0  0  0  0  0
   11.1296    3.3613   -4.1031 C   0  0  0  0  0  0  0  0  0  0  0  0
   11.7335    3.3480   -5.1740 O   0  0  0  0  0  0  0  0  0  0  0  0
   10.9430    2.2104   -3.4170 O   0  0  0  0  0  0  0  0  0  0  0  0
   11.0127    5.8265   -4.1940 N   0  0  0  0  0  0  0  0  0  0  0  0
    0.6670   -0.9172    0.6449 H   0  0  0  0  0  0  0  0  0  0  0  0
    0.6702   -0.1967   -0.9780 H   0  0  0  0  0  0  0  0  0  0  0  0
    0.6704    0.8479    0.4526 H   0  0  0  0  0  0  0  0  0  0  0  0
    2.9419   -1.0507   -0.3541 H   0  0  0  0  0  0  0  0  0  0  0  0
    2.9420   -0.0062    1.0758 H   0  0  0  0  0  0  0  0  0  0  0  0
    2.6926    1.9920   -0.3847 H   0  0  0  0  0  0  0  0  0  0  0  0
    2.6927    0.9486   -1.8136 H   0  0  0  0  0  0  0  0  0  0  0  0
    5.0112    0.1891   -1.2582 H   0  0  0  0  0  0  0  0  0  0  0  0
    5.0085    1.2239    0.1726 H   0  0  0  0  0  0  0  0  0  0  0  0
    3.3037    2.8939   -2.1481 H   0  0  0  0  0  0  0  0  0  0  0  0
    7.0695    1.8213   -1.3598 H   0  0  0  0  0  0  0  0  0  0  0  0
    6.5587    4.5256   -2.1757 H   0  0  0  0  0  0  0  0  0  0  0  0
    6.5517    3.4701   -3.6105 H   0  0  0  0  0  0  0  0  0  0  0  0
    8.6766    2.5687   -3.0213 H   0  0  0  0  0  0  0  0  0  0  0  0
    8.8203    3.5894   -1.5756 H   0  0  0  0  0  0  0  0  0  0  0  0
    8.6438    5.6220   -3.0575 H   0  0  0  0  0  0  0  0  0  0  0  0
    8.6217    4.5725   -4.4731 H   0  0  0  0  0  0  0  0  0  0  0  0
   10.5054    2.2860   -2.5510 H   0  0  0  0  0  0  0  0  0  0  0  0
   10.5787    6.6830   -3.8605 H   0  0  0  0  0  0  0  0  0  0  0  0
   10.7476    5.7193   -5.1774 H   0  0  0  0  0  0  0  0  0  0  0  0
  1  2  1  0  0  0  0
  1 17  1  0  0  0  0
  1 18  1  0  0  0  0
  1 19  1  0  0  0  0
  2  3  1  0  0  0  0
  2 20  1  0  0  0  0
  2 21  1  0  0  0  0
  3  4  1  0  0  0  0
  3 22  1  0  0  0  0
  3 23  1  0  0  0  0
  4  5  1  0  0  0  0
  4 24  1  0  0  0  0
  4 25  1  0  0  0  0
  5  6  2  0  0  0  0
  5  7  1  0  0  0  0
  6 26  1  0  0  0  0
  7  8  1  0  0  0  0
  7 27  1  0  0  0  0
  8  9  1  0  0  0  0
  8 28  1  0  0  0  0
  8 29  1  0  0  0  0
  9 10  1  0  0  0  0
  9 30  1  0  0  0  0
  9 31  1  0  0  0  0
 10 11  1  0  0  0  0
 10 32  1  0  0  0  0
 10 33  1  0  0  0  0
 11 12  1  1  0  0  0
 11 13  1  0  0  0  0
 11 16  1  0  0  0  0
 13 14  2  0  0  0  0
 13 15  1  0  0  0  0
 15 34  1  0  0  0  0
 16 35  1  0  0  0  0
 16 36  1  0  0  0  0
M  END
$$$$
