LOB
 OpenBabel04121316153D

 52 54  0  0  1  0  0  0  0  0999 V2000
    1.3830   -1.4759    0.1379 O   0  0  0  0  0  0  0  0  0  0  0  0
    2.6020   -0.7780   -0.1744 C   0  0  1  0  0  0  0  0  0  0  0  0
    3.2470   -1.6203    0.0407 H   0  0  0  0  0  0  0  0  0  0  0  0
    2.5768   -0.5236   -1.9656 C   0  0  0  0  0  0  0  0  0  0  0  0
    2.6440    0.6629   -2.7920 C   0  0  0  0  0  0  0  0  0  0  0  0
    2.8918    0.8972   -4.1829 C   0  0  0  0  0  0  0  0  0  0  0  0
    3.2915   -0.1821   -4.8889 C   0  0  0  0  0  0  0  0  0  0  0  0
    3.2621   -1.4010   -4.1956 C   0  0  0  0  0  0  0  0  0  0  0  0
    2.8242   -1.5884   -2.8155 C   0  0  0  0  0  0  0  0  0  0  0  0
    3.1571    0.3093    1.2506 C   0  0  0  0  0  0  0  0  0  0  0  0
    4.6239    0.8702    1.1383 C   0  0  1  0  0  0  0  0  0  0  0  0
    4.9278    1.1429    2.1609 H   0  0  0  0  0  0  0  0  0  0  0  0
    5.4134   -0.3711    0.7422 C   0  0  0  0  0  0  0  0  0  0  0  0
    5.3198   -0.6146   -0.7559 C   0  0  0  0  0  0  0  0  0  0  0  0
    5.1521    0.7002   -1.6211 C   0  0  0  0  0  0  0  0  0  0  0  0
    4.3516    2.1674   -0.9976 C   0  0  2  0  0  0  0  0  0  0  0  0
    4.8555    2.9175   -1.6368 H   0  0  0  0  0  0  0  0  0  0  0  0
    4.9437    2.1606    0.3649 N   0  0  0  0  0  0  0  0  0  0  0  0
    6.4307    2.3295    0.2297 C   0  0  0  0  0  0  0  0  0  0  0  0
    2.6445    3.0239   -1.1631 C   0  0  0  0  0  0  0  0  0  0  0  0
    1.4927    2.1955   -0.5731 C   0  0  0  0  0  0  0  0  0  0  0  0
    2.1009    1.2622   -0.2280 O   0  0  0  0  0  0  0  0  0  0  0  0
    0.1333    1.5014   -0.6493 C   0  0  0  0  0  0  0  0  0  0  0  0
   -0.2905    0.6008    0.4245 C   0  0  0  0  0  0  0  0  0  0  0  0
   -1.2846   -0.4093    0.2547 C   0  0  0  0  0  0  0  0  0  0  0  0
   -1.9779   -0.4721   -0.9390 C   0  0  0  0  0  0  0  0  0  0  0  0
   -1.5609    0.3499   -1.9862 C   0  0  0  0  0  0  0  0  0  0  0  0
   -0.4582    1.2294   -1.8665 C   0  0  0  0  0  0  0  0  0  0  0  0
    0.8869   -1.4704   -0.7004 H   0  0  0  0  0  0  0  0  0  0  0  0
    3.0234    1.5458   -2.3821 H   0  0  0  0  0  0  0  0  0  0  0  0
    3.1352    1.9049   -4.5515 H   0  0  0  0  0  0  0  0  0  0  0  0
    3.7642   -0.0413   -5.8609 H   0  0  0  0  0  0  0  0  0  0  0  0
    3.7278   -2.2377   -4.7012 H   0  0  0  0  0  0  0  0  0  0  0  0
    2.8667   -2.5774   -2.3925 H   0  0  0  0  0  0  0  0  0  0  0  0
    2.9271   -0.1944    2.2033 H   0  0  0  0  0  0  0  0  0  0  0  0
    2.5703    1.2292    1.5220 H   0  0  0  0  0  0  0  0  0  0  0  0
    5.0320   -1.2257    1.3286 H   0  0  0  0  0  0  0  0  0  0  0  0
    6.4597   -0.2989    1.0411 H   0  0  0  0  0  0  0  0  0  0  0  0
    4.5581   -1.3294   -1.0227 H   0  0  0  0  0  0  0  0  0  0  0  0
    6.1455   -1.2750   -1.0509 H   0  0  0  0  0  0  0  0  0  0  0  0
    4.9349    0.4318   -2.6531 H   0  0  0  0  0  0  0  0  0  0  0  0
    6.2058    0.9640   -1.7782 H   0  0  0  0  0  0  0  0  0  0  0  0
    6.6918    3.0715   -0.5410 H   0  0  0  0  0  0  0  0  0  0  0  0
    6.9824    1.4249   -0.0626 H   0  0  0  0  0  0  0  0  0  0  0  0
    6.8905    2.6493    1.1630 H   0  0  0  0  0  0  0  0  0  0  0  0
    2.7290    3.9748   -0.6255 H   0  0  0  0  0  0  0  0  0  0  0  0
    2.3818    3.2754   -2.2032 H   0  0  0  0  0  0  0  0  0  0  0  0
    0.3016    0.4915    1.3469 H   0  0  0  0  0  0  0  0  0  0  0  0
   -1.4433   -1.1957    1.0031 H   0  0  0  0  0  0  0  0  0  0  0  0
   -2.7834   -1.1927   -1.0826 H   0  0  0  0  0  0  0  0  0  0  0  0
   -2.0644    0.2710   -2.9437 H   0  0  0  0  0  0  0  0  0  0  0  0
    0.0222    1.5855   -2.7666 H   0  0  0  0  0  0  0  0  0  0  0  0
  1  2  1  0  0  0  0
  1 29  1  0  0  0  0
  2  3  1  1  0  0  0
  2  4  1  0  0  0  0
  2 10  1  0  0  0  0
  4  5  2  0  0  0  0
  4  9  1  0  0  0  0
  5  6  1  0  0  0  0
  5 30  1  0  0  0  0
  6  7  2  0  0  0  0
  6 31  1  0  0  0  0
  7  8  1  0  0  0  0
  7 32  1  0  0  0  0
  8  9  2  0  0  0  0
  8 33  1  0  0  0  0
  9 34  1  0  0  0  0
 10 11  1  0  0  0  0
 10 35  1  0  0  0  0
 10 36  1  0  0  0  0
 11 12  1  1  0  0  0
 11 13  1  0  0  0  0
 11 18  1  0  0  0  0
 13 14  1  0  0  0  0
 13 37  1  0  0  0  0
 13 38  1  0  0  0  0
 14 15  1  0  0  0  0
 14 39  1  0  0  0  0
 14 40  1  0  0  0  0
 15 16  1  0  0  0  0
 15 41  1  0  0  0  0
 15 42  1  0  0  0  0
 16 18  1  0  0  0  0
 16 20  1  0  0  0  0
 16 17  1  6  0  0  0
 18 19  1  0  0  0  0
 19 43  1  0  0  0  0
 19 44  1  0  0  0  0
 19 45  1  0  0  0  0
 20 21  1  0  0  0  0
 20 46  1  0  0  0  0
 20 47  1  0  0  0  0
 21 22  2  0  0  0  0
 21 23  1  0  0  0  0
 23 24  2  0  0  0  0
 23 28  1  0  0  0  0
 24 25  1  0  0  0  0
 24 48  1  0  0  0  0
 25 26  2  0  0  0  0
 25 49  1  0  0  0  0
 26 27  1  0  0  0  0
 26 50  1  0  0  0  0
 27 28  2  0  0  0  0
 27 51  1  0  0  0  0
 28 52  1  0  0  0  0
M  END
$$$$
