LP7
 OpenBabel04121316153D

 30 31  0  0  1  0  0  0  0  0999 V2000
    1.0470   -0.0914   -0.0558 C   0  0  0  0  0  0  0  0  0  0  0  0
    2.5628   -0.1010   -0.0726 C   0  0  0  0  0  0  0  0  0  0  0  0
    3.0144    0.2917    1.2275 O   0  0  0  0  0  0  0  0  0  0  0  0
    4.3604    0.2982    1.3981 C   0  0  0  0  0  0  0  0  0  0  0  0
    5.1816    0.0816    0.5061 O   0  0  0  0  0  0  0  0  0  0  0  0
    4.7369    0.7268    2.7762 C   0  0  1  0  0  0  0  0  0  0  0  0
    5.8398    0.6953    2.8011 H   0  0  0  0  0  0  0  0  0  0  0  0
    4.2993    2.1504    3.0752 C   0  0  1  0  0  0  0  0  0  0  0  0
    4.8651    2.8335    2.4296 H   0  0  0  0  0  0  0  0  0  0  0  0
    2.9165    2.3972    2.8385 O   0  0  0  0  0  0  0  0  0  0  0  0
    4.5531    2.5300    4.5069 C   0  0  0  0  0  0  0  0  0  0  0  0
    4.4744    3.8687    4.8986 C   0  0  0  0  0  0  0  0  0  0  0  0
    4.6593    4.2033    6.2301 C   0  0  0  0  0  0  0  0  0  0  0  0
    4.9286    3.1813    7.1263 C   0  0  0  0  0  0  0  0  0  0  0  0
    5.0518    1.8745    6.7802 N   0  0  0  0  0  0  0  0  0  0  0  0
    4.8355    1.5657    5.4770 C   0  0  0  0  0  0  0  0  0  0  0  0
    4.8388    0.2084    5.0865 N   0  0  0  0  0  0  0  0  0  0  0  0
    4.3253   -0.2133    3.8733 C   0  0  0  0  0  0  0  0  0  0  0  0
    3.7340   -1.2651    3.6695 O   0  0  0  0  0  0  0  0  0  0  0  0
    5.0346   -0.7608    6.0918 O   0  0  0  0  0  0  0  0  0  0  0  0
    0.6463   -0.3789   -1.0311 H   0  0  0  0  0  0  0  0  0  0  0  0
    0.6689    0.9035    0.2039 H   0  0  0  0  0  0  0  0  0  0  0  0
    0.6649   -0.7823    0.7034 H   0  0  0  0  0  0  0  0  0  0  0  0
    2.9302    0.6142   -0.8163 H   0  0  0  0  0  0  0  0  0  0  0  0
    2.9306   -1.1059   -0.3041 H   0  0  0  0  0  0  0  0  0  0  0  0
    2.6808    2.0419    1.9600 H   0  0  0  0  0  0  0  0  0  0  0  0
    4.2451    4.6378    4.1646 H   0  0  0  0  0  0  0  0  0  0  0  0
    4.5869    5.2358    6.5549 H   0  0  0  0  0  0  0  0  0  0  0  0
    5.0489    3.4023    8.1843 H   0  0  0  0  0  0  0  0  0  0  0  0
    5.5657   -0.2618    6.7436 H   0  0  0  0  0  0  0  0  0  0  0  0
  1  2  1  0  0  0  0
  1 21  1  0  0  0  0
  1 22  1  0  0  0  0
  1 23  1  0  0  0  0
  2  3  1  0  0  0  0
  2 24  1  0  0  0  0
  2 25  1  0  0  0  0
  3  4  1  0  0  0  0
  4  5  2  0  0  0  0
  4  6  1  0  0  0  0
  6  7  1  1  0  0  0
  6  8  1  0  0  0  0
  6 18  1  0  0  0  0
  8  9  1  6  0  0  0
  8 10  1  0  0  0  0
  8 11  1  0  0  0  0
 10 26  1  0  0  0  0
 11 12  2  0  0  0  0
 11 16  1  0  0  0  0
 12 13  1  0  0  0  0
 12 27  1  0  0  0  0
 13 14  2  0  0  0  0
 13 28  1  0  0  0  0
 14 15  1  0  0  0  0
 14 29  1  0  0  0  0
 15 16  2  0  0  0  0
 16 17  1  0  0  0  0
 17 18  1  0  0  0  0
 17 20  1  0  0  0  0
 18 19  2  0  0  0  0
 20 30  1  0  0  0  0
M  END
$$$$
