LP9
 OpenBabel04121316153D

 53 55  0  0  0  0  0  0  0  0999 V2000
    1.0773    0.0691    0.0274 C   0  0  0  0  0  0  0  0  0  0  0  0
    2.5916    0.0724    0.0333 C   0  0  0  0  0  0  0  0  0  0  0  0
    3.0562   -0.7161   -1.0636 O   0  0  0  0  0  0  0  0  0  0  0  0
    4.4026   -0.7717   -1.1538 C   0  0  0  0  0  0  0  0  0  0  0  0
    5.2137   -0.1243   -0.4936 O   0  0  0  0  0  0  0  0  0  0  0  0
    4.7829   -1.5989   -2.2874 C   0  0  0  0  0  0  0  0  0  0  0  0
    5.3603   -1.0172   -3.3558 C   0  0  0  0  0  0  0  0  0  0  0  0
    5.6455    0.3274   -3.4911 O   0  0  0  0  0  0  0  0  0  0  0  0
    5.6863   -1.8365   -4.5213 C   0  0  0  0  0  0  0  0  0  0  0  0
    6.2677   -1.3026   -5.6708 C   0  0  0  0  0  0  0  0  0  0  0  0
    6.4906   -2.1323   -6.7552 C   0  0  0  0  0  0  0  0  0  0  0  0
    6.0002   -3.4342   -6.6738 C   0  0  0  0  0  0  0  0  0  0  0  0
    5.5316   -4.0202   -5.5575 N   0  0  0  0  0  0  0  0  0  0  0  0
    5.3876   -3.2037   -4.5017 C   0  0  0  0  0  0  0  0  0  0  0  0
    4.8525   -3.7645   -3.3404 N   0  0  0  0  0  0  0  0  0  0  0  0
    4.5165   -3.0594   -2.2205 C   0  0  0  0  0  0  0  0  0  0  0  0
    4.0350   -3.5502   -1.2031 O   0  0  0  0  0  0  0  0  0  0  0  0
    4.6053   -5.1579   -3.3476 O   0  0  0  0  0  0  0  0  0  0  0  0
    7.1890   -1.5685   -7.7887 O   0  0  0  0  0  0  0  0  0  0  0  0
    7.4801   -2.3245   -8.8832 C   0  0  0  0  0  0  0  0  0  0  0  0
    7.4274   -1.6701  -10.0744 C   0  0  0  0  0  0  0  0  0  0  0  0
    7.3492   -2.4348  -11.2256 C   0  0  0  0  0  0  0  0  0  0  0  0
    7.3647   -3.8401  -11.2901 C   0  0  0  0  0  0  0  0  0  0  0  0
    7.6569   -4.4357  -10.0614 C   0  0  0  0  0  0  0  0  0  0  0  0
    7.7792   -3.6804   -8.8912 C   0  0  0  0  0  0  0  0  0  0  0  0
    7.1420   -4.5927  -12.4424 N   0  0  0  0  0  0  0  0  0  0  0  0
    6.8475   -4.0629  -13.7954 C   0  0  0  0  0  0  0  0  0  0  0  0
    6.7780   -2.5745  -13.9866 C   0  0  0  0  0  0  0  0  0  0  0  0
    7.1607   -6.0801  -12.3189 C   0  0  0  0  0  0  0  0  0  0  0  0
    6.9279   -6.8283  -13.6277 C   0  0  0  0  0  0  0  0  0  0  0  0
    0.6893    0.6597    0.8616 H   0  0  0  0  0  0  0  0  0  0  0  0
    0.6924   -0.9528    0.1067 H   0  0  0  0  0  0  0  0  0  0  0  0
    0.6927    0.4845   -0.9099 H   0  0  0  0  0  0  0  0  0  0  0  0
    2.9603   -0.3626    0.9684 H   0  0  0  0  0  0  0  0  0  0  0  0
    2.9585    1.1000   -0.0679 H   0  0  0  0  0  0  0  0  0  0  0  0
    5.4996    0.7970   -2.6484 H   0  0  0  0  0  0  0  0  0  0  0  0
    6.5291   -0.2477   -5.7391 H   0  0  0  0  0  0  0  0  0  0  0  0
    5.9492   -4.1039   -7.5221 H   0  0  0  0  0  0  0  0  0  0  0  0
    4.8967   -5.4169   -4.2452 H   0  0  0  0  0  0  0  0  0  0  0  0
    7.3804   -0.5881  -10.1579 H   0  0  0  0  0  0  0  0  0  0  0  0
    7.2325   -1.7663  -12.0479 H   0  0  0  0  0  0  0  0  0  0  0  0
    7.7739   -5.5092   -9.9499 H   0  0  0  0  0  0  0  0  0  0  0  0
    8.0129   -4.2040   -7.9713 H   0  0  0  0  0  0  0  0  0  0  0  0
    5.8825   -4.4589  -14.1291 H   0  0  0  0  0  0  0  0  0  0  0  0
    7.6270   -4.4205  -14.4756 H   0  0  0  0  0  0  0  0  0  0  0  0
    5.9579   -2.1756  -13.3755 H   0  0  0  0  0  0  0  0  0  0  0  0
    6.5672   -2.2622  -15.0061 H   0  0  0  0  0  0  0  0  0  0  0  0
    7.7612   -2.1478  -13.7535 H   0  0  0  0  0  0  0  0  0  0  0  0
    6.3901   -6.4093  -11.6076 H   0  0  0  0  0  0  0  0  0  0  0  0
    8.1367   -6.4045  -11.9348 H   0  0  0  0  0  0  0  0  0  0  0  0
    5.9420   -6.5982  -14.0432 H   0  0  0  0  0  0  0  0  0  0  0  0
    6.9749   -7.9101  -13.4770 H   0  0  0  0  0  0  0  0  0  0  0  0
    7.6913   -6.5670  -14.3670 H   0  0  0  0  0  0  0  0  0  0  0  0
  1  2  1  0  0  0  0
  1 31  1  0  0  0  0
  1 32  1  0  0  0  0
  1 33  1  0  0  0  0
  2  3  1  0  0  0  0
  2 34  1  0  0  0  0
  2 35  1  0  0  0  0
  3  4  1  0  0  0  0
  4  5  2  0  0  0  0
  4  6  1  0  0  0  0
  6  7  2  0  0  0  0
  6 16  1  0  0  0  0
  7  8  1  0  0  0  0
  7  9  1  0  0  0  0
  8 36  1  0  0  0  0
  9 10  2  0  0  0  0
  9 14  1  0  0  0  0
 10 11  1  0  0  0  0
 10 37  1  0  0  0  0
 11 12  2  0  0  0  0
 11 19  1  0  0  0  0
 12 13  1  0  0  0  0
 12 38  1  0  0  0  0
 13 14  2  0  0  0  0
 14 15  1  0  0  0  0
 15 16  1  0  0  0  0
 15 18  1  0  0  0  0
 16 17  2  0  0  0  0
 18 39  1  0  0  0  0
 19 20  1  0  0  0  0
 20 21  2  0  0  0  0
 20 25  1  0  0  0  0
 21 22  1  0  0  0  0
 21 40  1  0  0  0  0
 22 23  2  0  0  0  0
 22 41  1  0  0  0  0
 23 24  1  0  0  0  0
 23 26  1  0  0  0  0
 24 25  2  0  0  0  0
 24 42  1  0  0  0  0
 25 43  1  0  0  0  0
 26 27  1  0  0  0  0
 26 29  1  0  0  0  0
 27 28  1  0  0  0  0
 27 44  1  0  0  0  0
 27 45  1  0  0  0  0
 28 46  1  0  0  0  0
 28 47  1  0  0  0  0
 28 48  1  0  0  0  0
 29 30  1  0  0  0  0
 29 49  1  0  0  0  0
 29 50  1  0  0  0  0
 30 51  1  0  0  0  0
 30 52  1  0  0  0  0
 30 53  1  0  0  0  0
M  END
$$$$
