LPD
 OpenBabel04121316153D

 18 18  0  0  1  0  0  0  0  0999 V2000
    3.7141    0.0049   -2.0647 N   0  0  0  0  0  0  0  0  0  0  0  0
    3.6372    1.2479   -1.5072 C   0  0  0  0  0  0  0  0  0  0  0  0
    3.9733    2.2154   -2.1799 O   0  0  0  0  0  0  0  0  0  0  0  0
    3.0390    1.3301   -0.0828 C   0  0  2  0  0  0  0  0  0  0  0  0
    2.3461    0.4918    0.0538 H   0  0  0  0  0  0  0  0  0  0  0  0
    2.3479    2.6732    0.0763 C   0  0  0  0  0  0  0  0  0  0  0  0
    3.4787    3.5869    0.5075 C   0  0  0  0  0  0  0  0  0  0  0  0
    4.3254    2.6994    1.3964 C   0  0  0  0  0  0  0  0  0  0  0  0
    4.0800    1.3035    0.9780 N   0  0  0  0  0  0  0  0  0  0  0  0
    4.0418   -0.0345   -3.0211 H   0  0  0  0  0  0  0  0  0  0  0  0
    3.4815   -0.8471   -1.5802 H   0  0  0  0  0  0  0  0  0  0  0  0
    1.5817    2.6197    0.8576 H   0  0  0  0  0  0  0  0  0  0  0  0
    1.8752    3.0220   -0.8471 H   0  0  0  0  0  0  0  0  0  0  0  0
    3.1131    4.4829    1.0150 H   0  0  0  0  0  0  0  0  0  0  0  0
    4.0719    3.9125   -0.3550 H   0  0  0  0  0  0  0  0  0  0  0  0
    4.0201    2.8346    2.4422 H   0  0  0  0  0  0  0  0  0  0  0  0
    5.3896    2.9457    1.3318 H   0  0  0  0  0  0  0  0  0  0  0  0
    3.6930    0.8216    1.7921 H   0  0  0  0  0  0  0  0  0  0  0  0
  1  2  1  0  0  0  0
  1 10  1  0  0  0  0
  1 11  1  0  0  0  0
  2  3  2  0  0  0  0
  4  6  1  0  0  0  0
  4  9  1  0  0  0  0
  4  5  1  1  0  0  0
  4  2  1  0  0  0  0
  6  7  1  0  0  0  0
  6 12  1  0  0  0  0
  6 13  1  0  0  0  0
  7  8  1  0  0  0  0
  7 14  1  0  0  0  0
  7 15  1  0  0  0  0
  8  9  1  0  0  0  0
  8 16  1  0  0  0  0
  8 17  1  0  0  0  0
  9 18  1  0  0  0  0
M  END
$$$$
