LPN
 OpenBabel04121316153D

 85 89  0  0  1  0  0  0  0  0999 V2000
    0.8911   -0.0431    0.2593 C   0  0  0  0  0  0  0  0  0  0  0  0
    2.2858    0.0787    0.5108 O   0  0  0  0  0  0  0  0  0  0  0  0
    2.9752    0.3818   -0.6950 C   0  0  0  0  0  0  0  0  0  0  0  0
    4.4756    0.4291   -0.4169 C   0  0  0  0  0  0  0  0  0  0  0  0
    5.3204    0.9898   -1.5301 C   0  0  0  0  0  0  0  0  0  0  0  0
    6.9002    1.0213   -1.4164 C   0  0  0  0  0  0  0  0  0  0  0  0
    7.4988    2.1259   -2.0476 C   0  0  0  0  0  0  0  0  0  0  0  0
    8.8381    2.0500   -2.4770 C   0  0  0  0  0  0  0  0  0  0  0  0
    9.5257    0.8077   -2.5341 C   0  0  0  0  0  0  0  0  0  0  0  0
    8.9263   -0.3780   -2.0398 C   0  0  0  0  0  0  0  0  0  0  0  0
    7.7418   -0.1684   -1.2370 C   0  0  0  0  0  0  0  0  0  0  0  0
    9.2963   -1.7637   -2.7421 C   0  0  0  0  0  0  0  0  0  0  0  0
    8.3703   -2.9346   -2.7980 N   0  0  0  0  0  0  0  0  0  0  0  0
    7.0196   -2.8731   -2.5677 C   0  0  0  0  0  0  0  0  0  0  0  0
    6.4397   -3.7992   -2.0326 O   0  0  0  0  0  0  0  0  0  0  0  0
    6.1989   -1.6408   -3.0176 C   0  0  1  0  0  0  0  0  0  0  0  0
    5.7755   -1.4005   -2.0337 H   0  0  0  0  0  0  0  0  0  0  0  0
    6.6692   -0.3406   -3.8321 C   0  0  0  0  0  0  0  0  0  0  0  0
    7.0284   -0.3263   -5.2164 N   0  0  0  0  0  0  0  0  0  0  0  0
    5.9342   -0.9508   -5.8965 C   0  0  0  0  0  0  0  0  0  0  0  0
    5.6755   -2.3135   -5.2645 C   0  0  0  0  0  0  0  0  0  0  0  0
    5.1112   -2.2773   -3.8468 C   0  0  2  0  0  0  0  0  0  0  0  0
    4.9692   -3.3155   -3.5366 H   0  0  0  0  0  0  0  0  0  0  0  0
    3.7498   -1.6800   -3.6816 C   0  0  0  0  0  0  0  0  0  0  0  0
    2.7126   -2.5098   -3.2383 C   0  0  0  0  0  0  0  0  0  0  0  0
    1.4145   -2.0334   -3.2352 C   0  0  0  0  0  0  0  0  0  0  0  0
    1.2132   -0.6714   -3.4043 C   0  0  0  0  0  0  0  0  0  0  0  0
    2.2716    0.1779   -3.6527 C   0  0  0  0  0  0  0  0  0  0  0  0
    3.4872   -0.3413   -3.9281 C   0  0  0  0  0  0  0  0  0  0  0  0
   -0.0323   -0.1847   -3.2360 O   0  0  0  0  0  0  0  0  0  0  0  0
   -0.0456    1.2389   -3.3108 C   0  0  0  0  0  0  0  0  0  0  0  0
   -1.4589    1.5571   -3.5246 C   0  0  0  0  0  0  0  0  0  0  0  0
   -1.6313    2.9419   -3.5515 O   0  0  0  0  0  0  0  0  0  0  0  0
   -2.9343    3.3046   -3.7404 C   0  0  0  0  0  0  0  0  0  0  0  0
   -4.0504    2.4495   -3.8938 C   0  0  0  0  0  0  0  0  0  0  0  0
   -4.1295    0.7062   -3.9013 Cl  0  0  0  0  0  0  0  0  0  0  0  0
   -5.3047    2.9977   -4.0682 C   0  0  0  0  0  0  0  0  0  0  0  0
   -5.4900    4.3724   -4.0950 C   0  0  0  0  0  0  0  0  0  0  0  0
   -4.3985    5.2286   -3.9483 C   0  0  0  0  0  0  0  0  0  0  0  0
   -3.1255    4.6983   -3.7732 C   0  0  0  0  0  0  0  0  0  0  0  0
   -1.8038    5.8111   -3.5998 Cl  0  0  0  0  0  0  0  0  0  0  0  0
   -6.8750    4.8849   -4.2827 C   0  0  0  0  0  0  0  0  0  0  0  0
    8.9735   -4.2508   -3.1357 C   0  0  0  0  0  0  0  0  0  0  0  0
    8.7745   -5.4685   -2.2494 C   0  0  0  0  0  0  0  0  0  0  0  0
    8.3655   -5.5327   -3.6885 C   0  0  0  0  0  0  0  0  0  0  0  0
   11.0286    0.7667   -3.3904 Cl  0  0  0  0  0  0  0  0  0  0  0  0
    0.4096   -0.3259    1.1946 H   0  0  0  0  0  0  0  0  0  0  0  0
    0.6767   -0.8137   -0.4895 H   0  0  0  0  0  0  0  0  0  0  0  0
    0.4989    0.9198   -0.0784 H   0  0  0  0  0  0  0  0  0  0  0  0
    2.5869    1.3142   -1.1254 H   0  0  0  0  0  0  0  0  0  0  0  0
    2.7632   -0.4535   -1.3534 H   0  0  0  0  0  0  0  0  0  0  0  0
    4.7637   -0.6175   -0.2692 H   0  0  0  0  0  0  0  0  0  0  0  0
    4.6803    1.0003    0.4754 H   0  0  0  0  0  0  0  0  0  0  0  0
    4.9039    1.8895   -2.0214 H   0  0  0  0  0  0  0  0  0  0  0  0
    5.0624    0.2827   -2.2903 H   0  0  0  0  0  0  0  0  0  0  0  0
    6.8862    2.9688   -2.3833 H   0  0  0  0  0  0  0  0  0  0  0  0
    9.2828    2.9429   -2.9124 H   0  0  0  0  0  0  0  0  0  0  0  0
    7.3381   -1.0552   -0.7551 H   0  0  0  0  0  0  0  0  0  0  0  0
   10.2054   -2.1352   -2.2659 H   0  0  0  0  0  0  0  0  0  0  0  0
    9.5271   -1.6084   -3.8128 H   0  0  0  0  0  0  0  0  0  0  0  0
    7.5133    0.1644   -3.4823 H   0  0  0  0  0  0  0  0  0  0  0  0
    5.9490    0.4719   -3.8031 H   0  0  0  0  0  0  0  0  0  0  0  0
    7.9431   -0.7461   -5.3326 H   0  0  0  0  0  0  0  0  0  0  0  0
    6.1906   -0.9977   -6.9448 H   0  0  0  0  0  0  0  0  0  0  0  0
    5.0676   -0.2901   -5.8324 H   0  0  0  0  0  0  0  0  0  0  0  0
    6.6502   -2.8206   -5.1913 H   0  0  0  0  0  0  0  0  0  0  0  0
    5.0169   -2.9073   -5.8789 H   0  0  0  0  0  0  0  0  0  0  0  0
    2.9162   -3.5288   -2.9129 H   0  0  0  0  0  0  0  0  0  0  0  0
    0.5900   -2.7105   -3.0456 H   0  0  0  0  0  0  0  0  0  0  0  0
    2.2430    1.2591   -3.5551 H   0  0  0  0  0  0  0  0  0  0  0  0
    4.1917    0.4175   -4.2174 H   0  0  0  0  0  0  0  0  0  0  0  0
    0.4837    1.6605   -4.1792 H   0  0  0  0  0  0  0  0  0  0  0  0
    0.3311    1.6840   -2.3823 H   0  0  0  0  0  0  0  0  0  0  0  0
   -1.9877    1.1077   -2.6804 H   0  0  0  0  0  0  0  0  0  0  0  0
   -1.7109    1.1191   -4.4990 H   0  0  0  0  0  0  0  0  0  0  0  0
   -6.1533    2.3277   -4.1840 H   0  0  0  0  0  0  0  0  0  0  0  0
   -4.5382    6.3059   -3.9695 H   0  0  0  0  0  0  0  0  0  0  0  0
   -7.5796    4.0505   -4.3769 H   0  0  0  0  0  0  0  0  0  0  0  0
   -6.9259    5.4749   -5.1991 H   0  0  0  0  0  0  0  0  0  0  0  0
   -7.1671    5.4765   -3.4137 H   0  0  0  0  0  0  0  0  0  0  0  0
    9.9249   -4.0979   -3.6434 H   0  0  0  0  0  0  0  0  0  0  0  0
    7.9414   -5.5710   -1.5572 H   0  0  0  0  0  0  0  0  0  0  0  0
    9.6660   -5.9641   -1.8902 H   0  0  0  0  0  0  0  0  0  0  0  0
    7.3093   -5.6826   -3.8877 H   0  0  0  0  0  0  0  0  0  0  0  0
    8.9868   -6.1496   -4.3404 H   0  0  0  0  0  0  0  0  0  0  0  0
  1  2  1  0  0  0  0
  1 47  1  0  0  0  0
  1 48  1  0  0  0  0
  1 49  1  0  0  0  0
  2  3  1  0  0  0  0
  3  4  1  0  0  0  0
  3 50  1  0  0  0  0
  3 51  1  0  0  0  0
  4  5  1  0  0  0  0
  4 52  1  0  0  0  0
  4 53  1  0  0  0  0
  5  6  1  0  0  0  0
  5 54  1  0  0  0  0
  5 55  1  0  0  0  0
  6  7  2  0  0  0  0
  6 11  1  0  0  0  0
  7  8  1  0  0  0  0
  7 56  1  0  0  0  0
  8  9  2  0  0  0  0
  8 57  1  0  0  0  0
  9 10  1  0  0  0  0
  9 46  1  0  0  0  0
 10 11  2  0  0  0  0
 10 12  1  0  0  0  0
 11 58  1  0  0  0  0
 12 13  1  0  0  0  0
 12 59  1  0  0  0  0
 12 60  1  0  0  0  0
 13 14  1  0  0  0  0
 13 43  1  0  0  0  0
 14 15  2  0  0  0  0
 14 16  1  0  0  0  0
 16 17  1  1  0  0  0
 16 18  1  0  0  0  0
 16 22  1  0  0  0  0
 18 19  1  0  0  0  0
 18 61  1  0  0  0  0
 18 62  1  0  0  0  0
 19 20  1  0  0  0  0
 19 63  1  0  0  0  0
 20 21  1  0  0  0  0
 20 64  1  0  0  0  0
 20 65  1  0  0  0  0
 21 22  1  0  0  0  0
 21 66  1  0  0  0  0
 21 67  1  0  0  0  0
 22 23  1  1  0  0  0
 22 24  1  0  0  0  0
 24 25  2  0  0  0  0
 24 29  1  0  0  0  0
 25 26  1  0  0  0  0
 25 68  1  0  0  0  0
 26 27  2  0  0  0  0
 26 69  1  0  0  0  0
 27 28  1  0  0  0  0
 27 30  1  0  0  0  0
 28 29  2  0  0  0  0
 28 70  1  0  0  0  0
 29 71  1  0  0  0  0
 30 31  1  0  0  0  0
 31 32  1  0  0  0  0
 31 72  1  0  0  0  0
 31 73  1  0  0  0  0
 32 33  1  0  0  0  0
 32 74  1  0  0  0  0
 32 75  1  0  0  0  0
 33 34  1  0  0  0  0
 34 35  2  0  0  0  0
 34 40  1  0  0  0  0
 35 36  1  0  0  0  0
 35 37  1  0  0  0  0
 37 38  2  0  0  0  0
 37 76  1  0  0  0  0
 38 39  1  0  0  0  0
 38 42  1  0  0  0  0
 39 40  2  0  0  0  0
 39 77  1  0  0  0  0
 40 41  1  0  0  0  0
 42 78  1  0  0  0  0
 42 79  1  0  0  0  0
 42 80  1  0  0  0  0
 43 44  1  0  0  0  0
 43 45  1  0  0  0  0
 43 81  1  0  0  0  0
 44 45  1  0  0  0  0
 44 82  1  0  0  0  0
 44 83  1  0  0  0  0
 45 84  1  0  0  0  0
 45 85  1  0  0  0  0
M  END
$$$$
