LPO
 OpenBabel04121316153D

 82 86  0  0  1  0  0  0  0  0999 V2000
    0.8930   -0.2430    0.0707 C   0  0  0  0  0  0  0  0  0  0  0  0
    2.3632   -0.6031    0.2937 O   0  0  0  0  0  0  0  0  0  0  0  0
    3.1246    0.0836   -0.6921 C   0  0  0  0  0  0  0  0  0  0  0  0
    4.6889    0.6841   -0.9059 C   0  0  0  0  0  0  0  0  0  0  0  0
    5.4339    1.6261   -2.3907 C   0  0  0  0  0  0  0  0  0  0  0  0
    5.5893    3.1670   -2.2783 C   0  0  0  0  0  0  0  0  0  0  0  0
    5.2633    4.1983   -3.7757 C   0  0  0  0  0  0  0  0  0  0  0  0
    5.0455    3.5515   -5.4838 C   0  0  0  0  0  0  0  0  0  0  0  0
    5.4064    1.7970   -5.7703 C   0  0  0  0  0  0  0  0  0  0  0  0
    5.5684    0.9832   -4.1484 C   0  0  0  0  0  0  0  0  0  0  0  0
    5.5622    0.6652   -6.6213 C   0  0  0  0  0  0  0  0  0  0  0  0
    5.4946   -0.8078   -5.8568 N   0  0  0  0  0  0  0  0  0  0  0  0
    5.3835   -1.4333   -4.4455 C   0  0  0  0  0  0  0  0  0  0  0  0
    5.4959   -2.6352   -4.1935 O   0  0  0  0  0  0  0  0  0  0  0  0
    5.2780   -0.5681   -3.0542 C   0  0  1  0  0  0  0  0  0  0  0  0
    5.2197   -1.2896   -2.2485 H   0  0  0  0  0  0  0  0  0  0  0  0
    7.1343    0.2544   -2.8932 C   0  0  0  0  0  0  0  0  0  0  0  0
    7.6734    1.3969   -4.1712 N   0  0  0  0  0  0  0  0  0  0  0  0
    6.3098    2.5543   -4.3611 C   0  0  0  0  0  0  0  0  0  0  0  0
    4.1866    2.0142   -4.4481 C   0  0  0  0  0  0  0  0  0  0  0  0
    3.6596    0.6108   -3.4289 C   0  0  1  0  0  0  0  0  0  0  0  0
    2.6479   -0.2259   -4.0434 O   0  0  0  0  0  0  0  0  0  0  0  0
    2.7875    1.9830   -2.8259 C   0  0  0  0  0  0  0  0  0  0  0  0
    2.1013    2.0446   -1.7420 C   0  0  0  0  0  0  0  0  0  0  0  0
    2.7055    2.7042   -0.4889 C   0  0  0  0  0  0  0  0  0  0  0  0
    3.2384    3.9225   -0.5367 C   0  0  0  0  0  0  0  0  0  0  0  0
    3.3486    4.3449   -1.7539 N   0  0  0  0  0  0  0  0  0  0  0  0
    3.1285    3.3035   -2.7285 C   0  0  0  0  0  0  0  0  0  0  0  0
    3.4146    4.7133    0.5391 O   0  0  0  0  0  0  0  0  0  0  0  0
    2.5898    4.2001    1.5991 C   0  0  0  0  0  0  0  0  0  0  0  0
    2.3545    5.3679    2.4487 C   0  0  0  0  0  0  0  0  0  0  0  0
    1.5583    5.0088    3.5420 O   0  0  0  0  0  0  0  0  0  0  0  0
    1.3763    6.0494    4.4078 C   0  0  0  0  0  0  0  0  0  0  0  0
    0.9345    5.6618    5.6845 C   0  0  0  0  0  0  0  0  0  0  0  0
    0.5886    4.0165    6.0990 Cl  0  0  0  0  0  0  0  0  0  0  0  0
    0.7828    6.6080    6.6848 C   0  0  0  0  0  0  0  0  0  0  0  0
    1.0569    7.9458    6.4240 C   0  0  0  0  0  0  0  0  0  0  0  0
    1.4608    8.3441    5.1583 C   0  0  0  0  0  0  0  0  0  0  0  0
    1.6093    7.4191    4.1434 C   0  0  0  0  0  0  0  0  0  0  0  0
    2.0812    8.1877    2.6523 Cl  0  0  0  0  0  0  0  0  0  0  0  0
    0.9155    8.9640    7.4961 C   0  0  0  0  0  0  0  0  0  0  0  0
    5.7317   -1.7060   -6.9168 C   0  0  0  0  0  0  0  0  0  0  0  0
    6.2621   -3.0678   -6.6872 C   0  0  0  0  0  0  0  0  0  0  0  0
    4.7867   -2.8494   -7.0066 C   0  0  0  0  0  0  0  0  0  0  0  0
    4.8402    4.4684   -6.8801 Cl  0  0  0  0  0  0  0  0  0  0  0  0
    0.3654   -0.6963    0.8912 H   0  0  0  0  0  0  0  0  0  0  0  0
    0.5830   -0.5818   -0.9297 H   0  0  0  0  0  0  0  0  0  0  0  0
    0.6177    0.8482    0.1091 H   0  0  0  0  0  0  0  0  0  0  0  0
    2.4879    0.8431   -0.3980 H   0  0  0  0  0  0  0  0  0  0  0  0
    2.8788   -0.3282   -1.6484 H   0  0  0  0  0  0  0  0  0  0  0  0
    5.0965   -0.3188   -0.8271 H   0  0  0  0  0  0  0  0  0  0  0  0
    5.0145    1.1633    0.0240 H   0  0  0  0  0  0  0  0  0  0  0  0
    5.3835    3.3917   -1.2106 H   0  0  0  0  0  0  0  0  0  0  0  0
    5.3341    5.2649   -3.5632 H   0  0  0  0  0  0  0  0  0  0  0  0
    6.2209    0.1995   -4.4412 H   0  0  0  0  0  0  0  0  0  0  0  0
    6.5720    0.8652   -6.9690 H   0  0  0  0  0  0  0  0  0  0  0  0
    4.7055    0.7396   -7.2663 H   0  0  0  0  0  0  0  0  0  0  0  0
    7.9597   -0.4283   -2.9863 H   0  0  0  0  0  0  0  0  0  0  0  0
    7.3356    1.0510   -2.1328 H   0  0  0  0  0  0  0  0  0  0  0  0
    7.6043    0.8789   -5.0701 H   0  0  0  0  0  0  0  0  0  0  0  0
    6.8325    2.9367   -5.3996 H   0  0  0  0  0  0  0  0  0  0  0  0
    6.8892    3.2898   -3.7552 H   0  0  0  0  0  0  0  0  0  0  0  0
    3.7277    1.1972   -5.3558 H   0  0  0  0  0  0  0  0  0  0  0  0
    3.2717    2.5735   -4.9884 H   0  0  0  0  0  0  0  0  0  0  0  0
    3.0769   -0.8063   -4.7011 H   0  0  0  0  0  0  0  0  0  0  0  0
    1.5507    1.1285   -1.8652 H   0  0  0  0  0  0  0  0  0  0  0  0
    2.7626    2.2180    0.5038 H   0  0  0  0  0  0  0  0  0  0  0  0
    4.0308    3.0904   -3.1227 H   0  0  0  0  0  0  0  0  0  0  0  0
    3.0988    3.4086    2.1602 H   0  0  0  0  0  0  0  0  0  0  0  0
    1.5976    3.8362    1.2619 H   0  0  0  0  0  0  0  0  0  0  0  0
    1.8042    6.0280    1.7782 H   0  0  0  0  0  0  0  0  0  0  0  0
    3.3332    5.7677    2.7455 H   0  0  0  0  0  0  0  0  0  0  0  0
    0.4635    6.3108    7.6789 H   0  0  0  0  0  0  0  0  0  0  0  0
    1.6724    9.3891    4.9477 H   0  0  0  0  0  0  0  0  0  0  0  0
    0.5904    8.4892    8.4241 H   0  0  0  0  0  0  0  0  0  0  0  0
    0.1672    9.7004    7.1942 H   0  0  0  0  0  0  0  0  0  0  0  0
    1.8818    9.4455    7.6654 H   0  0  0  0  0  0  0  0  0  0  0  0
    6.0391   -1.1808   -7.8220 H   0  0  0  0  0  0  0  0  0  0  0  0
    6.5846   -3.3319   -5.6907 H   0  0  0  0  0  0  0  0  0  0  0  0
    7.0122   -3.4694   -7.3405 H   0  0  0  0  0  0  0  0  0  0  0  0
    4.0491   -2.9129   -6.2061 H   0  0  0  0  0  0  0  0  0  0  0  0
    4.3378   -3.1001   -7.9502 H   0  0  0  0  0  0  0  0  0  0  0  0
  1  2  1  0  0  0  0
  1 46  1  0  0  0  0
  1 47  1  0  0  0  0
  1 48  1  0  0  0  0
  2  3  1  0  0  0  0
  3  4  1  0  0  0  0
  3 49  1  0  0  0  0
  3 50  1  0  0  0  0
  4  5  1  0  0  0  0
  4 51  1  0  0  0  0
  4 52  1  0  0  0  0
  5  6  2  0  0  0  0
  5 10  1  0  0  0  0
  6  7  1  0  0  0  0
  6 53  1  0  0  0  0
  7  8  2  0  0  0  0
  7 54  1  0  0  0  0
  8  9  1  0  0  0  0
  8 45  1  0  0  0  0
  9 10  2  0  0  0  0
  9 11  1  0  0  0  0
 10 55  1  0  0  0  0
 11 12  1  0  0  0  0
 11 56  1  0  0  0  0
 11 57  1  0  0  0  0
 12 13  1  0  0  0  0
 12 42  1  0  0  0  0
 13 14  2  0  0  0  0
 13 15  1  0  0  0  0
 15 16  1  1  0  0  0
 15 17  1  0  0  0  0
 15 21  1  0  0  0  0
 17 18  1  0  0  0  0
 17 58  1  0  0  0  0
 17 59  1  0  0  0  0
 18 19  1  0  0  0  0
 18 60  1  0  0  0  0
 19 20  1  0  0  0  0
 19 61  1  0  0  0  0
 19 62  1  0  0  0  0
 20 21  1  0  0  0  0
 20 63  1  0  0  0  0
 20 64  1  0  0  0  0
 21 22  1  6  0  0  0
 21 23  1  0  0  0  0
 22 65  1  0  0  0  0
 23 24  2  0  0  0  0
 23 28  1  0  0  0  0
 24 25  1  0  0  0  0
 24 66  1  0  0  0  0
 25 26  2  0  0  0  0
 25 67  1  0  0  0  0
 26 27  1  0  0  0  0
 26 29  1  0  0  0  0
 27 28  2  0  0  0  0
 28 68  1  0  0  0  0
 29 30  1  0  0  0  0
 30 31  1  0  0  0  0
 30 69  1  0  0  0  0
 30 70  1  0  0  0  0
 31 32  1  0  0  0  0
 31 71  1  0  0  0  0
 31 72  1  0  0  0  0
 32 33  1  0  0  0  0
 33 34  2  0  0  0  0
 33 39  1  0  0  0  0
 34 35  1  0  0  0  0
 34 36  1  0  0  0  0
 36 37  2  0  0  0  0
 36 73  1  0  0  0  0
 37 38  1  0  0  0  0
 37 41  1  0  0  0  0
 38 39  2  0  0  0  0
 38 74  1  0  0  0  0
 39 40  1  0  0  0  0
 41 75  1  0  0  0  0
 41 76  1  0  0  0  0
 41 77  1  0  0  0  0
 42 43  1  0  0  0  0
 42 44  1  0  0  0  0
 42 78  1  0  0  0  0
 43 44  1  0  0  0  0
 43 79  1  0  0  0  0
 43 80  1  0  0  0  0
 44 81  1  0  0  0  0
 44 82  1  0  0  0  0
M  END
$$$$
