LPQ
 OpenBabel04121316153D

 83 88  0  0  1  0  0  0  0  0999 V2000
    0.9828    0.0864    0.0407 C   0  0  0  0  0  0  0  0  0  0  0  0
    2.4754    0.1038    0.0411 C   0  0  0  0  0  0  0  0  0  0  0  0
    3.1936    1.2969    0.0420 C   0  0  0  0  0  0  0  0  0  0  0  0
    4.5883    1.2717    0.0427 C   0  0  0  0  0  0  0  0  0  0  0  0
    5.4037    2.8047    0.0403 Cl  0  0  0  0  0  0  0  0  0  0  0  0
    5.2971    0.0515    0.0446 C   0  0  0  0  0  0  0  0  0  0  0  0
    4.5562   -1.1489    0.0440 C   0  0  0  0  0  0  0  0  0  0  0  0
    3.1627   -1.1067    0.0408 C   0  0  0  0  0  0  0  0  0  0  0  0
    5.1606   -2.7775    0.0462 Cl  0  0  0  0  0  0  0  0  0  0  0  0
    6.6582    0.2086    0.0452 O   0  0  0  0  0  0  0  0  0  0  0  0
    7.4323   -0.9706    0.0583 C   0  0  0  0  0  0  0  0  0  0  0  0
    8.8887   -0.6199    0.0891 C   0  0  0  0  0  0  0  0  0  0  0  0
    9.6095   -1.8454    0.1764 O   0  0  0  0  0  0  0  0  0  0  0  0
   10.9620   -1.6952    0.1770 C   0  0  0  0  0  0  0  0  0  0  0  0
   11.5847   -0.4661    0.1703 C   0  0  0  0  0  0  0  0  0  0  0  0
   12.9353   -0.4236   -0.0891 C   0  0  0  0  0  0  0  0  0  0  0  0
   13.6599   -1.6037   -0.2956 C   0  0  0  0  0  0  0  0  0  0  0  0
   12.9775   -2.7812   -0.0223 C   0  0  0  0  0  0  0  0  0  0  0  0
   11.6420   -2.8549    0.1525 N   0  0  0  0  0  0  0  0  0  0  0  0
   15.1009   -1.5937   -0.8104 C   0  0  1  0  0  0  0  0  0  0  0  0
   15.8069   -1.7790   -0.0215 H   0  0  0  0  0  0  0  0  0  0  0  0
   15.4944   -2.8032   -1.6374 C   0  0  0  0  0  0  0  0  0  0  0  0
   14.7232   -2.7669   -2.9280 C   0  0  0  0  0  0  0  0  0  0  0  0
   14.9863   -1.5328   -3.6634 N   0  0  0  0  0  0  0  0  0  0  0  0
   14.6987   -0.3167   -2.9004 C   0  0  0  0  0  0  0  0  0  0  0  0
   15.4219   -0.2882   -1.5550 C   0  0  2  0  0  0  0  0  0  0  0  0
   15.0811    0.6265   -1.0729 H   0  0  0  0  0  0  0  0  0  0  0  0
   16.9133   -0.0630   -1.6490 C   0  0  0  0  0  0  0  0  0  0  0  0
   17.4562    0.1094   -2.7256 O   0  0  0  0  0  0  0  0  0  0  0  0
   17.6353   -0.0231   -0.4349 N   0  0  0  0  0  0  0  0  0  0  0  0
   17.1661    0.0457    0.9712 C   0  0  0  0  0  0  0  0  0  0  0  0
   16.0096    0.8453    1.4709 C   0  0  0  0  0  0  0  0  0  0  0  0
   16.0345   -0.6375    1.7084 C   0  0  0  0  0  0  0  0  0  0  0  0
   19.0848    0.0763   -0.7113 C   0  0  0  0  0  0  0  0  0  0  0  0
   19.9708    0.0967    0.4939 C   0  0  0  0  0  0  0  0  0  0  0  0
   20.2321    1.3436    1.0707 C   0  0  0  0  0  0  0  0  0  0  0  0
   21.0413    1.4616    2.1995 C   0  0  0  0  0  0  0  0  0  0  0  0
   21.4810    2.8081    2.7077 C   0  0  0  0  0  0  0  0  0  0  0  0
   20.8398    3.9251    2.0037 N   0  0  0  0  0  0  0  0  0  0  0  0
   21.4295    5.1926    2.3943 C   0  0  0  0  0  0  0  0  0  0  0  0
   22.3760    5.7736    1.3787 C   0  0  0  0  0  0  0  0  0  0  0  0
   21.1167    6.5021    1.7421 C   0  0  0  0  0  0  0  0  0  0  0  0
   21.4852    0.2933    2.8300 C   0  0  0  0  0  0  0  0  0  0  0  0
   21.1215   -0.9600    2.3343 C   0  0  0  0  0  0  0  0  0  0  0  0
   20.4158   -1.0598    1.1376 C   0  0  0  0  0  0  0  0  0  0  0  0
   20.0637   -2.6316    0.5218 Cl  0  0  0  0  0  0  0  0  0  0  0  0
    0.5775    1.1009    0.0421 H   0  0  0  0  0  0  0  0  0  0  0  0
    0.6218   -0.4331    0.9337 H   0  0  0  0  0  0  0  0  0  0  0  0
    0.6219   -0.4309   -0.8536 H   0  0  0  0  0  0  0  0  0  0  0  0
    2.6689    2.2492    0.0418 H   0  0  0  0  0  0  0  0  0  0  0  0
    2.6052   -2.0424    0.0382 H   0  0  0  0  0  0  0  0  0  0  0  0
    7.2547   -1.5494   -0.8536 H   0  0  0  0  0  0  0  0  0  0  0  0
    7.2285   -1.5468    0.9661 H   0  0  0  0  0  0  0  0  0  0  0  0
    9.0764    0.0003    0.9734 H   0  0  0  0  0  0  0  0  0  0  0  0
    9.1394   -0.0551   -0.8201 H   0  0  0  0  0  0  0  0  0  0  0  0
   11.0592    0.4704    0.2980 H   0  0  0  0  0  0  0  0  0  0  0  0
   13.3603    0.5692   -0.1709 H   0  0  0  0  0  0  0  0  0  0  0  0
   13.4846   -3.7386    0.0354 H   0  0  0  0  0  0  0  0  0  0  0  0
   15.3199   -3.7212   -1.0632 H   0  0  0  0  0  0  0  0  0  0  0  0
   16.5809   -2.7885   -1.8130 H   0  0  0  0  0  0  0  0  0  0  0  0
   13.6525   -2.8590   -2.7213 H   0  0  0  0  0  0  0  0  0  0  0  0
   15.0259   -3.6325   -3.5164 H   0  0  0  0  0  0  0  0  0  0  0  0
   14.4442   -1.5256   -4.5217 H   0  0  0  0  0  0  0  0  0  0  0  0
   13.6148   -0.2503   -2.7265 H   0  0  0  0  0  0  0  0  0  0  0  0
   14.9491    0.5782   -3.4813 H   0  0  0  0  0  0  0  0  0  0  0  0
   18.0074    0.0812    1.6544 H   0  0  0  0  0  0  0  0  0  0  0  0
   15.3554    1.2750    0.7277 H   0  0  0  0  0  0  0  0  0  0  0  0
   16.0166    1.4317    2.3744 H   0  0  0  0  0  0  0  0  0  0  0  0
   15.0712   -1.0535    1.4769 H   0  0  0  0  0  0  0  0  0  0  0  0
   16.3700   -1.2002    2.5732 H   0  0  0  0  0  0  0  0  0  0  0  0
   19.2661    0.9892   -1.3026 H   0  0  0  0  0  0  0  0  0  0  0  0
   19.3842   -0.7386   -1.3839 H   0  0  0  0  0  0  0  0  0  0  0  0
   19.7716    2.2260    0.6260 H   0  0  0  0  0  0  0  0  0  0  0  0
   22.5704    2.8623    2.5758 H   0  0  0  0  0  0  0  0  0  0  0  0
   21.2580    2.8793    3.7780 H   0  0  0  0  0  0  0  0  0  0  0  0
   19.8355    3.8970    2.1603 H   0  0  0  0  0  0  0  0  0  0  0  0
   21.6201    5.2937    3.4600 H   0  0  0  0  0  0  0  0  0  0  0  0
   22.4051    5.3283    0.3873 H   0  0  0  0  0  0  0  0  0  0  0  0
   23.3419    6.0912    1.7440 H   0  0  0  0  0  0  0  0  0  0  0  0
   20.3188    6.5554    1.0135 H   0  0  0  0  0  0  0  0  0  0  0  0
   21.2177    7.3928    2.3539 H   0  0  0  0  0  0  0  0  0  0  0  0
   22.1213    0.3522    3.7102 H   0  0  0  0  0  0  0  0  0  0  0  0
   21.3953   -1.8570    2.8819 H   0  0  0  0  0  0  0  0  0  0  0  0
  1  2  1  0  0  0  0
  1 47  1  0  0  0  0
  1 48  1  0  0  0  0
  1 49  1  0  0  0  0
  2  3  2  0  0  0  0
  2  8  1  0  0  0  0
  3  4  1  0  0  0  0
  3 50  1  0  0  0  0
  4  5  1  0  0  0  0
  4  6  2  0  0  0  0
  6  7  1  0  0  0  0
  6 10  1  0  0  0  0
  7  8  2  0  0  0  0
  7  9  1  0  0  0  0
  8 51  1  0  0  0  0
 10 11  1  0  0  0  0
 11 12  1  0  0  0  0
 11 52  1  0  0  0  0
 11 53  1  0  0  0  0
 12 13  1  0  0  0  0
 12 54  1  0  0  0  0
 12 55  1  0  0  0  0
 13 14  1  0  0  0  0
 14 15  2  0  0  0  0
 14 19  1  0  0  0  0
 15 16  1  0  0  0  0
 15 56  1  0  0  0  0
 16 17  2  0  0  0  0
 16 57  1  0  0  0  0
 17 18  1  0  0  0  0
 17 20  1  0  0  0  0
 18 19  2  0  0  0  0
 18 58  1  0  0  0  0
 20 21  1  1  0  0  0
 20 22  1  0  0  0  0
 20 26  1  0  0  0  0
 22 23  1  0  0  0  0
 22 59  1  0  0  0  0
 22 60  1  0  0  0  0
 23 24  1  0  0  0  0
 23 61  1  0  0  0  0
 23 62  1  0  0  0  0
 24 25  1  0  0  0  0
 24 63  1  0  0  0  0
 25 26  1  0  0  0  0
 25 64  1  0  0  0  0
 25 65  1  0  0  0  0
 26 27  1  1  0  0  0
 26 28  1  0  0  0  0
 28 29  2  0  0  0  0
 28 30  1  0  0  0  0
 30 31  1  0  0  0  0
 30 34  1  0  0  0  0
 31 32  1  0  0  0  0
 31 33  1  0  0  0  0
 31 66  1  0  0  0  0
 32 33  1  0  0  0  0
 32 67  1  0  0  0  0
 32 68  1  0  0  0  0
 33 69  1  0  0  0  0
 33 70  1  0  0  0  0
 34 35  1  0  0  0  0
 34 71  1  0  0  0  0
 34 72  1  0  0  0  0
 35 36  2  0  0  0  0
 35 45  1  0  0  0  0
 36 37  1  0  0  0  0
 36 73  1  0  0  0  0
 37 38  1  0  0  0  0
 37 43  2  0  0  0  0
 38 39  1  0  0  0  0
 38 74  1  0  0  0  0
 38 75  1  0  0  0  0
 39 40  1  0  0  0  0
 39 76  1  0  0  0  0
 40 41  1  0  0  0  0
 40 42  1  0  0  0  0
 40 77  1  0  0  0  0
 41 42  1  0  0  0  0
 41 78  1  0  0  0  0
 41 79  1  0  0  0  0
 42 80  1  0  0  0  0
 42 81  1  0  0  0  0
 43 44  1  0  0  0  0
 43 82  1  0  0  0  0
 44 45  2  0  0  0  0
 44 83  1  0  0  0  0
 45 46  1  0  0  0  0
M  END
$$$$
