LS1
 OpenBabel04121316153D

 38 40  0  0  0  0  0  0  0  0999 V2000
    1.0919    0.0255   -0.0481 C   0  0  0  0  0  0  0  0  0  0  0  0
    2.5715    0.0945    0.0427 N   0  0  0  0  0  0  0  0  0  0  0  0
    3.0911    0.6206    1.5837 S   0  0  0  0  0  0  0  0  0  0  0  0
    2.6632    1.9996    1.6727 O   0  0  0  0  0  0  0  0  0  0  0  0
    2.6843   -0.3740    2.5506 O   0  0  0  0  0  0  0  0  0  0  0  0
    4.8654    0.6167    1.5134 C   0  0  0  0  0  0  0  0  0  0  0  0
    5.5799    1.6379    2.1474 C   0  0  0  0  0  0  0  0  0  0  0  0
    6.9726    1.7382    1.9690 C   0  0  0  0  0  0  0  0  0  0  0  0
    7.6870    0.7704    1.2406 C   0  0  0  0  0  0  0  0  0  0  0  0
    6.9529   -0.3254    0.7557 C   0  0  0  0  0  0  0  0  0  0  0  0
    5.5512   -0.3756    0.8247 C   0  0  0  0  0  0  0  0  0  0  0  0
    9.0807    0.9149    1.0372 N   0  0  0  0  0  0  0  0  0  0  0  0
    9.9375    0.0931    0.3228 C   0  0  0  0  0  0  0  0  0  0  0  0
   11.2453    0.2204    0.0397 C   0  0  0  0  0  0  0  0  0  0  0  0
   12.1062    1.3880    0.4549 C   0  0  0  0  0  0  0  0  0  0  0  0
   11.7711    2.3744    1.0731 O   0  0  0  0  0  0  0  0  0  0  0  0
   13.3721    1.0896   -0.0342 N   0  0  0  0  0  0  0  0  0  0  0  0
   13.3891   -0.1281   -0.7043 C   0  0  0  0  0  0  0  0  0  0  0  0
   12.1179   -0.7153   -0.7018 C   0  0  0  0  0  0  0  0  0  0  0  0
   11.9411   -1.9425   -1.3226 C   0  0  0  0  0  0  0  0  0  0  0  0
   13.0523   -2.5511   -1.9373 C   0  0  0  0  0  0  0  0  0  0  0  0
   14.3184   -1.9393   -1.9246 C   0  0  0  0  0  0  0  0  0  0  0  0
   14.4952   -0.7074   -1.2992 C   0  0  0  0  0  0  0  0  0  0  0  0
    0.7965   -0.3339   -1.0385 H   0  0  0  0  0  0  0  0  0  0  0  0
    0.6572    1.0214    0.0841 H   0  0  0  0  0  0  0  0  0  0  0  0
    0.6843   -0.6607    0.6992 H   0  0  0  0  0  0  0  0  0  0  0  0
    2.9545    0.7002   -0.6854 H   0  0  0  0  0  0  0  0  0  0  0  0
    5.0610    2.3611    2.7757 H   0  0  0  0  0  0  0  0  0  0  0  0
    7.4873    2.5919    2.4069 H   0  0  0  0  0  0  0  0  0  0  0  0
    7.4559   -1.1704    0.3000 H   0  0  0  0  0  0  0  0  0  0  0  0
    5.0206   -1.1967    0.3502 H   0  0  0  0  0  0  0  0  0  0  0  0
    9.4952    1.7908    1.3646 H   0  0  0  0  0  0  0  0  0  0  0  0
    9.4428   -0.7948   -0.0498 H   0  0  0  0  0  0  0  0  0  0  0  0
   14.1715    1.6912    0.0889 H   0  0  0  0  0  0  0  0  0  0  0  0
   10.9783   -2.4417   -1.3441 H   0  0  0  0  0  0  0  0  0  0  0  0
   12.9413   -3.5143   -2.4339 H   0  0  0  0  0  0  0  0  0  0  0  0
   15.1658   -2.4278   -2.4034 H   0  0  0  0  0  0  0  0  0  0  0  0
   15.4670   -0.2278   -1.2824 H   0  0  0  0  0  0  0  0  0  0  0  0
  1  2  1  0  0  0  0
  1 24  1  0  0  0  0
  1 25  1  0  0  0  0
  1 26  1  0  0  0  0
  2  3  1  0  0  0  0
  2 27  1  0  0  0  0
  3  4  2  0  0  0  0
  3  5  2  0  0  0  0
  3  6  1  0  0  0  0
  6  7  2  0  0  0  0
  6 11  1  0  0  0  0
  7  8  1  0  0  0  0
  7 28  1  0  0  0  0
  8  9  2  0  0  0  0
  8 29  1  0  0  0  0
  9 10  1  0  0  0  0
  9 12  1  0  0  0  0
 10 11  2  0  0  0  0
 10 30  1  0  0  0  0
 11 31  1  0  0  0  0
 12 13  1  0  0  0  0
 12 32  1  0  0  0  0
 13 14  2  0  0  0  0
 13 33  1  0  0  0  0
 14 15  1  0  0  0  0
 14 19  1  0  0  0  0
 15 16  2  0  0  0  0
 15 17  1  0  0  0  0
 17 18  1  0  0  0  0
 17 34  1  0  0  0  0
 18 19  2  0  0  0  0
 18 23  1  0  0  0  0
 19 20  1  0  0  0  0
 20 21  2  0  0  0  0
 20 35  1  0  0  0  0
 21 22  1  0  0  0  0
 21 36  1  0  0  0  0
 22 23  2  0  0  0  0
 22 37  1  0  0  0  0
 23 38  1  0  0  0  0
M  END
$$$$
