LS2
 OpenBabel04121316153D

 42 45  0  0  0  0  0  0  0  0999 V2000
    1.1206    0.0069   -0.0135 C   0  0  0  0  0  0  0  0  0  0  0  0
    2.6042    0.0765   -0.0892 N   0  0  0  0  0  0  0  0  0  0  0  0
    3.1126    1.5828   -0.6942 S   0  0  0  0  0  0  0  0  0  0  0  0
    2.6899    1.5840   -2.0790 O   0  0  0  0  0  0  0  0  0  0  0  0
    2.6201    2.5647    0.2501 O   0  0  0  0  0  0  0  0  0  0  0  0
    4.9323    1.4993   -0.6149 C   0  0  0  0  0  0  0  0  0  0  0  0
    5.4375    2.8216   -1.1359 C   0  0  0  0  0  0  0  0  0  0  0  0
    5.1812    3.9949   -0.4116 C   0  0  0  0  0  0  0  0  0  0  0  0
    5.3247    5.2395   -1.0113 C   0  0  0  0  0  0  0  0  0  0  0  0
    5.8762    5.3445   -2.2816 C   0  0  0  0  0  0  0  0  0  0  0  0
    6.3421    4.1781   -2.9105 C   0  0  0  0  0  0  0  0  0  0  0  0
    6.0616    2.9196   -2.3813 C   0  0  0  0  0  0  0  0  0  0  0  0
    6.0288    6.6162   -2.8482 N   0  0  0  0  0  0  0  0  0  0  0  0
    6.4264    6.6442   -4.1243 N   0  0  0  0  0  0  0  0  0  0  0  0
    6.4948    7.7843   -4.7143 C   0  0  0  0  0  0  0  0  0  0  0  0
    6.1726    9.1724   -4.1761 C   0  0  0  0  0  0  0  0  0  0  0  0
    5.4030    9.4049   -3.2610 O   0  0  0  0  0  0  0  0  0  0  0  0
    6.8778   10.0461   -4.9900 N   0  0  0  0  0  0  0  0  0  0  0  0
    7.3438    9.3963   -6.1274 C   0  0  0  0  0  0  0  0  0  0  0  0
    7.0683    8.0206   -5.9859 C   0  0  0  0  0  0  0  0  0  0  0  0
    7.4100    7.2181   -7.0153 C   0  0  0  0  0  0  0  0  0  0  0  0
    7.1033    5.5834   -6.9217 S   0  0  0  0  0  0  0  0  0  0  0  0
    7.7679    5.4553   -8.5025 C   0  0  0  0  0  0  0  0  0  0  0  0
    8.1833    6.5798   -9.0671 N   0  0  0  0  0  0  0  0  0  0  0  0
    7.9771    7.6345   -8.1892 C   0  0  0  0  0  0  0  0  0  0  0  0
    8.2405    9.0245   -8.3116 C   0  0  0  0  0  0  0  0  0  0  0  0
    7.9354    9.9429   -7.2625 C   0  0  0  0  0  0  0  0  0  0  0  0
    0.8189   -0.9617    0.3922 H   0  0  0  0  0  0  0  0  0  0  0  0
    0.6897    0.0975   -1.0161 H   0  0  0  0  0  0  0  0  0  0  0  0
    0.7190    0.7916    0.6340 H   0  0  0  0  0  0  0  0  0  0  0  0
    2.9622   -0.6851   -0.6666 H   0  0  0  0  0  0  0  0  0  0  0  0
    5.2581    0.6673   -1.2469 H   0  0  0  0  0  0  0  0  0  0  0  0
    5.2488    1.3421    0.4181 H   0  0  0  0  0  0  0  0  0  0  0  0
    4.7765    3.9514    0.5968 H   0  0  0  0  0  0  0  0  0  0  0  0
    4.9727    6.1267   -0.4937 H   0  0  0  0  0  0  0  0  0  0  0  0
    6.8830    4.2457   -3.8519 H   0  0  0  0  0  0  0  0  0  0  0  0
    6.3033    2.0380   -2.9702 H   0  0  0  0  0  0  0  0  0  0  0  0
    5.4521    7.3666   -2.4584 H   0  0  0  0  0  0  0  0  0  0  0  0
    6.9387   11.0347   -4.7934 H   0  0  0  0  0  0  0  0  0  0  0  0
    7.8233    4.4869   -8.9786 H   0  0  0  0  0  0  0  0  0  0  0  0
    8.6745    9.3878   -9.2391 H   0  0  0  0  0  0  0  0  0  0  0  0
    8.1277   11.0048   -7.3668 H   0  0  0  0  0  0  0  0  0  0  0  0
  1  2  1  0  0  0  0
  1 28  1  0  0  0  0
  1 29  1  0  0  0  0
  1 30  1  0  0  0  0
  2  3  1  0  0  0  0
  2 31  1  0  0  0  0
  3  4  2  0  0  0  0
  3  5  2  0  0  0  0
  3  6  1  0  0  0  0
  6  7  1  0  0  0  0
  6 32  1  0  0  0  0
  6 33  1  0  0  0  0
  7  8  2  0  0  0  0
  7 12  1  0  0  0  0
  8  9  1  0  0  0  0
  8 34  1  0  0  0  0
  9 10  2  0  0  0  0
  9 35  1  0  0  0  0
 10 11  1  0  0  0  0
 10 13  1  0  0  0  0
 11 12  2  0  0  0  0
 11 36  1  0  0  0  0
 12 37  1  0  0  0  0
 13 14  1  0  0  0  0
 13 38  1  0  0  0  0
 14 15  2  0  0  0  0
 15 16  1  0  0  0  0
 15 20  1  0  0  0  0
 16 17  2  0  0  0  0
 16 18  1  0  0  0  0
 18 19  1  0  0  0  0
 18 39  1  0  0  0  0
 19 20  2  0  0  0  0
 19 27  1  0  0  0  0
 20 21  1  0  0  0  0
 21 22  1  0  0  0  0
 21 25  2  0  0  0  0
 22 23  1  0  0  0  0
 23 24  2  0  0  0  0
 23 40  1  0  0  0  0
 24 25  1  0  0  0  0
 25 26  1  0  0  0  0
 26 27  2  0  0  0  0
 26 41  1  0  0  0  0
 27 42  1  0  0  0  0
M  END
$$$$
