LSA
 OpenBabel04121316153D

 17 18  0  0  0  0  0  0  0  0999 V2000
    1.2315    0.0784   -0.0719 O   0  0  0  0  0  0  0  0  0  0  0  0
    2.4452    0.0683   -0.0675 C   0  0  0  0  0  0  0  0  0  0  0  0
    3.2165   -1.1094   -0.0600 N   0  0  0  0  0  0  0  0  0  0  0  0
    4.8569   -0.8734   -0.0999 S   0  0  0  0  0  0  0  0  0  0  0  0
    5.3720   -1.2414   -1.3902 O   0  0  0  0  0  0  0  0  0  0  0  0
    5.4388   -1.2778    1.1598 O   0  0  0  0  0  0  0  0  0  0  0  0
    4.6942    0.8440   -0.0721 C   0  0  0  0  0  0  0  0  0  0  0  0
    3.3656    1.2465   -0.0681 C   0  0  0  0  0  0  0  0  0  0  0  0
    3.0966    2.6101   -0.0686 C   0  0  0  0  0  0  0  0  0  0  0  0
    4.1906    3.5078   -0.0680 C   0  0  0  0  0  0  0  0  0  0  0  0
    5.5216    3.0506   -0.0686 C   0  0  0  0  0  0  0  0  0  0  0  0
    5.7807    1.6931   -0.0699 C   0  0  0  0  0  0  0  0  0  0  0  0
    2.8438   -2.0512   -0.0703 H   0  0  0  0  0  0  0  0  0  0  0  0
    2.0820    3.0013   -0.0723 H   0  0  0  0  0  0  0  0  0  0  0  0
    4.0207    4.5839   -0.0679 H   0  0  0  0  0  0  0  0  0  0  0  0
    6.3588    3.7455   -0.0718 H   0  0  0  0  0  0  0  0  0  0  0  0
    6.7866    1.2881   -0.0734 H   0  0  0  0  0  0  0  0  0  0  0  0
  1  2  2  0  0  0  0
  2  3  1  0  0  0  0
  2  8  1  0  0  0  0
  3  4  1  0  0  0  0
  3 13  1  0  0  0  0
  4  5  2  0  0  0  0
  4  6  2  0  0  0  0
  4  7  1  0  0  0  0
  7  8  2  0  0  0  0
  7 12  1  0  0  0  0
  8  9  1  0  0  0  0
  9 10  2  0  0  0  0
  9 14  1  0  0  0  0
 10 11  1  0  0  0  0
 10 15  1  0  0  0  0
 11 12  2  0  0  0  0
 11 16  1  0  0  0  0
 12 17  1  0  0  0  0
M  END
$$$$
