LT2
 OpenBabel04121316153D

 19 20  0  0  1  0  0  0  0  0999 V2000
    2.7663    0.0557    1.4067 O   0  0  0  0  0  0  0  0  0  0  0  0
    2.2519   -0.0010    0.0812 C   0  0  2  0  0  0  0  0  0  0  0  0
    1.1576    0.0082    0.1138 H   0  0  0  0  0  0  0  0  0  0  0  0
    2.7773   -1.2452   -0.6762 C   0  0  0  0  0  0  0  0  0  0  0  0
    3.5752   -0.6860   -1.7566 N   0  0  0  0  0  0  0  0  0  0  0  0
    3.5770    0.6751   -1.8083 C   0  0  0  0  0  0  0  0  0  0  0  0
    4.1761    1.4948   -2.6747 C   0  0  0  0  0  0  0  0  0  0  0  0
    4.0449    2.9608   -2.4877 C   0  0  0  0  0  0  0  0  0  0  0  0
    4.5915    3.7401   -3.2571 O   0  0  0  0  0  0  0  0  0  0  0  0
    3.2136    3.4663   -1.3024 C   0  0  0  0  0  0  0  0  0  0  0  0
    3.0604    4.6599   -1.0827 O   0  0  0  0  0  0  0  0  0  0  0  0
    2.5939    2.4592   -0.4229 C   0  0  0  0  0  0  0  0  0  0  0  0
    2.7870    1.1687   -0.7020 C   0  0  0  0  0  0  0  0  0  0  0  0
    3.7376    0.0427    1.3320 H   0  0  0  0  0  0  0  0  0  0  0  0
    1.9454   -1.8343   -1.0740 H   0  0  0  0  0  0  0  0  0  0  0  0
    3.3976   -1.8769   -0.0325 H   0  0  0  0  0  0  0  0  0  0  0  0
    4.0146   -1.2652   -2.4629 H   0  0  0  0  0  0  0  0  0  0  0  0
    4.7723    1.1589   -3.5121 H   0  0  0  0  0  0  0  0  0  0  0  0
    2.0112    2.8026    0.4214 H   0  0  0  0  0  0  0  0  0  0  0  0
  1 14  1  0  0  0  0
  2  4  1  0  0  0  0
  2 13  1  0  0  0  0
  2  3  1  1  0  0  0
  2  1  1  0  0  0  0
  4  5  1  0  0  0  0
  4 15  1  0  0  0  0
  4 16  1  0  0  0  0
  5  6  1  0  0  0  0
  5 17  1  0  0  0  0
  6  7  2  0  0  0  0
  6 13  1  0  0  0  0
  7  8  1  0  0  0  0
  7 18  1  0  0  0  0
  8  9  2  0  0  0  0
  8 10  1  0  0  0  0
 10 11  2  0  0  0  0
 10 12  1  0  0  0  0
 12 13  2  0  0  0  0
 12 19  1  0  0  0  0
M  END
$$$$
