LVA
 OpenBabel04121316153D

 68 69  0  0  1  0  0  0  0  0999 V2000
   -9.8857   -2.1835   -0.4825 C   0  0  0  0  0  0  0  0  0  0  0  0
   -9.9935   -3.4705   -1.1540 C   0  0  0  0  0  0  0  0  0  0  0  0
   -9.2153   -3.5839   -2.4814 C   0  0  1  0  0  0  0  0  0  0  0  0
   -9.6908   -3.0887   -3.3309 H   0  0  0  0  0  0  0  0  0  0  0  0
   -7.7594   -3.1890   -2.5920 C   0  0  0  0  0  0  0  0  0  0  0  0
   -6.8975   -4.0515   -2.7923 O   0  0  0  0  0  0  0  0  0  0  0  0
   -7.4024   -1.8800   -2.5925 O   0  0  0  0  0  0  0  0  0  0  0  0
   -7.8749   -0.5130   -2.1394 C   0  0  1  0  0  0  0  0  0  0  0  0
   -7.1456    0.1729   -2.5982 H   0  0  0  0  0  0  0  0  0  0  0  0
   -9.1256   -0.4459   -2.9384 C   0  0  0  0  0  0  0  0  0  0  0  0
  -10.2462    0.4594   -2.5279 C   0  0  1  0  0  0  0  0  0  0  0  0
  -10.1339    1.3909   -3.0817 H   0  0  0  0  0  0  0  0  0  0  0  0
  -11.5137   -0.3128   -3.0366 C   0  0  0  0  0  0  0  0  0  0  0  0
  -10.2784    0.7419   -1.0162 C   0  0  0  0  0  0  0  0  0  0  0  0
   -9.2772    0.5223   -0.1203 C   0  0  0  0  0  0  0  0  0  0  0  0
   -7.8978   -0.0408   -0.5563 C   0  0  1  0  0  0  0  0  0  0  0  0
   -7.2371    0.8416   -0.5183 H   0  0  0  0  0  0  0  0  0  0  0  0
   -7.2931   -1.0160    0.5508 C   0  0  1  0  0  0  0  0  0  0  0  0
   -7.7938   -1.9835    0.6769 H   0  0  0  0  0  0  0  0  0  0  0  0
   -5.8598   -1.3991    0.2806 C   0  0  0  0  0  0  0  0  0  0  0  0
   -5.6513   -2.1267   -1.0113 C   0  0  0  0  0  0  0  0  0  0  0  0
   -4.3796   -2.7199   -1.5491 C   0  0  2  0  0  0  0  0  0  0  0  0
   -4.4821   -3.7785   -1.8247 H   0  0  0  0  0  0  0  0  0  0  0  0
   -3.3914   -2.5045   -0.4700 C   0  0  0  0  0  0  0  0  0  0  0  0
   -3.8100   -3.2884    0.8060 C   0  0  2  0  0  0  0  0  0  0  0  0
   -3.9660   -2.5826    1.6345 H   0  0  0  0  0  0  0  0  0  0  0  0
   -2.7611   -4.2604    1.1881 C   0  0  0  0  0  0  0  0  0  0  0  0
   -1.4962   -3.5234    1.4370 C   0  0  0  0  0  0  0  0  0  0  0  0
   -1.3636   -2.2825    1.4224 O   0  0  0  0  0  0  0  0  0  0  0  0
   -0.4790   -4.3504    1.6848 O   0  0  0  0  0  0  0  0  0  0  0  0
   -4.9771   -4.1225    0.6504 O   0  0  0  0  0  0  0  0  0  0  0  0
   -4.0184   -2.0064   -2.7386 O   0  0  0  0  0  0  0  0  0  0  0  0
   -7.3924   -0.5020    2.0026 C   0  0  2  0  0  0  0  0  0  0  0  0
   -7.2553   -1.3702    2.6758 H   0  0  0  0  0  0  0  0  0  0  0  0
   -8.7418    0.0741    2.2813 C   0  0  0  0  0  0  0  0  0  0  0  0
   -9.5684    0.5433    1.3308 C   0  0  0  0  0  0  0  0  0  0  0  0
   -6.2857    0.4977    2.2876 C   0  0  0  0  0  0  0  0  0  0  0  0
   -9.3441   -5.0467   -2.8338 C   0  0  0  0  0  0  0  0  0  0  0  0
  -10.2166   -2.0656    0.5466 H   0  0  0  0  0  0  0  0  0  0  0  0
  -10.4201   -1.4652   -1.0492 H   0  0  0  0  0  0  0  0  0  0  0  0
   -8.8509   -2.0126   -0.6007 H   0  0  0  0  0  0  0  0  0  0  0  0
  -11.0595   -3.5812   -1.3450 H   0  0  0  0  0  0  0  0  0  0  0  0
   -9.6256   -4.1803   -0.4128 H   0  0  0  0  0  0  0  0  0  0  0  0
   -9.5618   -1.4074   -2.7966 H   0  0  0  0  0  0  0  0  0  0  0  0
   -8.9189   -0.5270   -4.0160 H   0  0  0  0  0  0  0  0  0  0  0  0
  -11.3797   -0.6395   -4.0799 H   0  0  0  0  0  0  0  0  0  0  0  0
  -12.4146    0.2874   -2.9618 H   0  0  0  0  0  0  0  0  0  0  0  0
  -11.7115   -1.2503   -2.4920 H   0  0  0  0  0  0  0  0  0  0  0  0
  -11.2829    0.9034   -0.6205 H   0  0  0  0  0  0  0  0  0  0  0  0
   -5.6644   -2.0275    1.1373 H   0  0  0  0  0  0  0  0  0  0  0  0
   -5.2149   -0.5277    0.2703 H   0  0  0  0  0  0  0  0  0  0  0  0
   -5.7877   -1.3158   -1.7049 H   0  0  0  0  0  0  0  0  0  0  0  0
   -6.3514   -2.9529   -0.9220 H   0  0  0  0  0  0  0  0  0  0  0  0
   -3.3497   -1.4218   -0.2619 H   0  0  0  0  0  0  0  0  0  0  0  0
   -2.3907   -2.7211   -0.8448 H   0  0  0  0  0  0  0  0  0  0  0  0
   -2.6713   -4.9833    0.3693 H   0  0  0  0  0  0  0  0  0  0  0  0
   -3.0983   -4.7805    2.0900 H   0  0  0  0  0  0  0  0  0  0  0  0
   -0.7758   -5.2826    1.6699 H   0  0  0  0  0  0  0  0  0  0  0  0
   -5.4982   -4.1145    1.4737 H   0  0  0  0  0  0  0  0  0  0  0  0
   -3.2026   -2.3909   -3.0920 H   0  0  0  0  0  0  0  0  0  0  0  0
   -9.0550    0.0516    3.3267 H   0  0  0  0  0  0  0  0  0  0  0  0
  -10.5496    0.8802    1.6652 H   0  0  0  0  0  0  0  0  0  0  0  0
   -5.2968    0.0414    2.1678 H   0  0  0  0  0  0  0  0  0  0  0  0
   -6.3194    0.8697    3.3083 H   0  0  0  0  0  0  0  0  0  0  0  0
   -6.3631    1.3259    1.5786 H   0  0  0  0  0  0  0  0  0  0  0  0
  -10.4022   -5.2408   -3.0138 H   0  0  0  0  0  0  0  0  0  0  0  0
   -8.9836   -5.6596   -2.0012 H   0  0  0  0  0  0  0  0  0  0  0  0
   -8.7729   -5.2865   -3.7311 H   0  0  0  0  0  0  0  0  0  0  0  0
  1  2  1  0  0  0  0
  1 39  1  0  0  0  0
  1 40  1  0  0  0  0
  1 41  1  0  0  0  0
  2  3  1  0  0  0  0
  2 42  1  0  0  0  0
  2 43  1  0  0  0  0
  3  4  1  6  0  0  0
  3  5  1  0  0  0  0
  3 38  1  0  0  0  0
  5  6  2  0  0  0  0
  5  7  1  0  0  0  0
  8 10  1  0  0  0  0
  8 16  1  0  0  0  0
  8  9  1  6  0  0  0
  8  7  1  0  0  0  0
 10 11  1  0  0  0  0
 10 44  1  0  0  0  0
 10 45  1  0  0  0  0
 11 12  1  6  0  0  0
 11 13  1  0  0  0  0
 11 14  1  0  0  0  0
 13 46  1  0  0  0  0
 13 47  1  0  0  0  0
 13 48  1  0  0  0  0
 14 15  2  0  0  0  0
 14 49  1  0  0  0  0
 15 16  1  0  0  0  0
 15 36  1  0  0  0  0
 16 17  1  1  0  0  0
 16 18  1  0  0  0  0
 18 19  1  6  0  0  0
 18 20  1  0  0  0  0
 18 33  1  0  0  0  0
 20 21  1  0  0  0  0
 20 50  1  0  0  0  0
 20 51  1  0  0  0  0
 21 52  1  0  0  0  0
 21 53  1  0  0  0  0
 22 24  1  0  0  0  0
 22 32  1  0  0  0  0
 22 23  1  6  0  0  0
 22 21  1  0  0  0  0
 24 54  1  0  0  0  0
 24 55  1  0  0  0  0
 25 27  1  0  0  0  0
 25 31  1  0  0  0  0
 25 26  1  1  0  0  0
 25 24  1  0  0  0  0
 27 28  1  0  0  0  0
 27 56  1  0  0  0  0
 27 57  1  0  0  0  0
 28 29  2  0  0  0  0
 28 30  1  0  0  0  0
 30 58  1  0  0  0  0
 31 59  1  0  0  0  0
 32 60  1  0  0  0  0
 33 34  1  1  0  0  0
 33 35  1  0  0  0  0
 33 37  1  0  0  0  0
 35 36  2  0  0  0  0
 35 61  1  0  0  0  0
 36 62  1  0  0  0  0
 37 63  1  0  0  0  0
 37 64  1  0  0  0  0
 37 65  1  0  0  0  0
 38 66  1  0  0  0  0
 38 67  1  0  0  0  0
 38 68  1  0  0  0  0
M  END
$$$$
