LW4
 OpenBabel04121316153D

 55 60  0  0  0  0  0  0  0  0999 V2000
    0.9352    0.0154    0.1286 C   0  0  0  0  0  0  0  0  0  0  0  0
    2.4010    0.0026    0.0678 N   0  0  0  0  0  0  0  0  0  0  0  0
    2.8857   -1.3486   -0.3163 C   0  0  0  0  0  0  0  0  0  0  0  0
    2.4885   -1.7721   -1.7489 C   0  0  0  0  0  0  0  0  0  0  0  0
    2.9424   -0.7534   -2.6896 N   0  0  0  0  0  0  0  0  0  0  0  0
    2.5372    0.6199   -2.4085 C   0  0  0  0  0  0  0  0  0  0  0  0
    2.8905    0.9808   -0.9430 C   0  0  0  0  0  0  0  0  0  0  0  0
    3.7137   -1.1016   -3.7604 C   0  0  0  0  0  0  0  0  0  0  0  0
    4.3972   -0.1583   -4.4251 N   0  0  0  0  0  0  0  0  0  0  0  0
    5.1116   -0.5194   -5.5036 C   0  0  0  0  0  0  0  0  0  0  0  0
    5.7884    0.4359   -6.2512 C   0  0  0  0  0  0  0  0  0  0  0  0
    6.3628    0.1170   -7.4873 C   0  0  0  0  0  0  0  0  0  0  0  0
    6.3771   -1.1973   -7.9297 C   0  0  0  0  0  0  0  0  0  0  0  0
    5.9424   -2.1932   -7.0781 C   0  0  0  0  0  0  0  0  0  0  0  0
    5.2014   -1.8429   -5.9330 C   0  0  0  0  0  0  0  0  0  0  0  0
    4.4924   -2.7513   -5.1656 C   0  0  0  0  0  0  0  0  0  0  0  0
    3.7633   -2.3973   -4.0930 N   0  0  0  0  0  0  0  0  0  0  0  0
    4.5842   -4.1819   -5.3945 C   0  0  0  0  0  0  0  0  0  0  0  0
    5.4306   -5.0522   -4.8158 C   0  0  0  0  0  0  0  0  0  0  0  0
    5.0933   -6.3586   -5.4507 C   0  0  0  0  0  0  0  0  0  0  0  0
    5.7812   -7.3604   -5.5395 O   0  0  0  0  0  0  0  0  0  0  0  0
    3.9145   -6.2154   -6.0884 N   0  0  0  0  0  0  0  0  0  0  0  0
    3.7604   -4.9064   -6.3711 C   0  0  0  0  0  0  0  0  0  0  0  0
    3.1671   -4.4278   -7.3078 O   0  0  0  0  0  0  0  0  0  0  0  0
    6.4083   -4.7981   -3.7990 C   0  0  0  0  0  0  0  0  0  0  0  0
    6.7290   -3.5411   -3.3148 C   0  0  0  0  0  0  0  0  0  0  0  0
    7.6159   -3.6617   -2.2865 N   0  0  0  0  0  0  0  0  0  0  0  0
    7.9750   -2.8876   -1.7437 H   0  0  0  0  0  0  0  0  0  0  0  0
    7.9245   -4.9812   -2.1002 C   0  0  0  0  0  0  0  0  0  0  0  0
    7.1891   -5.7223   -3.0335 C   0  0  0  0  0  0  0  0  0  0  0  0
    7.3419   -7.1220   -3.0071 C   0  0  0  0  0  0  0  0  0  0  0  0
    8.2151   -7.7227   -2.1020 C   0  0  0  0  0  0  0  0  0  0  0  0
    8.9249   -6.9518   -1.1931 C   0  0  0  0  0  0  0  0  0  0  0  0
    8.7890   -5.5638   -1.1695 C   0  0  0  0  0  0  0  0  0  0  0  0
    0.5750   -0.7175    0.8581 H   0  0  0  0  0  0  0  0  0  0  0  0
    0.4536   -0.2165   -0.8266 H   0  0  0  0  0  0  0  0  0  0  0  0
    0.5724    0.9984    0.4428 H   0  0  0  0  0  0  0  0  0  0  0  0
    2.5255   -2.0944    0.4019 H   0  0  0  0  0  0  0  0  0  0  0  0
    3.9823   -1.3596   -0.2338 H   0  0  0  0  0  0  0  0  0  0  0  0
    1.4002   -1.8697   -1.8289 H   0  0  0  0  0  0  0  0  0  0  0  0
    2.8983   -2.7698   -1.9370 H   0  0  0  0  0  0  0  0  0  0  0  0
    1.4503    0.6926   -2.5426 H   0  0  0  0  0  0  0  0  0  0  0  0
    2.9688    1.3607   -3.0896 H   0  0  0  0  0  0  0  0  0  0  0  0
    2.5088    1.9802   -0.6997 H   0  0  0  0  0  0  0  0  0  0  0  0
    3.9835    1.0496   -0.8524 H   0  0  0  0  0  0  0  0  0  0  0  0
    5.8186    1.4640   -5.8992 H   0  0  0  0  0  0  0  0  0  0  0  0
    6.7932    0.8964   -8.1081 H   0  0  0  0  0  0  0  0  0  0  0  0
    6.7096   -1.4551   -8.9304 H   0  0  0  0  0  0  0  0  0  0  0  0
    6.1253   -3.2309   -7.3432 H   0  0  0  0  0  0  0  0  0  0  0  0
    3.5439   -6.9416   -6.6775 H   0  0  0  0  0  0  0  0  0  0  0  0
    6.3957   -2.5455   -3.5572 H   0  0  0  0  0  0  0  0  0  0  0  0
    6.7994   -7.7692   -3.6821 H   0  0  0  0  0  0  0  0  0  0  0  0
    8.3263   -8.8028   -2.1215 H   0  0  0  0  0  0  0  0  0  0  0  0
    9.5927   -7.4387   -0.4898 H   0  0  0  0  0  0  0  0  0  0  0  0
    9.3389   -4.9615   -0.4546 H   0  0  0  0  0  0  0  0  0  0  0  0
  1  2  1  0  0  0  0
  1 35  1  0  0  0  0
  1 36  1  0  0  0  0
  1 37  1  0  0  0  0
  2  3  1  0  0  0  0
  2  7  1  0  0  0  0
  3  4  1  0  0  0  0
  3 38  1  0  0  0  0
  3 39  1  0  0  0  0
  4  5  1  0  0  0  0
  4 40  1  0  0  0  0
  4 41  1  0  0  0  0
  5  6  1  0  0  0  0
  5  8  1  0  0  0  0
  6  7  1  0  0  0  0
  6 42  1  0  0  0  0
  6 43  1  0  0  0  0
  7 44  1  0  0  0  0
  7 45  1  0  0  0  0
  8  9  2  0  0  0  0
  8 17  1  0  0  0  0
  9 10  1  0  0  0  0
 10 11  2  0  0  0  0
 10 15  1  0  0  0  0
 11 12  1  0  0  0  0
 11 46  1  0  0  0  0
 12 13  2  0  0  0  0
 12 47  1  0  0  0  0
 13 14  1  0  0  0  0
 13 48  1  0  0  0  0
 14 15  2  0  0  0  0
 14 49  1  0  0  0  0
 15 16  1  0  0  0  0
 16 17  2  0  0  0  0
 16 18  1  0  0  0  0
 18 19  2  0  0  0  0
 18 23  1  0  0  0  0
 19 20  1  0  0  0  0
 19 25  1  0  0  0  0
 20 21  2  0  0  0  0
 20 22  1  0  0  0  0
 22 23  1  0  0  0  0
 22 50  1  0  0  0  0
 23 24  2  0  0  0  0
 25 26  2  0  0  0  0
 25 30  1  0  0  0  0
 26 27  1  0  0  0  0
 26 51  1  0  0  0  0
 27 28  1  0  0  0  0
 27 29  1  0  0  0  0
 29 30  2  0  0  0  0
 29 34  1  0  0  0  0
 30 31  1  0  0  0  0
 31 32  2  0  0  0  0
 31 52  1  0  0  0  0
 32 33  1  0  0  0  0
 32 53  1  0  0  0  0
 33 34  2  0  0  0  0
 33 54  1  0  0  0  0
 34 55  1  0  0  0  0
M  END
$$$$
