LWH
 OpenBabel04121316153D

 48 52  0  0  1  0  0  0  0  0999 V2000
   -2.4467   -5.5510    0.2932 O   0  0  0  0  0  0  0  0  0  0  0  0
   -2.4056   -6.8006   -0.2670 C   0  0  0  0  0  0  0  0  0  0  0  0
   -2.1606   -7.8723    0.5808 C   0  0  0  0  0  0  0  0  0  0  0  0
   -2.0134   -9.1440    0.0457 C   0  0  0  0  0  0  0  0  0  0  0  0
   -2.2066   -9.3828   -1.3202 C   0  0  0  0  0  0  0  0  0  0  0  0
   -2.5810   -8.3092   -2.1394 C   0  0  0  0  0  0  0  0  0  0  0  0
   -2.6150   -6.9848   -1.6493 C   0  0  0  0  0  0  0  0  0  0  0  0
   -2.8092   -5.8566   -2.5730 C   0  0  0  0  0  0  0  0  0  0  0  0
   -2.4199   -4.6511   -2.1368 N   0  0  0  0  0  0  0  0  0  0  0  0
   -2.5756   -3.5984   -2.9283 C   0  0  0  0  0  0  0  0  0  0  0  0
   -2.3078   -2.3509   -2.3923 N   0  0  0  0  0  0  0  0  0  0  0  0
   -1.5786   -2.2253   -1.1370 C   0  0  2  0  0  0  0  0  0  0  0  0
   -0.9015   -3.0694   -0.9593 H   0  0  0  0  0  0  0  0  0  0  0  0
   -2.5301   -1.9993    0.0384 C   0  0  0  0  0  0  0  0  0  0  0  0
   -2.8807   -0.5736   -0.0489 N   0  0  0  0  0  0  0  0  0  0  0  0
   -1.6689    0.1156   -0.4820 C   0  0  0  0  0  0  0  0  0  0  0  0
   -0.7881   -0.9164   -1.1808 C   0  0  0  0  0  0  0  0  0  0  0  0
   -3.0359   -3.7433   -4.2296 C   0  0  0  0  0  0  0  0  0  0  0  0
   -3.3975   -5.0467   -4.6183 C   0  0  0  0  0  0  0  0  0  0  0  0
   -3.3037   -6.0959   -3.7988 N   0  0  0  0  0  0  0  0  0  0  0  0
   -3.8494   -5.2287   -5.9156 C   0  0  0  0  0  0  0  0  0  0  0  0
   -3.7734   -4.2073   -6.8661 C   0  0  0  0  0  0  0  0  0  0  0  0
   -3.3234   -2.9480   -6.4957 C   0  0  0  0  0  0  0  0  0  0  0  0
   -3.0826   -2.6891   -5.1596 C   0  0  0  0  0  0  0  0  0  0  0  0
   -1.9631  -10.7234   -1.8493 C   0  0  0  0  0  0  0  0  0  0  0  0
   -1.5643  -11.8818   -1.2073 C   0  0  0  0  0  0  0  0  0  0  0  0
   -1.4467  -12.8508   -2.2126 C   0  0  0  0  0  0  0  0  0  0  0  0
   -1.7270  -12.3619   -3.4197 N   0  0  0  0  0  0  0  0  0  0  0  0
   -2.0225  -11.0724   -3.1771 N   0  0  0  0  0  0  0  0  0  0  0  0
   -2.2470  -10.4806   -3.9691 H   0  0  0  0  0  0  0  0  0  0  0  0
   -2.1214   -5.5828    1.2037 H   0  0  0  0  0  0  0  0  0  0  0  0
   -2.0643   -7.7323    1.6518 H   0  0  0  0  0  0  0  0  0  0  0  0
   -1.7345   -9.9479    0.7197 H   0  0  0  0  0  0  0  0  0  0  0  0
   -2.8204   -8.4750   -3.1881 H   0  0  0  0  0  0  0  0  0  0  0  0
   -2.2317   -1.5721   -3.0201 H   0  0  0  0  0  0  0  0  0  0  0  0
   -2.0094   -2.1869    0.9853 H   0  0  0  0  0  0  0  0  0  0  0  0
   -3.4222   -2.6321    0.0018 H   0  0  0  0  0  0  0  0  0  0  0  0
   -3.2150   -0.2256    0.8463 H   0  0  0  0  0  0  0  0  0  0  0  0
   -1.1377    0.5443    0.3736 H   0  0  0  0  0  0  0  0  0  0  0  0
   -1.9311    0.9329   -1.1616 H   0  0  0  0  0  0  0  0  0  0  0  0
    0.1565   -1.0293   -0.6374 H   0  0  0  0  0  0  0  0  0  0  0  0
   -0.5419   -0.6049   -2.2031 H   0  0  0  0  0  0  0  0  0  0  0  0
   -4.2316   -6.2046   -6.2104 H   0  0  0  0  0  0  0  0  0  0  0  0
   -4.0626   -4.3936   -7.8948 H   0  0  0  0  0  0  0  0  0  0  0  0
   -3.1602   -2.1680   -7.2318 H   0  0  0  0  0  0  0  0  0  0  0  0
   -2.8768   -1.6654   -4.8613 H   0  0  0  0  0  0  0  0  0  0  0  0
   -1.3754  -12.0095   -0.1516 H   0  0  0  0  0  0  0  0  0  0  0  0
   -1.1627  -13.8890   -2.1090 H   0  0  0  0  0  0  0  0  0  0  0  0
  1  2  1  0  0  0  0
  1 31  1  0  0  0  0
  2  3  2  0  0  0  0
  2  7  1  0  0  0  0
  3  4  1  0  0  0  0
  3 32  1  0  0  0  0
  4  5  2  0  0  0  0
  4 33  1  0  0  0  0
  5  6  1  0  0  0  0
  5 25  1  0  0  0  0
  6  7  2  0  0  0  0
  6 34  1  0  0  0  0
  7  8  1  0  0  0  0
  8  9  2  0  0  0  0
  8 20  1  0  0  0  0
  9 10  1  0  0  0  0
 10 11  1  0  0  0  0
 10 18  2  0  0  0  0
 11 35  1  0  0  0  0
 12 14  1  0  0  0  0
 12 17  1  0  0  0  0
 12 13  1  1  0  0  0
 12 11  1  0  0  0  0
 14 15  1  0  0  0  0
 14 36  1  0  0  0  0
 14 37  1  0  0  0  0
 15 16  1  0  0  0  0
 15 38  1  0  0  0  0
 16 17  1  0  0  0  0
 16 39  1  0  0  0  0
 16 40  1  0  0  0  0
 17 41  1  0  0  0  0
 17 42  1  0  0  0  0
 18 19  1  0  0  0  0
 18 24  1  0  0  0  0
 19 20  2  0  0  0  0
 19 21  1  0  0  0  0
 21 22  2  0  0  0  0
 21 43  1  0  0  0  0
 22 23  1  0  0  0  0
 22 44  1  0  0  0  0
 23 24  2  0  0  0  0
 23 45  1  0  0  0  0
 24 46  1  0  0  0  0
 25 26  2  0  0  0  0
 25 29  1  0  0  0  0
 26 27  1  0  0  0  0
 26 47  1  0  0  0  0
 27 28  2  0  0  0  0
 27 48  1  0  0  0  0
 28 29  1  0  0  0  0
 29 30  1  0  0  0  0
M  END
$$$$
