LX1
 OpenBabel04121316153D

 26 25  0  0  1  0  0  0  0  0999 V2000
    5.0198    0.4474   -1.6187 C   0  0  0  0  0  0  0  0  0  0  0  0
    4.4610    1.3722   -0.5455 C   0  0  2  0  0  0  0  0  0  0  0  0
    4.7574    2.3958   -0.8049 H   0  0  0  0  0  0  0  0  0  0  0  0
    4.9833    1.0500    0.8675 C   0  0  1  0  0  0  0  0  0  0  0  0
    4.5665    1.8011    1.5539 H   0  0  0  0  0  0  0  0  0  0  0  0
    4.5336   -0.3484    1.3624 C   0  0  2  0  0  0  0  0  0  0  0  0
    3.4378   -0.3884    1.3342 H   0  0  0  0  0  0  0  0  0  0  0  0
    5.0093   -0.6038    2.7730 C   0  0  0  0  0  0  0  0  0  0  0  0
    4.5093    0.3843    3.6552 O   0  0  0  0  0  0  0  0  0  0  0  0
    5.0860    0.0176    5.2445 P   0  0  0  0  0  0  0  0  0  0  0  0
    6.2246    1.0183    5.1025 O   0  0  0  0  0  0  0  0  0  0  0  0
    3.7732    0.7661    5.8323 O   0  0  0  0  0  0  0  0  0  0  0  0
    5.6627   -0.3492    6.8337 O   0  0  0  0  0  0  0  0  0  0  0  0
    5.0511   -1.4130    0.5687 O   0  0  0  0  0  0  0  0  0  0  0  0
    6.4065    1.1783    0.9308 O   0  0  0  0  0  0  0  0  0  0  0  0
    3.0331    1.3200   -0.5831 O   0  0  0  0  0  0  0  0  0  0  0  0
    4.6458   -0.5738   -1.5116 H   0  0  0  0  0  0  0  0  0  0  0  0
    6.1138    0.4309   -1.5973 H   0  0  0  0  0  0  0  0  0  0  0  0
    4.6897    0.7664   -2.6103 H   0  0  0  0  0  0  0  0  0  0  0  0
    6.1047   -0.6311    2.8197 H   0  0  0  0  0  0  0  0  0  0  0  0
    4.6557   -1.5878    3.1060 H   0  0  0  0  0  0  0  0  0  0  0  0
    3.5412    1.4967    5.2318 H   0  0  0  0  0  0  0  0  0  0  0  0
    6.6362   -0.2972    6.7863 H   0  0  0  0  0  0  0  0  0  0  0  0
    4.4976   -2.2076    0.7430 H   0  0  0  0  0  0  0  0  0  0  0  0
    6.6383    2.0930    0.6836 H   0  0  0  0  0  0  0  0  0  0  0  0
    2.6924    1.9608    0.0658 H   0  0  0  0  0  0  0  0  0  0  0  0
  1 17  1  0  0  0  0
  1 18  1  0  0  0  0
  1 19  1  0  0  0  0
  2  4  1  0  0  0  0
  2 16  1  0  0  0  0
  2  3  1  6  0  0  0
  2  1  1  0  0  0  0
  4  5  1  1  0  0  0
  4 15  1  0  0  0  0
  6  8  1  0  0  0  0
  6 14  1  0  0  0  0
  6  7  1  6  0  0  0
  6  4  1  0  0  0  0
  8  9  1  0  0  0  0
  8 20  1  0  0  0  0
  8 21  1  0  0  0  0
  9 10  1  0  0  0  0
 10 11  2  0  0  0  0
 10 12  1  0  0  0  0
 10 13  1  0  0  0  0
 12 22  1  0  0  0  0
 13 23  1  0  0  0  0
 14 24  1  0  0  0  0
 15 25  1  0  0  0  0
 16 26  1  0  0  0  0
M  END
$$$$
