LX9
 OpenBabel04121316153D

 53 58  0  0  0  0  0  0  0  0999 V2000
    1.0186    0.1880    0.1037 N   0  0  0  0  0  0  0  0  0  0  0  0
    2.3519    0.0574    0.0973 C   0  0  0  0  0  0  0  0  0  0  0  0
    3.1332    1.1268    0.1182 N   0  0  0  0  0  0  0  0  0  0  0  0
    4.3906    0.6406    0.1271 N   0  0  0  0  0  0  0  0  0  0  0  0
    4.4080   -0.7331    0.0875 C   0  0  0  0  0  0  0  0  0  0  0  0
    3.0979   -1.1575    0.0864 C   0  0  0  0  0  0  0  0  0  0  0  0
    2.7077   -2.5584    0.0828 C   0  0  0  0  0  0  0  0  0  0  0  0
    3.6219   -3.6110   -0.0767 C   0  0  0  0  0  0  0  0  0  0  0  0
    3.1803   -4.9403   -0.0988 C   0  0  0  0  0  0  0  0  0  0  0  0
    1.8150   -5.2193    0.0060 C   0  0  0  0  0  0  0  0  0  0  0  0
    0.8972   -4.1798    0.1717 C   0  0  0  0  0  0  0  0  0  0  0  0
    1.3652   -2.8820    0.2551 C   0  0  0  0  0  0  0  0  0  0  0  0
   -0.5827   -4.3938    0.3431 C   0  0  0  0  0  0  0  0  0  0  0  0
   -0.9424   -5.7985   -0.0796 C   0  0  0  0  0  0  0  0  0  0  0  0
    0.0081   -6.7286    0.4768 N   0  0  0  0  0  0  0  0  0  0  0  0
    1.3347   -6.6247    0.1027 C   0  0  0  0  0  0  0  0  0  0  0  0
    2.0648   -7.5793   -0.0503 O   0  0  0  0  0  0  0  0  0  0  0  0
    5.5021    1.5168    0.1271 C   0  0  0  0  0  0  0  0  0  0  0  0
    5.3052    2.8961    0.1476 C   0  0  0  0  0  0  0  0  0  0  0  0
    6.4019    3.7424    0.0885 C   0  0  0  0  0  0  0  0  0  0  0  0
    7.6729    3.2157   -0.1323 C   0  0  0  0  0  0  0  0  0  0  0  0
    7.9078    1.8318   -0.1718 C   0  0  0  0  0  0  0  0  0  0  0  0
    6.7996    1.0043    0.0660 C   0  0  0  0  0  0  0  0  0  0  0  0
    9.2421    1.2605   -0.4894 C   0  0  0  0  0  0  0  0  0  0  0  0
    9.4336   -0.1336   -0.5856 C   0  0  0  0  0  0  0  0  0  0  0  0
   10.6646   -0.7102   -0.8986 C   0  0  0  0  0  0  0  0  0  0  0  0
   11.7429    0.1293   -1.1810 C   0  0  0  0  0  0  0  0  0  0  0  0
   11.5647    1.5051   -1.1188 C   0  0  0  0  0  0  0  0  0  0  0  0
   10.3483    2.0923   -0.7616 C   0  0  0  0  0  0  0  0  0  0  0  0
   12.7613    2.0824   -1.4717 N   0  0  0  0  0  0  0  0  0  0  0  0
   12.9475    3.0763   -1.4600 H   0  0  0  0  0  0  0  0  0  0  0  0
   13.6153    1.1138   -1.9283 C   0  0  0  0  0  0  0  0  0  0  0  0
   13.0781   -0.1040   -1.5826 C   0  0  0  0  0  0  0  0  0  0  0  0
    0.6228    1.1166    0.0494 H   0  0  0  0  0  0  0  0  0  0  0  0
    0.3773   -0.5331   -0.1793 H   0  0  0  0  0  0  0  0  0  0  0  0
    5.3295   -1.2926    0.0744 H   0  0  0  0  0  0  0  0  0  0  0  0
    4.6894   -3.4269   -0.1651 H   0  0  0  0  0  0  0  0  0  0  0  0
    3.9036   -5.7491   -0.1726 H   0  0  0  0  0  0  0  0  0  0  0  0
    0.6215   -2.1464    0.5049 H   0  0  0  0  0  0  0  0  0  0  0  0
   -1.1410   -3.6706   -0.2657 H   0  0  0  0  0  0  0  0  0  0  0  0
   -0.8440   -4.2270    1.3946 H   0  0  0  0  0  0  0  0  0  0  0  0
   -0.8707   -5.8770   -1.1734 H   0  0  0  0  0  0  0  0  0  0  0  0
   -1.9578   -6.0676    0.2190 H   0  0  0  0  0  0  0  0  0  0  0  0
   -0.2778   -7.5548    0.9833 H   0  0  0  0  0  0  0  0  0  0  0  0
    4.3072    3.3205    0.2102 H   0  0  0  0  0  0  0  0  0  0  0  0
    6.2753    4.8163    0.1795 H   0  0  0  0  0  0  0  0  0  0  0  0
    8.4735    3.9312   -0.2811 H   0  0  0  0  0  0  0  0  0  0  0  0
    6.9455   -0.0603    0.1828 H   0  0  0  0  0  0  0  0  0  0  0  0
    8.6220   -0.8384   -0.4404 H   0  0  0  0  0  0  0  0  0  0  0  0
   10.7592   -1.7883   -0.9683 H   0  0  0  0  0  0  0  0  0  0  0  0
   10.2820    3.1728   -0.7424 H   0  0  0  0  0  0  0  0  0  0  0  0
   14.5396    1.3722   -2.4235 H   0  0  0  0  0  0  0  0  0  0  0  0
   13.5383   -1.0741   -1.7007 H   0  0  0  0  0  0  0  0  0  0  0  0
  1  2  1  0  0  0  0
  1 34  1  0  0  0  0
  1 35  1  0  0  0  0
  2  3  2  0  0  0  0
  2  6  1  0  0  0  0
  3  4  1  0  0  0  0
  4  5  1  0  0  0  0
  4 18  1  0  0  0  0
  5  6  2  0  0  0  0
  5 36  1  0  0  0  0
  6  7  1  0  0  0  0
  7  8  2  0  0  0  0
  7 12  1  0  0  0  0
  8  9  1  0  0  0  0
  8 37  1  0  0  0  0
  9 10  2  0  0  0  0
  9 38  1  0  0  0  0
 10 11  1  0  0  0  0
 10 16  1  0  0  0  0
 11 12  2  0  0  0  0
 11 13  1  0  0  0  0
 12 39  1  0  0  0  0
 13 14  1  0  0  0  0
 13 40  1  0  0  0  0
 13 41  1  0  0  0  0
 14 15  1  0  0  0  0
 14 42  1  0  0  0  0
 14 43  1  0  0  0  0
 15 16  1  0  0  0  0
 15 44  1  0  0  0  0
 16 17  2  0  0  0  0
 18 19  2  0  0  0  0
 18 23  1  0  0  0  0
 19 20  1  0  0  0  0
 19 45  1  0  0  0  0
 20 21  2  0  0  0  0
 20 46  1  0  0  0  0
 21 22  1  0  0  0  0
 21 47  1  0  0  0  0
 22 23  2  0  0  0  0
 22 24  1  0  0  0  0
 23 48  1  0  0  0  0
 24 25  2  0  0  0  0
 24 29  1  0  0  0  0
 25 26  1  0  0  0  0
 25 49  1  0  0  0  0
 26 27  2  0  0  0  0
 26 50  1  0  0  0  0
 27 28  1  0  0  0  0
 27 33  1  0  0  0  0
 28 29  2  0  0  0  0
 28 30  1  0  0  0  0
 29 51  1  0  0  0  0
 30 31  1  0  0  0  0
 30 32  1  0  0  0  0
 32 33  2  0  0  0  0
 32 52  1  0  0  0  0
 33 53  1  0  0  0  0
M  END
$$$$
