LXG
 OpenBabel04121316153D

 42 45  0  0  0  0  0  0  0  0999 V2000
    1.0097    0.0298    0.0559 C   0  0  0  0  0  0  0  0  0  0  0  0
    2.4724    0.0158    0.0670 N   0  0  0  0  0  0  0  0  0  0  0  0
    2.9964   -0.7855    1.1817 C   0  0  0  0  0  0  0  0  0  0  0  0
    2.5783   -0.1883    2.5282 C   0  0  0  0  0  0  0  0  0  0  0  0
    2.0590   -1.1456    3.3896 N   0  0  0  0  0  0  0  0  0  0  0  0
    1.9749   -2.1185    3.1381 H   0  0  0  0  0  0  0  0  0  0  0  0
    1.6539   -0.8604    4.6555 C   0  0  0  0  0  0  0  0  0  0  0  0
    1.2353   -1.7430    5.4078 O   0  0  0  0  0  0  0  0  0  0  0  0
    1.7865    0.5139    4.9619 C   0  0  0  0  0  0  0  0  0  0  0  0
    2.2749    1.4545    4.0942 C   0  0  0  0  0  0  0  0  0  0  0  0
    2.7162    1.0841    2.8045 N   0  0  0  0  0  0  0  0  0  0  0  0
    2.2782    2.7785    4.6693 C   0  0  0  0  0  0  0  0  0  0  0  0
    2.6452    4.0793    4.2083 C   0  0  0  0  0  0  0  0  0  0  0  0
    2.5132    5.1966    5.0721 C   0  0  0  0  0  0  0  0  0  0  0  0
    2.8674    6.5507    4.6284 C   0  0  0  0  0  0  0  0  0  0  0  0
    2.7706    7.6546    5.3931 C   0  0  0  0  0  0  0  0  0  0  0  0
    3.2771    8.9606    5.0043 C   0  0  0  0  0  0  0  0  0  0  0  0
    2.4429   10.1998    4.9324 C   0  0  0  0  0  0  0  0  0  0  0  0
    3.3750    9.9994    6.0944 C   0  0  0  0  0  0  0  0  0  0  0  0
    2.0600    5.0122    6.3777 C   0  0  0  0  0  0  0  0  0  0  0  0
    1.6985    3.7732    6.8469 C   0  0  0  0  0  0  0  0  0  0  0  0
    1.8042    2.6876    5.9870 C   0  0  0  0  0  0  0  0  0  0  0  0
    1.3602    1.1101    6.4604 S   0  0  0  0  0  0  0  0  0  0  0  0
    2.9852   -0.4887   -1.2045 C   0  0  0  0  0  0  0  0  0  0  0  0
    0.6040    0.4436    0.9853 H   0  0  0  0  0  0  0  0  0  0  0  0
    0.5957   -0.9757   -0.0777 H   0  0  0  0  0  0  0  0  0  0  0  0
    0.6406    0.6735   -0.7487 H   0  0  0  0  0  0  0  0  0  0  0  0
    4.0926   -0.7994    1.1743 H   0  0  0  0  0  0  0  0  0  0  0  0
    2.6551   -1.8277    1.1007 H   0  0  0  0  0  0  0  0  0  0  0  0
    3.0195    4.2102    3.1920 H   0  0  0  0  0  0  0  0  0  0  0  0
    3.2751    6.6403    3.6259 H   0  0  0  0  0  0  0  0  0  0  0  0
    2.3921    7.5974    6.4103 H   0  0  0  0  0  0  0  0  0  0  0  0
    4.0631    8.9026    4.2596 H   0  0  0  0  0  0  0  0  0  0  0  0
    1.3782   10.1626    5.1263 H   0  0  0  0  0  0  0  0  0  0  0  0
    2.7232   10.9115    4.1632 H   0  0  0  0  0  0  0  0  0  0  0  0
    2.9007    9.8403    7.0592 H   0  0  0  0  0  0  0  0  0  0  0  0
    4.3176   10.5265    6.1610 H   0  0  0  0  0  0  0  0  0  0  0  0
    1.9624    5.8217    7.0897 H   0  0  0  0  0  0  0  0  0  0  0  0
    1.3348    3.6517    7.8605 H   0  0  0  0  0  0  0  0  0  0  0  0
    2.6504    0.1481   -2.0301 H   0  0  0  0  0  0  0  0  0  0  0  0
    2.6540   -1.5149   -1.4006 H   0  0  0  0  0  0  0  0  0  0  0  0
    4.0808   -0.4718   -1.2167 H   0  0  0  0  0  0  0  0  0  0  0  0
  1  2  1  0  0  0  0
  1 25  1  0  0  0  0
  1 26  1  0  0  0  0
  1 27  1  0  0  0  0
  2  3  1  0  0  0  0
  2 24  1  0  0  0  0
  3  4  1  0  0  0  0
  3 28  1  0  0  0  0
  3 29  1  0  0  0  0
  4  5  1  0  0  0  0
  4 11  2  0  0  0  0
  5  6  1  0  0  0  0
  5  7  1  0  0  0  0
  7  8  2  0  0  0  0
  7  9  1  0  0  0  0
  9 10  2  0  0  0  0
  9 23  1  0  0  0  0
 10 11  1  0  0  0  0
 10 12  1  0  0  0  0
 12 13  2  0  0  0  0
 12 22  1  0  0  0  0
 13 14  1  0  0  0  0
 13 30  1  0  0  0  0
 14 15  1  0  0  0  0
 14 20  2  0  0  0  0
 15 16  2  0  0  0  0
 15 31  1  0  0  0  0
 16 17  1  0  0  0  0
 16 32  1  0  0  0  0
 17 18  1  0  0  0  0
 17 19  1  0  0  0  0
 17 33  1  0  0  0  0
 18 19  1  0  0  0  0
 18 34  1  0  0  0  0
 18 35  1  0  0  0  0
 19 36  1  0  0  0  0
 19 37  1  0  0  0  0
 20 21  1  0  0  0  0
 20 38  1  0  0  0  0
 21 22  2  0  0  0  0
 21 39  1  0  0  0  0
 22 23  1  0  0  0  0
 24 40  1  0  0  0  0
 24 41  1  0  0  0  0
 24 42  1  0  0  0  0
M  END
$$$$
