LXN
 OpenBabel04121316153D

 12 12  0  0  0  0  0  0  0  0999 V2000
    1.3358   -0.0323    0.2598 O   0  0  0  0  0  0  0  0  0  0  0  0
    2.5512   -0.0512    0.1082 C   0  0  0  0  0  0  0  0  0  0  0  0
    3.2343   -1.2273   -0.0197 N   0  0  0  0  0  0  0  0  0  0  0  0
    4.0493   -1.3641   -1.1102 C   0  0  0  0  0  0  0  0  0  0  0  0
    4.0418   -2.3064   -1.8814 O   0  0  0  0  0  0  0  0  0  0  0  0
    4.8858   -0.1234   -1.3309 C   0  0  0  0  0  0  0  0  0  0  0  0
    6.1003   -0.1610   -1.3886 O   0  0  0  0  0  0  0  0  0  0  0  0
    4.1233    1.1699   -1.1419 C   0  0  0  0  0  0  0  0  0  0  0  0
    4.1980    2.1019   -1.9218 O   0  0  0  0  0  0  0  0  0  0  0  0
    3.2663    1.0994   -0.0748 N   0  0  0  0  0  0  0  0  0  0  0  0
    2.6505   -2.0397    0.1347 H   0  0  0  0  0  0  0  0  0  0  0  0
    2.7138    1.9398    0.0402 H   0  0  0  0  0  0  0  0  0  0  0  0
  1  2  2  0  0  0  0
  2  3  1  0  0  0  0
  2 10  1  0  0  0  0
  3  4  1  0  0  0  0
  3 11  1  0  0  0  0
  4  5  2  0  0  0  0
  4  6  1  0  0  0  0
  6  7  2  0  0  0  0
  6  8  1  0  0  0  0
  8  9  2  0  0  0  0
  8 10  1  0  0  0  0
 10 12  1  0  0  0  0
M  END
$$$$
