LXP
 OpenBabel04121316153D

 27 26  0  0  1  0  0  0  0  0999 V2000
    4.0078   -1.5733    0.1100 O   0  0  0  0  0  0  0  0  0  0  0  0
    3.8191   -2.9549    0.4144 C   0  0  0  0  0  0  0  0  0  0  0  0
    2.4418   -3.4683   -0.0376 C   0  0  2  0  0  0  0  0  0  0  0  0
    2.2098   -4.3613    0.5531 H   0  0  0  0  0  0  0  0  0  0  0  0
    2.4057   -3.8718   -1.5219 C   0  0  1  0  0  0  0  0  0  0  0  0
    1.3631   -4.1109   -1.7627 H   0  0  0  0  0  0  0  0  0  0  0  0
    2.8958   -2.7318   -2.4414 C   0  0  2  0  0  0  0  0  0  0  0  0
    2.5268   -1.7665   -2.0820 H   0  0  0  0  0  0  0  0  0  0  0  0
    2.3867   -2.9500   -3.8471 C   0  0  0  0  0  0  0  0  0  0  0  0
    0.9542   -3.0723   -3.9017 O   0  0  0  0  0  0  0  0  0  0  0  0
    0.3775   -3.3343   -5.5116 P   0  0  0  0  0  0  0  0  0  0  0  0
    0.6952   -1.9037   -5.9370 O   0  0  0  0  0  0  0  0  0  0  0  0
    1.6395   -4.2821   -5.8985 O   0  0  0  0  0  0  0  0  0  0  0  0
   -0.1992   -3.5963   -7.1215 O   0  0  0  0  0  0  0  0  0  0  0  0
    4.3332   -2.6952   -2.4933 O   0  0  0  0  0  0  0  0  0  0  0  0
    3.1409   -5.0837   -1.7703 O   0  0  0  0  0  0  0  0  0  0  0  0
    1.4163   -2.5104    0.2600 O   0  0  0  0  0  0  0  0  0  0  0  0
    4.9540   -1.3888    0.2264 H   0  0  0  0  0  0  0  0  0  0  0  0
    3.9105   -3.0588    1.4979 H   0  0  0  0  0  0  0  0  0  0  0  0
    4.6213   -3.5390   -0.0508 H   0  0  0  0  0  0  0  0  0  0  0  0
    2.8679   -3.8676   -4.2016 H   0  0  0  0  0  0  0  0  0  0  0  0
    2.7209   -2.1360   -4.4999 H   0  0  0  0  0  0  0  0  0  0  0  0
    1.5263   -5.2026   -5.5875 H   0  0  0  0  0  0  0  0  0  0  0  0
   -0.0472   -2.7205   -7.5369 H   0  0  0  0  0  0  0  0  0  0  0  0
    4.5822   -1.9561   -3.0734 H   0  0  0  0  0  0  0  0  0  0  0  0
    2.9414   -5.7208   -1.0649 H   0  0  0  0  0  0  0  0  0  0  0  0
    0.6044   -2.7563   -0.2137 H   0  0  0  0  0  0  0  0  0  0  0  0
  1  2  1  0  0  0  0
  1 18  1  0  0  0  0
  2 19  1  0  0  0  0
  2 20  1  0  0  0  0
  3  5  1  0  0  0  0
  3 17  1  0  0  0  0
  3  4  1  1  0  0  0
  3  2  1  0  0  0  0
  5  6  1  6  0  0  0
  5 16  1  0  0  0  0
  7  9  1  0  0  0  0
  7 15  1  0  0  0  0
  7  8  1  1  0  0  0
  7  5  1  0  0  0  0
  9 10  1  0  0  0  0
  9 21  1  0  0  0  0
  9 22  1  0  0  0  0
 10 11  1  0  0  0  0
 11 12  2  0  0  0  0
 11 13  1  0  0  0  0
 11 14  1  0  0  0  0
 13 23  1  0  0  0  0
 14 24  1  0  0  0  0
 15 25  1  0  0  0  0
 16 26  1  0  0  0  0
 17 27  1  0  0  0  0
M  END
$$$$
