LY5
 OpenBabel04121316153D

 48 50  0  0  1  0  0  0  0  0999 V2000
    4.0111    3.3960    0.0218 O   0  0  0  0  0  0  0  0  0  0  0  0
    3.0036    2.5192    0.2271 C   0  0  0  0  0  0  0  0  0  0  0  0
    1.9926    2.8575    0.8335 O   0  0  0  0  0  0  0  0  0  0  0  0
    3.1506    1.2808   -0.6448 C   0  0  1  0  0  0  0  0  0  0  0  0
    2.3994    0.5752   -0.2695 H   0  0  0  0  0  0  0  0  0  0  0  0
    2.8328    1.7099   -2.0286 N   0  0  0  0  0  0  0  0  0  0  0  0
    2.8359    0.5948   -2.9585 C   0  0  0  0  0  0  0  0  0  0  0  0
    4.1611   -0.1890   -2.9575 C   0  0  1  0  0  0  0  0  0  0  0  0
    4.9317    0.4649   -3.3857 H   0  0  0  0  0  0  0  0  0  0  0  0
    4.6118   -0.5766   -1.5400 C   0  0  1  0  0  0  0  0  0  0  0  0
    5.6547   -0.9181   -1.5953 H   0  0  0  0  0  0  0  0  0  0  0  0
    4.5491    0.6403   -0.5971 C   0  0  0  0  0  0  0  0  0  0  0  0
    3.8156   -1.7271   -0.9317 C   0  0  0  0  0  0  0  0  0  0  0  0
    2.8742   -2.5222   -1.8478 C   0  0  2  0  0  0  0  0  0  0  0  0
    3.0897   -3.5782   -1.6386 H   0  0  0  0  0  0  0  0  0  0  0  0
    2.9477   -2.3419   -3.3695 C   0  0  0  0  0  0  0  0  0  0  0  0
    4.0820   -1.4509   -3.8210 C   0  0  0  0  0  0  0  0  0  0  0  0
    1.4649   -2.2075   -1.3415 C   0  0  0  0  0  0  0  0  0  0  0  0
    0.4171   -2.9375   -2.0190 N   0  0  0  0  0  0  0  0  0  0  0  0
    0.5162   -4.3652   -1.6976 C   0  0  0  0  0  0  0  0  0  0  0  0
   -0.8408   -4.8814   -2.0817 C   0  0  0  0  0  0  0  0  0  0  0  0
   -1.7986   -3.7663   -1.7102 C   0  0  0  0  0  0  0  0  0  0  0  0
   -0.9581   -2.4892   -1.6690 C   0  0  1  0  0  0  0  0  0  0  0  0
   -1.2750   -1.7724   -2.4395 H   0  0  0  0  0  0  0  0  0  0  0  0
   -1.1030   -1.7997   -0.2828 C   0  0  0  0  0  0  0  0  0  0  0  0
   -0.3538   -1.9495    0.6812 O   0  0  0  0  0  0  0  0  0  0  0  0
   -2.1904   -1.0109   -0.1579 O   0  0  0  0  0  0  0  0  0  0  0  0
   -1.1362   -6.0272   -1.4387 F   0  0  0  0  0  0  0  0  0  0  0  0
   -0.8950   -5.1322   -3.4117 F   0  0  0  0  0  0  0  0  0  0  0  0
    3.5865    4.2657    0.1645 H   0  0  0  0  0  0  0  0  0  0  0  0
    3.5414    2.3862   -2.3125 H   0  0  0  0  0  0  0  0  0  0  0  0
    2.6149    0.9560   -3.9675 H   0  0  0  0  0  0  0  0  0  0  0  0
    1.9779   -0.0208   -2.7188 H   0  0  0  0  0  0  0  0  0  0  0  0
    5.3225    1.3601   -0.8931 H   0  0  0  0  0  0  0  0  0  0  0  0
    4.7987    0.3351    0.4286 H   0  0  0  0  0  0  0  0  0  0  0  0
    3.2448   -1.3512   -0.0714 H   0  0  0  0  0  0  0  0  0  0  0  0
    4.5105   -2.4245   -0.4488 H   0  0  0  0  0  0  0  0  0  0  0  0
    2.0136   -1.9165   -3.7620 H   0  0  0  0  0  0  0  0  0  0  0  0
    3.0113   -3.3251   -3.8526 H   0  0  0  0  0  0  0  0  0  0  0  0
    3.9286   -1.1857   -4.8732 H   0  0  0  0  0  0  0  0  0  0  0  0
    5.0218   -2.0126   -3.7642 H   0  0  0  0  0  0  0  0  0  0  0  0
    1.4838   -2.4442   -0.2777 H   0  0  0  0  0  0  0  0  0  0  0  0
    1.2443   -1.1429   -1.4224 H   0  0  0  0  0  0  0  0  0  0  0  0
    0.7038   -4.5211   -0.6287 H   0  0  0  0  0  0  0  0  0  0  0  0
    1.3137   -4.8518   -2.2698 H   0  0  0  0  0  0  0  0  0  0  0  0
   -2.2449   -3.9688   -0.7329 H   0  0  0  0  0  0  0  0  0  0  0  0
   -2.5928   -3.6877   -2.4580 H   0  0  0  0  0  0  0  0  0  0  0  0
   -2.7724   -0.9454   -0.9351 H   0  0  0  0  0  0  0  0  0  0  0  0
  1  2  1  0  0  0  0
  1 30  1  0  0  0  0
  2  3  2  0  0  0  0
  4  6  1  0  0  0  0
  4 12  1  0  0  0  0
  4  5  1  1  0  0  0
  4  2  1  0  0  0  0
  6  7  1  0  0  0  0
  6 31  1  0  0  0  0
  7  8  1  0  0  0  0
  7 32  1  0  0  0  0
  7 33  1  0  0  0  0
  8  9  1  6  0  0  0
  8 10  1  0  0  0  0
  8 17  1  0  0  0  0
 10 11  1  6  0  0  0
 10 12  1  0  0  0  0
 10 13  1  0  0  0  0
 12 34  1  0  0  0  0
 12 35  1  0  0  0  0
 13 14  1  0  0  0  0
 13 36  1  0  0  0  0
 13 37  1  0  0  0  0
 14 16  1  0  0  0  0
 14 18  1  0  0  0  0
 14 15  1  1  0  0  0
 16 17  1  0  0  0  0
 16 38  1  0  0  0  0
 16 39  1  0  0  0  0
 17 40  1  0  0  0  0
 17 41  1  0  0  0  0
 18 19  1  0  0  0  0
 18 42  1  0  0  0  0
 18 43  1  0  0  0  0
 19 20  1  0  0  0  0
 19 23  1  0  0  0  0
 20 21  1  0  0  0  0
 20 44  1  0  0  0  0
 20 45  1  0  0  0  0
 21 22  1  0  0  0  0
 21 28  1  0  0  0  0
 21 29  1  0  0  0  0
 22 23  1  0  0  0  0
 22 46  1  0  0  0  0
 22 47  1  0  0  0  0
 23 25  1  0  0  0  0
 23 24  1  6  0  0  0
 25 26  2  0  0  0  0
 25 27  1  0  0  0  0
 27 48  1  0  0  0  0
M  END
$$$$
