LY7
 OpenBabel04121316153D

 46 47  0  0  1  0  0  0  0  0999 V2000
    1.0086   -0.0362    0.0190 N   0  0  0  0  0  0  0  0  0  0  0  0
    2.1612   -0.0216    0.0403 C   0  0  0  0  0  0  0  0  0  0  0  0
    3.5910   -0.0011    0.0328 C   0  0  0  0  0  0  0  0  0  0  0  0
    4.2635    1.2155    0.0543 C   0  0  0  0  0  0  0  0  0  0  0  0
    5.6312    1.2389   -0.1596 C   0  0  0  0  0  0  0  0  0  0  0  0
    6.3771    0.0537   -0.2245 C   0  0  0  0  0  0  0  0  0  0  0  0
    5.6895   -1.1605   -0.0647 C   0  0  0  0  0  0  0  0  0  0  0  0
    4.3027   -1.1945   -0.0271 C   0  0  0  0  0  0  0  0  0  0  0  0
    7.8068    0.0888   -0.5445 C   0  0  0  0  0  0  0  0  0  0  0  0
    8.4796    1.3015   -0.7212 C   0  0  0  0  0  0  0  0  0  0  0  0
    9.6982    1.3323   -1.3620 C   0  0  0  0  0  0  0  0  0  0  0  0
   10.4327    0.1635   -1.5351 C   0  0  0  0  0  0  0  0  0  0  0  0
    9.8442   -1.0456   -1.1662 C   0  0  0  0  0  0  0  0  0  0  0  0
    8.5177   -1.0860   -0.7945 C   0  0  0  0  0  0  0  0  0  0  0  0
   11.8157    0.2339   -2.1460 C   0  0  1  0  0  0  0  0  0  0  0  0
   11.7131    0.7018   -3.1346 H   0  0  0  0  0  0  0  0  0  0  0  0
   12.8002    1.0429   -1.2743 C   0  0  0  0  0  0  0  0  0  0  0  0
   12.3804    2.4734   -1.0540 N   0  0  0  0  0  0  0  0  0  0  0  0
   13.4769    3.3305   -0.0997 S   0  0  0  0  0  0  0  0  0  0  0  0
   13.4027    2.7054    1.2025 O   0  0  0  0  0  0  0  0  0  0  0  0
   14.7135    3.3959   -0.8437 O   0  0  0  0  0  0  0  0  0  0  0  0
   12.7553    4.9936    0.0171 C   0  0  0  0  0  0  0  0  0  0  0  0
   11.3674    4.9867    0.6530 C   0  0  0  0  0  0  0  0  0  0  0  0
   13.6982    5.8422    0.8673 C   0  0  0  0  0  0  0  0  0  0  0  0
   12.3792   -1.1822   -2.3477 C   0  0  0  0  0  0  0  0  0  0  0  0
    3.7437    2.1577    0.1961 H   0  0  0  0  0  0  0  0  0  0  0  0
    6.0900    2.2124   -0.2992 H   0  0  0  0  0  0  0  0  0  0  0  0
    6.2114   -2.1110   -0.0046 H   0  0  0  0  0  0  0  0  0  0  0  0
    3.7977   -2.1566   -0.0471 H   0  0  0  0  0  0  0  0  0  0  0  0
    8.0555    2.2593   -0.4438 H   0  0  0  0  0  0  0  0  0  0  0  0
   10.0566    2.2960   -1.7108 H   0  0  0  0  0  0  0  0  0  0  0  0
   10.3587   -1.9992   -1.2138 H   0  0  0  0  0  0  0  0  0  0  0  0
    8.0678   -2.0699   -0.7311 H   0  0  0  0  0  0  0  0  0  0  0  0
   13.7811    1.0345   -1.7579 H   0  0  0  0  0  0  0  0  0  0  0  0
   12.8686    0.5606   -0.2921 H   0  0  0  0  0  0  0  0  0  0  0  0
   11.5223    2.4591   -0.5035 H   0  0  0  0  0  0  0  0  0  0  0  0
   12.7024    5.4047   -0.9974 H   0  0  0  0  0  0  0  0  0  0  0  0
   11.3902    4.5390    1.6524 H   0  0  0  0  0  0  0  0  0  0  0  0
   10.6471    4.4275    0.0501 H   0  0  0  0  0  0  0  0  0  0  0  0
   10.9845    6.0091    0.7581 H   0  0  0  0  0  0  0  0  0  0  0  0
   13.8005    5.4151    1.8719 H   0  0  0  0  0  0  0  0  0  0  0  0
   13.3314    6.8674    0.9693 H   0  0  0  0  0  0  0  0  0  0  0  0
   14.6968    5.8760    0.4210 H   0  0  0  0  0  0  0  0  0  0  0  0
   11.7060   -1.7857   -2.9714 H   0  0  0  0  0  0  0  0  0  0  0  0
   12.4898   -1.6936   -1.3810 H   0  0  0  0  0  0  0  0  0  0  0  0
   13.3571   -1.1696   -2.8273 H   0  0  0  0  0  0  0  0  0  0  0  0
  1  2  3  0  0  0  0
  2  3  1  0  0  0  0
  3  4  2  0  0  0  0
  3  8  1  0  0  0  0
  4  5  1  0  0  0  0
  4 26  1  0  0  0  0
  5  6  2  0  0  0  0
  5 27  1  0  0  0  0
  6  7  1  0  0  0  0
  6  9  1  0  0  0  0
  7  8  2  0  0  0  0
  7 28  1  0  0  0  0
  8 29  1  0  0  0  0
  9 10  2  0  0  0  0
  9 14  1  0  0  0  0
 10 11  1  0  0  0  0
 10 30  1  0  0  0  0
 11 12  2  0  0  0  0
 11 31  1  0  0  0  0
 12 13  1  0  0  0  0
 12 15  1  0  0  0  0
 13 14  2  0  0  0  0
 13 32  1  0  0  0  0
 14 33  1  0  0  0  0
 15 16  1  6  0  0  0
 15 17  1  0  0  0  0
 15 25  1  0  0  0  0
 17 18  1  0  0  0  0
 17 34  1  0  0  0  0
 17 35  1  0  0  0  0
 18 19  1  0  0  0  0
 18 36  1  0  0  0  0
 19 20  2  0  0  0  0
 19 21  2  0  0  0  0
 19 22  1  0  0  0  0
 22 23  1  0  0  0  0
 22 24  1  0  0  0  0
 22 37  1  0  0  0  0
 23 38  1  0  0  0  0
 23 39  1  0  0  0  0
 23 40  1  0  0  0  0
 24 41  1  0  0  0  0
 24 42  1  0  0  0  0
 24 43  1  0  0  0  0
 25 44  1  0  0  0  0
 25 45  1  0  0  0  0
 25 46  1  0  0  0  0
M  END
$$$$
