LYN
 OpenBabel04121316153D

 26 25  0  0  1  0  0  0  0  0999 V2000
    1.0169   -0.0759    0.0104 N   0  3  0  0  0  0  0  0  0  0  0  0
    0.6321    0.6243   -0.6367 H   0  0  0  0  0  0  0  0  0  0  0  0
    0.6467   -0.9952   -0.2659 H   0  0  0  0  0  0  0  0  0  0  0  0
    0.6584    0.1345    0.9503 H   0  0  0  0  0  0  0  0  0  0  0  0
    2.4878   -0.0670   -0.0137 C   0  0  0  0  0  0  0  0  0  0  0  0
    2.9475   -0.3642   -1.4325 C   0  0  0  0  0  0  0  0  0  0  0  0
    4.4598   -0.3898   -1.4423 C   0  0  0  0  0  0  0  0  0  0  0  0
    5.0556   -0.7313   -2.8025 C   0  0  0  0  0  0  0  0  0  0  0  0
    6.5951   -0.7389   -2.7841 C   0  0  1  0  0  0  0  0  0  0  0  0
    6.9771    0.2353   -2.4572 H   0  0  0  0  0  0  0  0  0  0  0  0
    7.1640   -1.8325   -1.8333 C   0  0  0  0  0  0  0  0  0  0  0  0
    7.7576   -2.8426   -2.2135 O   0  0  0  0  0  0  0  0  0  0  0  0
    6.9260   -1.6801   -0.4961 N   0  0  0  0  0  0  0  0  0  0  0  0
    7.0789   -0.9790   -4.1511 N   0  0  0  0  0  0  0  0  0  0  0  0
    2.8293   -0.8261    0.6995 H   0  0  0  0  0  0  0  0  0  0  0  0
    2.8204    0.9193    0.3257 H   0  0  0  0  0  0  0  0  0  0  0  0
    2.5710    0.3832   -2.1376 H   0  0  0  0  0  0  0  0  0  0  0  0
    2.5723   -1.3458   -1.7482 H   0  0  0  0  0  0  0  0  0  0  0  0
    4.7142   -1.1673   -0.7226 H   0  0  0  0  0  0  0  0  0  0  0  0
    4.8676    0.5633   -1.0831 H   0  0  0  0  0  0  0  0  0  0  0  0
    4.6974    0.0035   -3.5363 H   0  0  0  0  0  0  0  0  0  0  0  0
    4.6793   -1.7117   -3.1214 H   0  0  0  0  0  0  0  0  0  0  0  0
    6.5740   -0.8341   -0.0751 H   0  0  0  0  0  0  0  0  0  0  0  0
    7.2557   -2.4161    0.1160 H   0  0  0  0  0  0  0  0  0  0  0  0
    6.6698   -0.3372   -4.8239 H   0  0  0  0  0  0  0  0  0  0  0  0
    6.8255   -1.9279   -4.4366 H   0  0  0  0  0  0  0  0  0  0  0  0
  1  2  1  0  0  0  0
  1  3  1  0  0  0  0
  1  4  1  0  0  0  0
  1  5  1  0  0  0  0
  5  6  1  0  0  0  0
  5 15  1  0  0  0  0
  5 16  1  0  0  0  0
  6  7  1  0  0  0  0
  6 17  1  0  0  0  0
  6 18  1  0  0  0  0
  7  8  1  0  0  0  0
  7 19  1  0  0  0  0
  7 20  1  0  0  0  0
  8  9  1  0  0  0  0
  8 21  1  0  0  0  0
  8 22  1  0  0  0  0
  9 10  1  1  0  0  0
  9 11  1  0  0  0  0
  9 14  1  0  0  0  0
 11 12  2  0  0  0  0
 11 13  1  0  0  0  0
 13 23  1  0  0  0  0
 13 24  1  0  0  0  0
 14 25  1  0  0  0  0
 14 26  1  0  0  0  0
M  CHG  1   1   1
M  END
$$$$
