LZ0
 OpenBabel04121316153D

 37 38  0  0  1  0  0  0  0  0999 V2000
    9.7869   -4.6275    6.7548 O   0  0  0  0  0  0  0  0  0  0  0  0
    9.3249   -5.5808    6.1505 C   0  0  0  0  0  0  0  0  0  0  0  0
    8.1698   -5.4387    5.2049 C   0  0  0  0  0  0  0  0  0  0  0  0
    7.8002   -6.6659    4.5307 N   0  0  0  0  0  0  0  0  0  0  0  0
    7.9569   -7.8626    5.1201 N   0  0  0  0  0  0  0  0  0  0  0  0
    7.5697   -8.7865    4.2545 N   0  0  0  0  0  0  0  0  0  0  0  0
    7.1159   -8.1512    3.1308 C   0  0  0  0  0  0  0  0  0  0  0  0
    7.2082   -6.7852    3.2967 C   0  0  0  0  0  0  0  0  0  0  0  0
    6.8411   -5.5987    2.4820 C   0  0  0  0  0  0  0  0  0  0  0  0
    5.8261   -5.9552    1.5586 O   0  0  0  0  0  0  0  0  0  0  0  0
    6.0199   -5.4046    0.2513 C   0  0  2  0  0  0  0  0  0  0  0  0
    7.0609   -5.1218    0.2259 H   0  0  0  0  0  0  0  0  0  0  0  0
    5.3240   -4.1954   -0.1086 O   0  0  0  0  0  0  0  0  0  0  0  0
    5.7231   -3.7609   -1.4468 C   0  0  1  0  0  0  0  0  0  0  0  0
    5.1661   -2.8445   -1.6888 H   0  0  0  0  0  0  0  0  0  0  0  0
    7.2244   -3.3955   -1.4863 C   0  0  0  0  0  0  0  0  0  0  0  0
    5.3497   -4.8210   -2.5136 C   0  0  2  0  0  0  0  0  0  0  0  0
    4.2584   -4.9411   -2.5241 H   0  0  0  0  0  0  0  0  0  0  0  0
    5.9762   -6.1808   -2.1702 C   0  0  2  0  0  0  0  0  0  0  0  0
    5.5500   -6.9402   -2.8340 H   0  0  0  0  0  0  0  0  0  0  0  0
    5.6442   -6.5355   -0.7230 C   0  0  2  0  0  0  0  0  0  0  0  0
    6.1596   -7.4487   -0.4140 H   0  0  0  0  0  0  0  0  0  0  0  0
    4.2279   -6.7727   -0.6141 O   0  0  0  0  0  0  0  0  0  0  0  0
    7.3831   -6.1905   -2.4560 O   0  0  0  0  0  0  0  0  0  0  0  0
    5.7305   -4.4079   -3.8289 O   0  0  0  0  0  0  0  0  0  0  0  0
    9.7656   -6.5881    6.2704 H   0  0  0  0  0  0  0  0  0  0  0  0
    8.4653   -4.7174    4.4358 H   0  0  0  0  0  0  0  0  0  0  0  0
    7.2841   -5.0845    5.7376 H   0  0  0  0  0  0  0  0  0  0  0  0
    6.7340   -8.7127    2.2904 H   0  0  0  0  0  0  0  0  0  0  0  0
    7.7652   -5.2002    2.0361 H   0  0  0  0  0  0  0  0  0  0  0  0
    6.3925   -4.8268    3.1044 H   0  0  0  0  0  0  0  0  0  0  0  0
    7.8805   -4.1570   -1.0669 H   0  0  0  0  0  0  0  0  0  0  0  0
    7.4249   -2.5121   -0.8789 H   0  0  0  0  0  0  0  0  0  0  0  0
    7.5948   -3.2431   -2.5011 H   0  0  0  0  0  0  0  0  0  0  0  0
    3.9899   -7.5227   -1.1808 H   0  0  0  0  0  0  0  0  0  0  0  0
    7.9010   -5.9957   -1.6586 H   0  0  0  0  0  0  0  0  0  0  0  0
    6.6929   -4.5469   -3.9074 H   0  0  0  0  0  0  0  0  0  0  0  0
  1  2  2  0  0  0  0
  2  3  1  0  0  0  0
  2 26  1  0  0  0  0
  3  4  1  0  0  0  0
  3 27  1  0  0  0  0
  3 28  1  0  0  0  0
  4  5  1  0  0  0  0
  4  8  1  0  0  0  0
  5  6  2  0  0  0  0
  6  7  1  0  0  0  0
  7  8  2  0  0  0  0
  7 29  1  0  0  0  0
  8  9  1  0  0  0  0
  9 10  1  0  0  0  0
  9 30  1  0  0  0  0
  9 31  1  0  0  0  0
 11 13  1  0  0  0  0
 11 21  1  0  0  0  0
 11 12  1  6  0  0  0
 11 10  1  0  0  0  0
 13 14  1  0  0  0  0
 14 17  1  0  0  0  0
 14 16  1  0  0  0  0
 14 15  1  6  0  0  0
 16 32  1  0  0  0  0
 16 33  1  0  0  0  0
 16 34  1  0  0  0  0
 17 19  1  0  0  0  0
 17 25  1  0  0  0  0
 17 18  1  1  0  0  0
 19 21  1  0  0  0  0
 19 24  1  0  0  0  0
 19 20  1  6  0  0  0
 21 22  1  1  0  0  0
 21 23  1  0  0  0  0
 23 35  1  0  0  0  0
 24 36  1  0  0  0  0
 25 37  1  0  0  0  0
M  END
$$$$
