LZ9
 OpenBabel04121316153D

 37 39  0  0  0  0  0  0  0  0999 V2000
    0.9255    0.0074    0.1633 F   0  0  0  0  0  0  0  0  0  0  0  0
    2.2610    0.0265    0.0724 C   0  0  0  0  0  0  0  0  0  0  0  0
    2.9380    1.2443    0.0524 C   0  0  0  0  0  0  0  0  0  0  0  0
    4.3163    1.2826   -0.1884 C   0  0  0  0  0  0  0  0  0  0  0  0
    5.0302    0.0916   -0.2796 C   0  0  0  0  0  0  0  0  0  0  0  0
    4.3379   -1.1257   -0.1172 C   0  0  0  0  0  0  0  0  0  0  0  0
    2.9516   -1.1663   -0.0047 C   0  0  0  0  0  0  0  0  0  0  0  0
    6.4141    0.1396   -0.5695 N   0  0  0  0  0  0  0  0  0  0  0  0
    7.2443   -0.9273   -0.2521 C   0  0  0  0  0  0  0  0  0  0  0  0
    6.9673   -1.7266    0.6251 O   0  0  0  0  0  0  0  0  0  0  0  0
    8.5475   -1.0154   -0.9320 C   0  0  0  0  0  0  0  0  0  0  0  0
    9.3286    0.0459   -1.2160 N   0  0  0  0  0  0  0  0  0  0  0  0
   10.5323   -0.5107   -1.4711 N   0  0  0  0  0  0  0  0  0  0  0  0
   11.3249    0.1047   -1.6275 H   0  0  0  0  0  0  0  0  0  0  0  0
   10.5342   -1.8765   -1.4481 C   0  0  0  0  0  0  0  0  0  0  0  0
    9.2460   -2.2501   -1.1553 C   0  0  0  0  0  0  0  0  0  0  0  0
    8.8160   -3.5654   -1.0196 N   0  0  0  0  0  0  0  0  0  0  0  0
    7.4671   -3.9052   -1.0230 C   0  0  0  0  0  0  0  0  0  0  0  0
    6.5537   -3.2265   -1.4799 O   0  0  0  0  0  0  0  0  0  0  0  0
    7.0974   -5.2423   -0.5876 C   0  0  0  0  0  0  0  0  0  0  0  0
    7.7221   -6.3150   -1.1969 C   0  0  0  0  0  0  0  0  0  0  0  0
    8.7351   -6.1150   -2.0528 F   0  0  0  0  0  0  0  0  0  0  0  0
    7.2710   -7.6046   -0.9691 C   0  0  0  0  0  0  0  0  0  0  0  0
    6.2824   -7.8300   -0.0101 C   0  0  0  0  0  0  0  0  0  0  0  0
    5.5839   -6.7541    0.5355 C   0  0  0  0  0  0  0  0  0  0  0  0
    5.9726   -5.4590    0.2126 C   0  0  0  0  0  0  0  0  0  0  0  0
    5.2194   -4.4471    0.6662 F   0  0  0  0  0  0  0  0  0  0  0  0
    2.3833    2.1605    0.2156 H   0  0  0  0  0  0  0  0  0  0  0  0
    4.8237    2.2385   -0.2663 H   0  0  0  0  0  0  0  0  0  0  0  0
    4.8463   -2.0856   -0.0978 H   0  0  0  0  0  0  0  0  0  0  0  0
    2.4342   -2.1200    0.0240 H   0  0  0  0  0  0  0  0  0  0  0  0
    6.8568    0.9960   -0.8756 H   0  0  0  0  0  0  0  0  0  0  0  0
   11.4373   -2.4423   -1.6297 H   0  0  0  0  0  0  0  0  0  0  0  0
    9.5169   -4.2961   -1.0606 H   0  0  0  0  0  0  0  0  0  0  0  0
    7.6779   -8.4175   -1.5605 H   0  0  0  0  0  0  0  0  0  0  0  0
    6.0462   -8.8441    0.2963 H   0  0  0  0  0  0  0  0  0  0  0  0
    4.7196   -6.9103    1.1766 H   0  0  0  0  0  0  0  0  0  0  0  0
  1  2  1  0  0  0  0
  2  3  2  0  0  0  0
  2  7  1  0  0  0  0
  3  4  1  0  0  0  0
  3 28  1  0  0  0  0
  4  5  2  0  0  0  0
  4 29  1  0  0  0  0
  5  6  1  0  0  0  0
  5  8  1  0  0  0  0
  6  7  2  0  0  0  0
  6 30  1  0  0  0  0
  7 31  1  0  0  0  0
  8  9  1  0  0  0  0
  8 32  1  0  0  0  0
  9 10  2  0  0  0  0
  9 11  1  0  0  0  0
 11 12  2  0  0  0  0
 11 16  1  0  0  0  0
 12 13  1  0  0  0  0
 13 14  1  0  0  0  0
 13 15  1  0  0  0  0
 15 16  2  0  0  0  0
 15 33  1  0  0  0  0
 16 17  1  0  0  0  0
 17 18  1  0  0  0  0
 17 34  1  0  0  0  0
 18 19  2  0  0  0  0
 18 20  1  0  0  0  0
 20 21  2  0  0  0  0
 20 26  1  0  0  0  0
 21 22  1  0  0  0  0
 21 23  1  0  0  0  0
 23 24  2  0  0  0  0
 23 35  1  0  0  0  0
 24 25  1  0  0  0  0
 24 36  1  0  0  0  0
 25 26  2  0  0  0  0
 25 37  1  0  0  0  0
 26 27  1  0  0  0  0
M  END
$$$$
