LZC
 OpenBabel04121316153D

 46 48  0  0  1  0  0  0  0  0999 V2000
    6.8794   -1.2956   -6.4315 C   0  0  0  0  0  0  0  0  0  0  0  0
    6.9740    0.1838   -6.7995 C   0  0  0  0  0  0  0  0  0  0  0  0
    5.6487    0.7620   -6.7676 N   0  0  0  0  0  0  0  0  0  0  0  0
    4.6091    0.2933   -7.5523 C   0  0  0  0  0  0  0  0  0  0  0  0
    3.5843   -0.3806   -7.0286 C   0  0  0  0  0  0  0  0  0  0  0  0
    2.3389   -0.6251   -7.8637 C   0  0  0  0  0  0  0  0  0  0  0  0
    1.1440   -0.9740   -7.2082 N   0  0  0  0  0  0  0  0  0  0  0  0
    1.0441   -0.7912   -5.7606 C   0  0  2  0  0  0  0  0  0  0  0  0
    1.6948   -1.5825   -5.3588 H   0  0  0  0  0  0  0  0  0  0  0  0
   -0.2660   -0.9740   -4.9738 C   0  0  0  0  0  0  0  0  0  0  0  0
    0.0655   -0.7573   -3.4619 C   0  0  0  0  0  0  0  0  0  0  0  0
    0.7090    0.6154   -3.1875 C   0  0  2  0  0  0  0  0  0  0  0  0
    0.0002    1.4065   -3.4619 H   0  0  0  0  0  0  0  0  0  0  0  0
    1.9509    0.7793   -4.0335 C   0  0  0  0  0  0  0  0  0  0  0  0
    1.4902    0.6582   -5.4609 C   0  0  0  0  0  0  0  0  0  0  0  0
    1.0745    0.7689   -1.7921 N   0  0  0  0  0  0  0  0  0  0  0  0
    2.3625   -0.4356   -9.1614 N   0  0  0  0  0  0  0  0  0  0  0  0
    3.5511   -0.0018   -9.7169 C   0  0  0  0  0  0  0  0  0  0  0  0
    4.6536    0.3976   -8.9461 N   0  0  0  0  0  0  0  0  0  0  0  0
    5.7101    0.7917   -9.7173 N   0  0  0  0  0  0  0  0  0  0  0  0
    5.2867    0.6200  -10.9641 C   0  0  0  0  0  0  0  0  0  0  0  0
    3.9624    0.1713  -11.0188 C   0  0  0  0  0  0  0  0  0  0  0  0
    3.1899   -0.0647  -12.1866 C   0  0  0  0  0  0  0  0  0  0  0  0
    2.6006   -0.2335  -13.1643 N   0  0  0  0  0  0  0  0  0  0  0  0
    7.8810    0.9191   -5.8293 C   0  0  0  0  0  0  0  0  0  0  0  0
    6.2077   -1.8340   -7.1104 H   0  0  0  0  0  0  0  0  0  0  0  0
    6.4837   -1.4246   -5.4169 H   0  0  0  0  0  0  0  0  0  0  0  0
    7.8605   -1.7702   -6.4918 H   0  0  0  0  0  0  0  0  0  0  0  0
    7.3845    0.2874   -7.8071 H   0  0  0  0  0  0  0  0  0  0  0  0
    5.4215    1.4493   -6.0519 H   0  0  0  0  0  0  0  0  0  0  0  0
    3.5873   -0.5785   -5.9681 H   0  0  0  0  0  0  0  0  0  0  0  0
    0.3042   -1.0359   -7.7769 H   0  0  0  0  0  0  0  0  0  0  0  0
   -0.7069   -1.9699   -5.0878 H   0  0  0  0  0  0  0  0  0  0  0  0
   -1.0248   -0.2405   -5.2745 H   0  0  0  0  0  0  0  0  0  0  0  0
    0.7671   -1.5435   -3.1435 H   0  0  0  0  0  0  0  0  0  0  0  0
   -0.8355   -0.8614   -2.8503 H   0  0  0  0  0  0  0  0  0  0  0  0
    2.7120    0.0183   -3.7978 H   0  0  0  0  0  0  0  0  0  0  0  0
    2.4286    1.7552   -3.9009 H   0  0  0  0  0  0  0  0  0  0  0  0
    2.2872    1.0696   -6.0663 H   0  0  0  0  0  0  0  0  0  0  0  0
    0.6728    1.3412   -5.7118 H   0  0  0  0  0  0  0  0  0  0  0  0
    1.7242    0.0329   -1.5193 H   0  0  0  0  0  0  0  0  0  0  0  0
    0.2434    0.6483   -1.2173 H   0  0  0  0  0  0  0  0  0  0  0  0
    5.9668    0.8442  -11.7760 H   0  0  0  0  0  0  0  0  0  0  0  0
    7.5181    0.8311   -4.7992 H   0  0  0  0  0  0  0  0  0  0  0  0
    7.9329    1.9845   -6.0760 H   0  0  0  0  0  0  0  0  0  0  0  0
    8.8911    0.5023   -5.8772 H   0  0  0  0  0  0  0  0  0  0  0  0
  1  2  1  0  0  0  0
  1 26  1  0  0  0  0
  1 27  1  0  0  0  0
  1 28  1  0  0  0  0
  2  3  1  0  0  0  0
  2 25  1  0  0  0  0
  2 29  1  0  0  0  0
  3  4  1  0  0  0  0
  3 30  1  0  0  0  0
  4  5  2  0  0  0  0
  4 19  1  0  0  0  0
  5  6  1  0  0  0  0
  5 31  1  0  0  0  0
  6  7  1  0  0  0  0
  6 17  2  0  0  0  0
  7 32  1  0  0  0  0
  8 10  1  0  0  0  0
  8 15  1  0  0  0  0
  8  9  1  1  0  0  0
  8  7  1  0  0  0  0
 10 11  1  0  0  0  0
 10 33  1  0  0  0  0
 10 34  1  0  0  0  0
 11 12  1  0  0  0  0
 11 35  1  0  0  0  0
 11 36  1  0  0  0  0
 12 14  1  0  0  0  0
 12 16  1  0  0  0  0
 12 13  1  6  0  0  0
 14 15  1  0  0  0  0
 14 37  1  0  0  0  0
 14 38  1  0  0  0  0
 15 39  1  0  0  0  0
 15 40  1  0  0  0  0
 16 41  1  0  0  0  0
 16 42  1  0  0  0  0
 17 18  1  0  0  0  0
 18 19  1  0  0  0  0
 18 22  2  0  0  0  0
 19 20  1  0  0  0  0
 20 21  2  0  0  0  0
 21 22  1  0  0  0  0
 21 43  1  0  0  0  0
 22 23  1  0  0  0  0
 23 24  3  0  0  0  0
 25 44  1  0  0  0  0
 25 45  1  0  0  0  0
 25 46  1  0  0  0  0
M  END
$$$$
