LZD
 OpenBabel04121316153D

 42 44  0  0  1  0  0  0  0  0999 V2000
    0.7416    0.0809   -0.3607 O   0  0  0  0  0  0  0  0  0  0  0  0
    1.9271    0.1987   -0.0301 C   0  0  0  0  0  0  0  0  0  0  0  0
    2.2759    0.9954    1.1991 C   0  0  0  0  0  0  0  0  0  0  0  0
    2.2528    2.3517    1.1883 N   0  0  0  0  0  0  0  0  0  0  0  0
    3.0162    2.7225    2.2345 N   0  0  0  0  0  0  0  0  0  0  0  0
    3.3286    3.6924    2.2771 H   0  0  0  0  0  0  0  0  0  0  0  0
    3.5317    1.6607    2.9337 C   0  0  0  0  0  0  0  0  0  0  0  0
    2.9629    0.5130    2.3931 C   0  0  0  0  0  0  0  0  0  0  0  0
    3.4781   -0.7920    2.6225 N   0  0  0  0  0  0  0  0  0  0  0  0
    3.1202   -1.9066    1.8647 C   0  0  0  0  0  0  0  0  0  0  0  0
    2.0881   -1.9856    1.1790 O   0  0  0  0  0  0  0  0  0  0  0  0
    3.9434   -3.1310    1.8381 C   0  0  0  0  0  0  0  0  0  0  0  0
    4.8858   -3.4025    2.8098 C   0  0  0  0  0  0  0  0  0  0  0  0
    5.3834   -2.4249    3.5780 F   0  0  0  0  0  0  0  0  0  0  0  0
    5.2953   -4.7118    3.0194 C   0  0  0  0  0  0  0  0  0  0  0  0
    4.6930   -5.7420    2.2956 C   0  0  0  0  0  0  0  0  0  0  0  0
    4.0038   -5.4412    1.1283 C   0  0  0  0  0  0  0  0  0  0  0  0
    3.6953   -4.1165    0.8693 C   0  0  0  0  0  0  0  0  0  0  0  0
    3.1757   -3.8151   -0.3329 F   0  0  0  0  0  0  0  0  0  0  0  0
    2.8789   -0.5144   -0.8174 N   0  0  0  0  0  0  0  0  0  0  0  0
    4.3843   -0.6514   -1.1181 C   0  0  1  0  0  0  0  0  0  0  0  0
    4.4813   -1.5784   -1.7006 H   0  0  0  0  0  0  0  0  0  0  0  0
    4.8897    0.5382   -1.9250 C   0  0  0  0  0  0  0  0  0  0  0  0
    4.6098    1.7930   -1.1279 C   0  0  0  0  0  0  0  0  0  0  0  0
    5.3478    1.6904    0.2076 C   0  0  0  0  0  0  0  0  0  0  0  0
    5.2348    0.3926    0.8789 N   0  0  0  0  0  0  0  0  0  0  0  0
    5.3943   -0.7688    0.0425 C   0  0  0  0  0  0  0  0  0  0  0  0
    4.4182    1.8133    3.5439 H   0  0  0  0  0  0  0  0  0  0  0  0
    4.4035   -0.7923    3.0561 H   0  0  0  0  0  0  0  0  0  0  0  0
    6.0268   -4.9260    3.7901 H   0  0  0  0  0  0  0  0  0  0  0  0
    4.7691   -6.7701    2.6346 H   0  0  0  0  0  0  0  0  0  0  0  0
    3.6683   -6.2184    0.4466 H   0  0  0  0  0  0  0  0  0  0  0  0
    2.3285   -1.1491   -1.3889 H   0  0  0  0  0  0  0  0  0  0  0  0
    4.4360    0.5688   -2.9129 H   0  0  0  0  0  0  0  0  0  0  0  0
    5.9796    0.4547   -2.0442 H   0  0  0  0  0  0  0  0  0  0  0  0
    3.5251    1.9080   -1.0227 H   0  0  0  0  0  0  0  0  0  0  0  0
    4.9284    2.6945   -1.6477 H   0  0  0  0  0  0  0  0  0  0  0  0
    4.9767    2.4968    0.8440 H   0  0  0  0  0  0  0  0  0  0  0  0
    6.4102    1.8760    0.1123 H   0  0  0  0  0  0  0  0  0  0  0  0
    4.2369    0.2923    0.9630 H   0  0  0  0  0  0  0  0  0  0  0  0
    5.1878   -1.6679    0.6001 H   0  0  0  0  0  0  0  0  0  0  0  0
    6.4535   -0.8609   -0.1961 H   0  0  0  0  0  0  0  0  0  0  0  0
  1  2  2  0  0  0  0
  2  3  1  0  0  0  0
  2 20  1  0  0  0  0
  3  4  2  0  0  0  0
  3  8  1  0  0  0  0
  4  5  1  0  0  0  0
  5  6  1  0  0  0  0
  5  7  1  0  0  0  0
  7  8  2  0  0  0  0
  7 28  1  0  0  0  0
  8  9  1  0  0  0  0
  9 10  1  0  0  0  0
  9 29  1  0  0  0  0
 10 11  2  0  0  0  0
 10 12  1  0  0  0  0
 12 13  2  0  0  0  0
 12 18  1  0  0  0  0
 13 14  1  0  0  0  0
 13 15  1  0  0  0  0
 15 16  2  0  0  0  0
 15 30  1  0  0  0  0
 16 17  1  0  0  0  0
 16 31  1  0  0  0  0
 17 18  2  0  0  0  0
 17 32  1  0  0  0  0
 18 19  1  0  0  0  0
 20 21  1  0  0  0  0
 20 33  1  0  0  0  0
 21 22  1  6  0  0  0
 21 23  1  0  0  0  0
 21 27  1  0  0  0  0
 23 24  1  0  0  0  0
 23 34  1  0  0  0  0
 23 35  1  0  0  0  0
 24 25  1  0  0  0  0
 24 36  1  0  0  0  0
 24 37  1  0  0  0  0
 25 26  1  0  0  0  0
 25 38  1  0  0  0  0
 25 39  1  0  0  0  0
 26 27  1  0  0  0  0
 26 40  1  0  0  0  0
 27 41  1  0  0  0  0
 27 42  1  0  0  0  0
M  END
$$$$
