LZF
 OpenBabel04121316153D

 56 59  0  0  1  0  0  0  0  0999 V2000
    0.9727   -0.0255   -0.0632 C   0  0  0  0  0  0  0  0  0  0  0  0
    2.3722    0.1010    0.0688 O   0  0  0  0  0  0  0  0  0  0  0  0
    2.9161    1.2564   -0.5572 C   0  0  1  0  0  0  0  0  0  0  0  0
    2.9079    1.1230   -1.6497 H   0  0  0  0  0  0  0  0  0  0  0  0
    2.2091    2.5467   -0.1699 C   0  0  0  0  0  0  0  0  0  0  0  0
    3.2007    3.6072   -0.3103 N   0  0  0  0  0  0  0  0  0  0  0  0
    4.4673    2.9979    0.1463 C   0  0  0  0  0  0  0  0  0  0  0  0
    4.3529    1.4865   -0.0492 C   0  0  2  0  0  0  0  0  0  0  0  0
    4.5113    0.9737    0.9082 H   0  0  0  0  0  0  0  0  0  0  0  0
    5.3467    0.9794   -0.9825 N   0  0  0  0  0  0  0  0  0  0  0  0
    5.4046   -0.3717   -1.2227 C   0  0  0  0  0  0  0  0  0  0  0  0
    4.6391   -1.1570   -0.6566 O   0  0  0  0  0  0  0  0  0  0  0  0
    6.3921   -0.8080   -2.1760 C   0  0  0  0  0  0  0  0  0  0  0  0
    7.3212   -0.1189   -2.9384 C   0  0  0  0  0  0  0  0  0  0  0  0
    8.0873   -1.0066   -3.7596 C   0  0  0  0  0  0  0  0  0  0  0  0
    7.7008   -2.3092   -3.5818 C   0  0  0  0  0  0  0  0  0  0  0  0
    6.4608   -2.4999   -2.4693 S   0  0  0  0  0  0  0  0  0  0  0  0
    8.3252   -3.7077   -4.3482 Cl  0  0  0  0  0  0  0  0  0  0  0  0
    3.3101    4.0916   -1.6963 C   0  0  0  0  0  0  0  0  0  0  0  0
    4.2901    5.2711   -1.7491 C   0  0  0  0  0  0  0  0  0  0  0  0
    4.8946    5.7060   -0.7682 O   0  0  0  0  0  0  0  0  0  0  0  0
    4.4465    5.8106   -3.0095 N   0  0  0  0  0  0  0  0  0  0  0  0
    5.4123    6.8083   -3.1673 C   0  0  0  0  0  0  0  0  0  0  0  0
    5.0201    8.1152   -2.9293 C   0  0  0  0  0  0  0  0  0  0  0  0
    5.9083    9.1482   -3.1971 C   0  0  0  0  0  0  0  0  0  0  0  0
    7.2452    8.8919   -3.5546 C   0  0  0  0  0  0  0  0  0  0  0  0
    7.6592    7.5512   -3.5998 C   0  0  0  0  0  0  0  0  0  0  0  0
    6.7334    6.5213   -3.4879 C   0  0  0  0  0  0  0  0  0  0  0  0
    7.1342    5.2530   -3.6684 F   0  0  0  0  0  0  0  0  0  0  0  0
    8.1149    9.9807   -3.9403 N   0  0  0  0  0  0  0  0  0  0  0  0
    7.7613   11.3078   -3.6774 C   0  0  0  0  0  0  0  0  0  0  0  0
    8.3745   12.3446   -4.2572 C   0  0  0  0  0  0  0  0  0  0  0  0
    9.5398   12.1248   -5.0612 C   0  0  0  0  0  0  0  0  0  0  0  0
   10.0206   10.8889   -5.2149 C   0  0  0  0  0  0  0  0  0  0  0  0
    9.2410    9.7115   -4.7542 C   0  0  0  0  0  0  0  0  0  0  0  0
    9.6222    8.6207   -5.1762 O   0  0  0  0  0  0  0  0  0  0  0  0
    0.6791   -1.0016    0.3264 H   0  0  0  0  0  0  0  0  0  0  0  0
    0.6619    0.0642   -1.1076 H   0  0  0  0  0  0  0  0  0  0  0  0
    0.4872    0.7383    0.5481 H   0  0  0  0  0  0  0  0  0  0  0  0
    1.8865    2.4943    0.8773 H   0  0  0  0  0  0  0  0  0  0  0  0
    1.3049    2.7108   -0.7674 H   0  0  0  0  0  0  0  0  0  0  0  0
    4.5969    3.2221    1.2114 H   0  0  0  0  0  0  0  0  0  0  0  0
    5.3569    3.3936   -0.3552 H   0  0  0  0  0  0  0  0  0  0  0  0
    6.0436    1.6023   -1.3678 H   0  0  0  0  0  0  0  0  0  0  0  0
    7.4599    0.9564   -2.9255 H   0  0  0  0  0  0  0  0  0  0  0  0
    8.8718   -0.6990   -4.4377 H   0  0  0  0  0  0  0  0  0  0  0  0
    2.3359    4.4636   -2.0373 H   0  0  0  0  0  0  0  0  0  0  0  0
    3.6396    3.3065   -2.3885 H   0  0  0  0  0  0  0  0  0  0  0  0
    4.1485    5.3032   -3.8326 H   0  0  0  0  0  0  0  0  0  0  0  0
    4.0197    8.3373   -2.5708 H   0  0  0  0  0  0  0  0  0  0  0  0
    5.4930   10.1491   -3.1690 H   0  0  0  0  0  0  0  0  0  0  0  0
    8.6970    7.2680   -3.7384 H   0  0  0  0  0  0  0  0  0  0  0  0
    6.9532   11.5011   -2.9810 H   0  0  0  0  0  0  0  0  0  0  0  0
    8.0450   13.3624   -4.0778 H   0  0  0  0  0  0  0  0  0  0  0  0
   10.0602   12.9820   -5.4697 H   0  0  0  0  0  0  0  0  0  0  0  0
   10.9455   10.6692   -5.7304 H   0  0  0  0  0  0  0  0  0  0  0  0
  1  2  1  0  0  0  0
  1 37  1  0  0  0  0
  1 38  1  0  0  0  0
  1 39  1  0  0  0  0
  2  3  1  0  0  0  0
  3  4  1  6  0  0  0
  3  5  1  0  0  0  0
  3  8  1  0  0  0  0
  5  6  1  0  0  0  0
  5 40  1  0  0  0  0
  5 41  1  0  0  0  0
  6  7  1  0  0  0  0
  6 19  1  0  0  0  0
  7  8  1  0  0  0  0
  7 42  1  0  0  0  0
  7 43  1  0  0  0  0
  8  9  1  1  0  0  0
  8 10  1  0  0  0  0
 10 11  1  0  0  0  0
 10 44  1  0  0  0  0
 11 12  2  0  0  0  0
 11 13  1  0  0  0  0
 13 14  2  0  0  0  0
 13 17  1  0  0  0  0
 14 15  1  0  0  0  0
 14 45  1  0  0  0  0
 15 16  2  0  0  0  0
 15 46  1  0  0  0  0
 16 17  1  0  0  0  0
 16 18  1  0  0  0  0
 19 20  1  0  0  0  0
 19 47  1  0  0  0  0
 19 48  1  0  0  0  0
 20 21  2  0  0  0  0
 20 22  1  0  0  0  0
 22 23  1  0  0  0  0
 22 49  1  0  0  0  0
 23 24  2  0  0  0  0
 23 28  1  0  0  0  0
 24 25  1  0  0  0  0
 24 50  1  0  0  0  0
 25 26  2  0  0  0  0
 25 51  1  0  0  0  0
 26 27  1  0  0  0  0
 26 30  1  0  0  0  0
 27 28  2  0  0  0  0
 27 52  1  0  0  0  0
 28 29  1  0  0  0  0
 30 31  1  0  0  0  0
 30 35  1  0  0  0  0
 31 32  2  0  0  0  0
 31 53  1  0  0  0  0
 32 33  1  0  0  0  0
 32 54  1  0  0  0  0
 33 34  2  0  0  0  0
 33 55  1  0  0  0  0
 34 35  1  0  0  0  0
 34 56  1  0  0  0  0
 35 36  2  0  0  0  0
M  END
$$$$
