LZH
 OpenBabel04121316153D

 56 59  0  0  1  0  0  0  0  0999 V2000
    4.6447   -1.3599    2.6369 O   0  0  0  0  0  0  0  0  0  0  0  0
    4.2367   -0.5781    1.5172 C   0  0  0  0  0  0  0  0  0  0  0  0
    2.9675   -1.1641    0.8514 C   0  0  2  0  0  0  0  0  0  0  0  0
    2.5815   -0.4281    0.1338 H   0  0  0  0  0  0  0  0  0  0  0  0
    1.9004   -1.3870    1.8802 C   0  0  0  0  0  0  0  0  0  0  0  0
    2.1302   -2.8034    2.3866 C   0  0  2  0  0  0  0  0  0  0  0  0
    2.9317   -2.8434    3.1309 H   0  0  0  0  0  0  0  0  0  0  0  0
    2.5850   -3.5265    1.1154 C   0  0  0  0  0  0  0  0  0  0  0  0
    3.0798   -2.4950    0.1947 N   0  0  0  0  0  0  0  0  0  0  0  0
    4.4247   -2.7653   -0.3277 C   0  0  0  0  0  0  0  0  0  0  0  0
    4.8413   -1.6551   -1.3114 C   0  0  0  0  0  0  0  0  0  0  0  0
    4.0569   -0.8039   -1.7349 O   0  0  0  0  0  0  0  0  0  0  0  0
    6.2070   -1.6312   -1.6073 N   0  0  0  0  0  0  0  0  0  0  0  0
    6.5966   -0.6426   -2.5357 C   0  0  0  0  0  0  0  0  0  0  0  0
    6.5338    0.6880   -2.1325 C   0  0  0  0  0  0  0  0  0  0  0  0
    6.5449    1.6952   -3.0881 C   0  0  0  0  0  0  0  0  0  0  0  0
    6.7253    1.3970   -4.4461 C   0  0  0  0  0  0  0  0  0  0  0  0
    6.9791    0.0663   -4.8149 C   0  0  0  0  0  0  0  0  0  0  0  0
    6.8543   -0.9498   -3.8693 C   0  0  0  0  0  0  0  0  0  0  0  0
    6.8614   -2.2267   -4.2821 F   0  0  0  0  0  0  0  0  0  0  0  0
    6.6707    2.4454   -5.4229 N   0  0  0  0  0  0  0  0  0  0  0  0
    7.5560    2.4524   -6.4954 C   0  0  0  0  0  0  0  0  0  0  0  0
    7.6940    3.5214   -7.2869 C   0  0  0  0  0  0  0  0  0  0  0  0
    6.8082    4.6422   -7.1447 C   0  0  0  0  0  0  0  0  0  0  0  0
    5.8241    4.6096   -6.2415 C   0  0  0  0  0  0  0  0  0  0  0  0
    5.7597    3.5125   -5.2385 C   0  0  0  0  0  0  0  0  0  0  0  0
    4.9169    3.6243   -4.3492 O   0  0  0  0  0  0  0  0  0  0  0  0
    0.9743   -3.4087    3.0191 N   0  0  0  0  0  0  0  0  0  0  0  0
   -0.0561   -2.6353    3.5072 C   0  0  0  0  0  0  0  0  0  0  0  0
   -0.0589   -1.4010    3.4442 O   0  0  0  0  0  0  0  0  0  0  0  0
   -1.1664   -3.3245    4.0917 C   0  0  0  0  0  0  0  0  0  0  0  0
   -1.3524   -4.6329    4.4908 C   0  0  0  0  0  0  0  0  0  0  0  0
   -2.6441   -4.8081    5.0805 C   0  0  0  0  0  0  0  0  0  0  0  0
   -3.3689   -3.6444    5.0670 C   0  0  0  0  0  0  0  0  0  0  0  0
   -2.5609   -2.3571    4.3701 S   0  0  0  0  0  0  0  0  0  0  0  0
   -4.9488   -3.3684    5.6632 Cl  0  0  0  0  0  0  0  0  0  0  0  0
    5.4609   -0.9657    2.9818 H   0  0  0  0  0  0  0  0  0  0  0  0
    5.0809   -0.5382    0.8311 H   0  0  0  0  0  0  0  0  0  0  0  0
    4.0529    0.4504    1.8413 H   0  0  0  0  0  0  0  0  0  0  0  0
    0.9251   -1.3075    1.3787 H   0  0  0  0  0  0  0  0  0  0  0  0
    1.9486   -0.6448    2.6852 H   0  0  0  0  0  0  0  0  0  0  0  0
    1.7358   -4.0414    0.6458 H   0  0  0  0  0  0  0  0  0  0  0  0
    3.3324   -4.2932    1.3471 H   0  0  0  0  0  0  0  0  0  0  0  0
    4.4504   -3.7216   -0.8562 H   0  0  0  0  0  0  0  0  0  0  0  0
    5.1476   -2.8135    0.4945 H   0  0  0  0  0  0  0  0  0  0  0  0
    6.6548   -2.5363   -1.6642 H   0  0  0  0  0  0  0  0  0  0  0  0
    6.4028    0.9441   -1.0858 H   0  0  0  0  0  0  0  0  0  0  0  0
    6.3993    2.7173   -2.7465 H   0  0  0  0  0  0  0  0  0  0  0  0
    7.1671   -0.2152   -5.8447 H   0  0  0  0  0  0  0  0  0  0  0  0
    8.1957    1.5881   -6.6346 H   0  0  0  0  0  0  0  0  0  0  0  0
    8.4484    3.5451   -8.0650 H   0  0  0  0  0  0  0  0  0  0  0  0
    6.9109    5.4756   -7.8295 H   0  0  0  0  0  0  0  0  0  0  0  0
    5.0629    5.3751   -6.1635 H   0  0  0  0  0  0  0  0  0  0  0  0
    1.0255   -4.3899    3.2556 H   0  0  0  0  0  0  0  0  0  0  0  0
   -0.6080   -5.4153    4.4014 H   0  0  0  0  0  0  0  0  0  0  0  0
   -3.0107   -5.7359    5.4935 H   0  0  0  0  0  0  0  0  0  0  0  0
  1  2  1  0  0  0  0
  1 37  1  0  0  0  0
  2 38  1  0  0  0  0
  2 39  1  0  0  0  0
  3  5  1  0  0  0  0
  3  9  1  0  0  0  0
  3  4  1  6  0  0  0
  3  2  1  0  0  0  0
  5  6  1  0  0  0  0
  5 40  1  0  0  0  0
  5 41  1  0  0  0  0
  6  8  1  0  0  0  0
  6 28  1  0  0  0  0
  6  7  1  1  0  0  0
  8  9  1  0  0  0  0
  8 42  1  0  0  0  0
  8 43  1  0  0  0  0
  9 10  1  0  0  0  0
 10 11  1  0  0  0  0
 10 44  1  0  0  0  0
 10 45  1  0  0  0  0
 11 12  2  0  0  0  0
 11 13  1  0  0  0  0
 13 14  1  0  0  0  0
 13 46  1  0  0  0  0
 14 15  2  0  0  0  0
 14 19  1  0  0  0  0
 15 16  1  0  0  0  0
 15 47  1  0  0  0  0
 16 17  2  0  0  0  0
 16 48  1  0  0  0  0
 17 18  1  0  0  0  0
 17 21  1  0  0  0  0
 18 19  2  0  0  0  0
 18 49  1  0  0  0  0
 19 20  1  0  0  0  0
 21 22  1  0  0  0  0
 21 26  1  0  0  0  0
 22 23  2  0  0  0  0
 22 50  1  0  0  0  0
 23 24  1  0  0  0  0
 23 51  1  0  0  0  0
 24 25  2  0  0  0  0
 24 52  1  0  0  0  0
 25 26  1  0  0  0  0
 25 53  1  0  0  0  0
 26 27  2  0  0  0  0
 28 29  1  0  0  0  0
 28 54  1  0  0  0  0
 29 30  2  0  0  0  0
 29 31  1  0  0  0  0
 31 32  2  0  0  0  0
 31 35  1  0  0  0  0
 32 33  1  0  0  0  0
 32 55  1  0  0  0  0
 33 34  2  0  0  0  0
 33 56  1  0  0  0  0
 34 35  1  0  0  0  0
 34 36  1  0  0  0  0
M  END
$$$$
