LZM
 OpenBabel04121316153D

 15 16  0  0  0  0  0  0  0  0999 V2000
    0.8683   -0.0756    0.0494 N   0  0  0  0  0  0  0  0  0  0  0  0
    2.0270   -0.0275    0.0495 C   0  0  0  0  0  0  0  0  0  0  0  0
    3.4482   -0.0231    0.0498 C   0  0  0  0  0  0  0  0  0  0  0  0
    4.3083   -1.1281    0.0505 C   0  0  0  0  0  0  0  0  0  0  0  0
    5.5974   -0.7776    0.0515 N   0  0  0  0  0  0  0  0  0  0  0  0
    5.5778    0.5826    0.0513 N   0  0  0  0  0  0  0  0  0  0  0  0
    4.2670    1.0817    0.0507 C   0  0  0  0  0  0  0  0  0  0  0  0
    4.0004    2.4255    0.0519 N   0  0  0  0  0  0  0  0  0  0  0  0
    5.0342    3.2115    0.0508 C   0  0  0  0  0  0  0  0  0  0  0  0
    6.4594    2.7850    0.0471 C   0  0  0  0  0  0  0  0  0  0  0  0
    6.6614    1.4597    0.0502 C   0  0  0  0  0  0  0  0  0  0  0  0
    4.0418   -2.1789    0.0506 H   0  0  0  0  0  0  0  0  0  0  0  0
    4.8724    4.3024    0.0541 H   0  0  0  0  0  0  0  0  0  0  0  0
    7.2401    3.5309    0.0429 H   0  0  0  0  0  0  0  0  0  0  0  0
    7.6472    1.0135    0.0505 H   0  0  0  0  0  0  0  0  0  0  0  0
  1  2  3  0  0  0  0
  2  3  1  0  0  0  0
  3  4  1  0  0  0  0
  3  7  2  0  0  0  0
  4  5  2  0  0  0  0
  4 12  1  0  0  0  0
  5  6  1  0  0  0  0
  6  7  1  0  0  0  0
  6 11  1  0  0  0  0
  7  8  1  0  0  0  0
  8  9  2  0  0  0  0
  9 10  1  0  0  0  0
  9 13  1  0  0  0  0
 10 11  2  0  0  0  0
 10 14  1  0  0  0  0
 11 15  1  0  0  0  0
M  END
$$$$
