M01
 OpenBabel04121316153D

 33 35  0  0  0  0  0  0  0  0999 V2000
    1.0329   -0.2936    0.2886 N   0  0  0  0  0  0  0  0  0  0  0  0
    2.4711   -0.1671    0.1129 C   0  0  0  0  0  0  0  0  0  0  0  0
    2.9265    0.5643   -1.1776 C   0  0  0  0  0  0  0  0  0  0  0  0
    1.9100    0.4873   -2.3243 C   0  0  0  0  0  0  0  0  0  0  0  0
    0.6701    1.3372   -2.0474 C   0  0  0  0  0  0  0  0  0  0  0  0
    1.0867    2.6999   -1.7711 N   0  0  0  0  0  0  0  0  0  0  0  0
    2.0066    2.8783   -0.6490 C   0  0  0  0  0  0  0  0  0  0  0  0
    3.2660    2.0489   -0.9239 C   0  0  0  0  0  0  0  0  0  0  0  0
    0.5073    3.7536   -2.4440 C   0  0  0  0  0  0  0  0  0  0  0  0
    0.8972    5.0277   -2.1500 N   0  0  0  0  0  0  0  0  0  0  0  0
    0.4063    6.0553   -2.8744 C   0  0  0  0  0  0  0  0  0  0  0  0
   -0.4601    6.0188   -3.9068 N   0  0  0  0  0  0  0  0  0  0  0  0
   -0.8428    4.7612   -4.1521 C   0  0  0  0  0  0  0  0  0  0  0  0
   -0.4447    3.6107   -3.4916 C   0  0  0  0  0  0  0  0  0  0  0  0
   -1.0845    2.5155   -4.0561 N   0  0  0  0  0  0  0  0  0  0  0  0
   -1.8192    2.9855   -5.0358 C   0  0  0  0  0  0  0  0  0  0  0  0
   -1.6974    4.3383   -5.1292 N   0  0  0  0  0  0  0  0  0  0  0  0
   -2.1492    4.9350   -5.8079 H   0  0  0  0  0  0  0  0  0  0  0  0
    0.7808   -0.7290    1.1695 H   0  0  0  0  0  0  0  0  0  0  0  0
    0.6369   -0.8720   -0.4529 H   0  0  0  0  0  0  0  0  0  0  0  0
    2.8956   -1.1755    0.1164 H   0  0  0  0  0  0  0  0  0  0  0  0
    2.8756    0.3525    0.9875 H   0  0  0  0  0  0  0  0  0  0  0  0
    3.8486    0.0722   -1.5179 H   0  0  0  0  0  0  0  0  0  0  0  0
    1.6258   -0.5486   -2.5359 H   0  0  0  0  0  0  0  0  0  0  0  0
    2.3818    0.8701   -3.2422 H   0  0  0  0  0  0  0  0  0  0  0  0
    0.0358    1.0144   -1.2235 H   0  0  0  0  0  0  0  0  0  0  0  0
    0.0365    1.1858   -2.9110 H   0  0  0  0  0  0  0  0  0  0  0  0
    1.5384    2.5346    0.2822 H   0  0  0  0  0  0  0  0  0  0  0  0
    2.2980    3.9203   -0.4775 H   0  0  0  0  0  0  0  0  0  0  0  0
    3.9819    2.1383   -0.0985 H   0  0  0  0  0  0  0  0  0  0  0  0
    3.7689    2.4564   -1.8132 H   0  0  0  0  0  0  0  0  0  0  0  0
    0.7682    7.0379   -2.5900 H   0  0  0  0  0  0  0  0  0  0  0  0
   -2.4381    2.3896   -5.6915 H   0  0  0  0  0  0  0  0  0  0  0  0
  1  2  1  0  0  0  0
  1 19  1  0  0  0  0
  1 20  1  0  0  0  0
  2  3  1  0  0  0  0
  2 21  1  0  0  0  0
  2 22  1  0  0  0  0
  3  4  1  0  0  0  0
  3  8  1  0  0  0  0
  3 23  1  0  0  0  0
  4  5  1  0  0  0  0
  4 24  1  0  0  0  0
  4 25  1  0  0  0  0
  5  6  1  0  0  0  0
  5 26  1  0  0  0  0
  5 27  1  0  0  0  0
  6  7  1  0  0  0  0
  6  9  1  0  0  0  0
  7  8  1  0  0  0  0
  7 28  1  0  0  0  0
  7 29  1  0  0  0  0
  8 30  1  0  0  0  0
  8 31  1  0  0  0  0
  9 10  2  0  0  0  0
  9 14  1  0  0  0  0
 10 11  1  0  0  0  0
 11 12  2  0  0  0  0
 11 32  1  0  0  0  0
 12 13  1  0  0  0  0
 13 14  2  0  0  0  0
 13 17  1  0  0  0  0
 14 15  1  0  0  0  0
 15 16  2  0  0  0  0
 16 17  1  0  0  0  0
 16 33  1  0  0  0  0
 17 18  1  0  0  0  0
M  END
$$$$
