M04
 OpenBabel04121316153D

 47 50  0  0  0  0  0  0  0  0999 V2000
    0.8216    0.0365   -0.0655 N   0  0  0  0  0  0  0  0  0  0  0  0
    2.2750    0.0003   -0.0308 C   0  0  0  0  0  0  0  0  0  0  0  0
    2.9434    1.1966    0.7111 C   0  0  0  0  0  0  0  0  0  0  0  0
    4.4765    0.9006    0.7210 C   0  0  0  0  0  0  0  0  0  0  0  0
    5.0614    0.8699   -0.7077 C   0  0  0  0  0  0  0  0  0  0  0  0
    4.7128    2.1065   -1.3876 N   0  0  0  0  0  0  0  0  0  0  0  0
    3.3129    2.4965   -1.4587 C   0  0  0  0  0  0  0  0  0  0  0  0
    2.7354    2.5285   -0.0546 C   0  0  0  0  0  0  0  0  0  0  0  0
    5.7222    2.9360   -1.8179 C   0  0  0  0  0  0  0  0  0  0  0  0
    6.8313    2.3947   -2.3905 N   0  0  0  0  0  0  0  0  0  0  0  0
    7.7666    3.2158   -2.9083 C   0  0  0  0  0  0  0  0  0  0  0  0
    7.7863    4.5610   -2.9215 N   0  0  0  0  0  0  0  0  0  0  0  0
    6.6892    5.0572   -2.3247 C   0  0  0  0  0  0  0  0  0  0  0  0
    5.6576    4.3428   -1.7528 C   0  0  0  0  0  0  0  0  0  0  0  0
    4.7518    5.3035   -1.2169 C   0  0  0  0  0  0  0  0  0  0  0  0
    5.1391    6.5373   -1.6743 C   0  0  0  0  0  0  0  0  0  0  0  0
    6.3969    6.3944   -2.2045 N   0  0  0  0  0  0  0  0  0  0  0  0
    7.0007    7.1362   -2.5047 H   0  0  0  0  0  0  0  0  0  0  0  0
    2.3335    1.3256    2.1507 C   0  0  0  0  0  0  0  0  0  0  0  0
    2.7681    2.5553    2.9254 C   0  0  0  0  0  0  0  0  0  0  0  0
    2.1025    3.7785    2.7243 C   0  0  0  0  0  0  0  0  0  0  0  0
    2.6404    4.9667    3.2139 C   0  0  0  0  0  0  0  0  0  0  0  0
    3.7718    4.9217    4.0208 C   0  0  0  0  0  0  0  0  0  0  0  0
    4.3654    3.7008    4.3387 C   0  0  0  0  0  0  0  0  0  0  0  0
    3.8905    2.5229    3.7576 C   0  0  0  0  0  0  0  0  0  0  0  0
    4.4583    6.3872    4.6039 Cl  0  0  0  0  0  0  0  0  0  0  0  0
    0.4973   -0.7353   -0.6493 H   0  0  0  0  0  0  0  0  0  0  0  0
    0.5068    0.8866   -0.5284 H   0  0  0  0  0  0  0  0  0  0  0  0
    2.5991   -0.0493   -1.0732 H   0  0  0  0  0  0  0  0  0  0  0  0
    2.6021   -0.9415    0.4249 H   0  0  0  0  0  0  0  0  0  0  0  0
    4.6752   -0.0596    1.2128 H   0  0  0  0  0  0  0  0  0  0  0  0
    5.0135    1.6654    1.2954 H   0  0  0  0  0  0  0  0  0  0  0  0
    4.6602    0.0274   -1.2806 H   0  0  0  0  0  0  0  0  0  0  0  0
    6.1417    0.6972   -0.6482 H   0  0  0  0  0  0  0  0  0  0  0  0
    2.7601    1.7942   -2.0869 H   0  0  0  0  0  0  0  0  0  0  0  0
    3.1480    3.4636   -1.9431 H   0  0  0  0  0  0  0  0  0  0  0  0
    1.6772    2.8097   -0.0851 H   0  0  0  0  0  0  0  0  0  0  0  0
    3.2602    3.3273    0.4820 H   0  0  0  0  0  0  0  0  0  0  0  0
    8.6076    2.7242   -3.3915 H   0  0  0  0  0  0  0  0  0  0  0  0
    3.8579    5.1072   -0.6456 H   0  0  0  0  0  0  0  0  0  0  0  0
    4.6436    7.4976   -1.6244 H   0  0  0  0  0  0  0  0  0  0  0  0
    2.5353    0.4210    2.7377 H   0  0  0  0  0  0  0  0  0  0  0  0
    1.2385    1.3843    2.0768 H   0  0  0  0  0  0  0  0  0  0  0  0
    1.2053    3.8201    2.1093 H   0  0  0  0  0  0  0  0  0  0  0  0
    2.1882    5.9161    2.9411 H   0  0  0  0  0  0  0  0  0  0  0  0
    5.2186    3.6634    5.0093 H   0  0  0  0  0  0  0  0  0  0  0  0
    4.4221    1.5898    3.9279 H   0  0  0  0  0  0  0  0  0  0  0  0
  1  2  1  0  0  0  0
  1 27  1  0  0  0  0
  1 28  1  0  0  0  0
  2  3  1  0  0  0  0
  2 29  1  0  0  0  0
  2 30  1  0  0  0  0
  3  4  1  0  0  0  0
  3  8  1  0  0  0  0
  3 19  1  0  0  0  0
  4  5  1  0  0  0  0
  4 31  1  0  0  0  0
  4 32  1  0  0  0  0
  5  6  1  0  0  0  0
  5 33  1  0  0  0  0
  5 34  1  0  0  0  0
  6  7  1  0  0  0  0
  6  9  1  0  0  0  0
  7  8  1  0  0  0  0
  7 35  1  0  0  0  0
  7 36  1  0  0  0  0
  8 37  1  0  0  0  0
  8 38  1  0  0  0  0
  9 10  2  0  0  0  0
  9 14  1  0  0  0  0
 10 11  1  0  0  0  0
 11 12  2  0  0  0  0
 11 39  1  0  0  0  0
 12 13  1  0  0  0  0
 13 14  2  0  0  0  0
 13 17  1  0  0  0  0
 14 15  1  0  0  0  0
 15 16  2  0  0  0  0
 15 40  1  0  0  0  0
 16 17  1  0  0  0  0
 16 41  1  0  0  0  0
 17 18  1  0  0  0  0
 19 20  1  0  0  0  0
 19 42  1  0  0  0  0
 19 43  1  0  0  0  0
 20 21  2  0  0  0  0
 20 25  1  0  0  0  0
 21 22  1  0  0  0  0
 21 44  1  0  0  0  0
 22 23  2  0  0  0  0
 22 45  1  0  0  0  0
 23 24  1  0  0  0  0
 23 26  1  0  0  0  0
 24 25  2  0  0  0  0
 24 46  1  0  0  0  0
 25 47  1  0  0  0  0
M  END
$$$$
