M05
 OpenBabel04121316153D

 45 48  0  0  0  0  0  0  0  0999 V2000
    0.8504    0.1180    0.1512 Cl  0  0  0  0  0  0  0  0  0  0  0  0
    2.5636    0.1141    0.0781 C   0  0  0  0  0  0  0  0  0  0  0  0
    3.2690    1.3135    0.0524 C   0  0  0  0  0  0  0  0  0  0  0  0
    4.6424    1.3035   -0.1899 C   0  0  0  0  0  0  0  0  0  0  0  0
    5.3269    0.0883   -0.3325 C   0  0  0  0  0  0  0  0  0  0  0  0
    4.6189   -1.1023   -0.1350 C   0  0  0  0  0  0  0  0  0  0  0  0
    3.2381   -1.0963    0.0092 C   0  0  0  0  0  0  0  0  0  0  0  0
    6.7623    0.1344   -0.8152 C   0  0  0  0  0  0  0  0  0  0  0  0
    7.7483   -1.2235   -0.8202 C   0  0  0  0  0  0  0  0  0  0  0  0
    6.9275   -1.5955   -2.0941 N   0  3  0  0  0  0  0  0  0  0  0  0
    5.9000   -1.5923   -2.0091 H   0  0  0  0  0  0  0  0  0  0  0  0
    7.1578   -0.9428   -2.8580 H   0  0  0  0  0  0  0  0  0  0  0  0
    7.1416   -2.4851   -2.5645 H   0  0  0  0  0  0  0  0  0  0  0  0
    8.0353   -0.8037    0.7054 C   0  0  0  0  0  0  0  0  0  0  0  0
    7.3294   -1.4846    1.8677 C   0  0  0  0  0  0  0  0  0  0  0  0
    7.7587   -2.8410    1.8573 N   0  0  0  0  0  0  0  0  0  0  0  0
    7.3677   -3.5667    0.6951 C   0  0  0  0  0  0  0  0  0  0  0  0
    7.9339   -2.8269   -0.5222 C   0  0  0  0  0  0  0  0  0  0  0  0
    8.5839   -3.3751    2.8134 C   0  0  0  0  0  0  0  0  0  0  0  0
    8.6317   -4.7255    2.9467 N   0  0  0  0  0  0  0  0  0  0  0  0
    9.3457   -5.2600    3.9562 C   0  0  0  0  0  0  0  0  0  0  0  0
   10.0776   -4.6232    4.8829 N   0  0  0  0  0  0  0  0  0  0  0  0
   10.0817   -3.2974    4.6689 C   0  0  0  0  0  0  0  0  0  0  0  0
    9.4036   -2.6131    3.6809 C   0  0  0  0  0  0  0  0  0  0  0  0
    9.7812   -1.2405    3.8217 C   0  0  0  0  0  0  0  0  0  0  0  0
   10.7132   -1.1560    4.8262 C   0  0  0  0  0  0  0  0  0  0  0  0
   10.7798   -2.3881    5.4244 N   0  0  0  0  0  0  0  0  0  0  0  0
   11.2969   -2.6179    6.2544 H   0  0  0  0  0  0  0  0  0  0  0  0
    2.7504    2.2594    0.1852 H   0  0  0  0  0  0  0  0  0  0  0  0
    5.1632    2.2561   -0.2915 H   0  0  0  0  0  0  0  0  0  0  0  0
    5.1033   -2.0688   -0.1052 H   0  0  0  0  0  0  0  0  0  0  0  0
    2.6997   -2.0399    0.0556 H   0  0  0  0  0  0  0  0  0  0  0  0
    7.2554    1.0233   -0.3864 H   0  0  0  0  0  0  0  0  0  0  0  0
    6.7255    0.5522   -1.8394 H   0  0  0  0  0  0  0  0  0  0  0  0
    7.9826    0.2572    0.9870 H   0  0  0  0  0  0  0  0  0  0  0  0
    9.1268   -0.9287    0.8039 H   0  0  0  0  0  0  0  0  0  0  0  0
    6.2450   -1.4433    1.7957 H   0  0  0  0  0  0  0  0  0  0  0  0
    7.5222   -0.9712    2.8104 H   0  0  0  0  0  0  0  0  0  0  0  0
    6.2773   -3.6345    0.6467 H   0  0  0  0  0  0  0  0  0  0  0  0
    7.7299   -4.6021    0.6724 H   0  0  0  0  0  0  0  0  0  0  0  0
    7.6543   -3.5094   -1.3362 H   0  0  0  0  0  0  0  0  0  0  0  0
    9.0284   -2.9537   -0.5117 H   0  0  0  0  0  0  0  0  0  0  0  0
    9.3195   -6.3447    4.0287 H   0  0  0  0  0  0  0  0  0  0  0  0
    9.4708   -0.3963    3.2254 H   0  0  0  0  0  0  0  0  0  0  0  0
   11.3047   -0.3195    5.1760 H   0  0  0  0  0  0  0  0  0  0  0  0
  1  2  1  0  0  0  0
  2  3  2  0  0  0  0
  2  7  1  0  0  0  0
  3  4  1  0  0  0  0
  3 29  1  0  0  0  0
  4  5  2  0  0  0  0
  4 30  1  0  0  0  0
  5  6  1  0  0  0  0
  5  8  1  0  0  0  0
  6  7  2  0  0  0  0
  6 31  1  0  0  0  0
  7 32  1  0  0  0  0
  8  9  1  0  0  0  0
  8 33  1  0  0  0  0
  8 34  1  0  0  0  0
  9 10  1  0  0  0  0
  9 14  1  0  0  0  0
  9 18  1  0  0  0  0
 10 11  1  0  0  0  0
 10 12  1  0  0  0  0
 10 13  1  0  0  0  0
 14 15  1  0  0  0  0
 14 35  1  0  0  0  0
 14 36  1  0  0  0  0
 15 16  1  0  0  0  0
 15 37  1  0  0  0  0
 15 38  1  0  0  0  0
 16 17  1  0  0  0  0
 16 19  1  0  0  0  0
 17 18  1  0  0  0  0
 17 39  1  0  0  0  0
 17 40  1  0  0  0  0
 18 41  1  0  0  0  0
 18 42  1  0  0  0  0
 19 20  2  0  0  0  0
 19 24  1  0  0  0  0
 20 21  1  0  0  0  0
 21 22  2  0  0  0  0
 21 43  1  0  0  0  0
 22 23  1  0  0  0  0
 23 24  2  0  0  0  0
 23 27  1  0  0  0  0
 24 25  1  0  0  0  0
 25 26  2  0  0  0  0
 25 44  1  0  0  0  0
 26 27  1  0  0  0  0
 26 45  1  0  0  0  0
 27 28  1  0  0  0  0
M  CHG  1  10   1
M  END
$$$$
