M14
 OpenBabel04121316153D

 47 49  0  0  0  0  0  0  0  0999 V2000
    0.7600   -0.0249    0.0495 N   0  0  0  0  0  0  0  0  0  0  0  0
    1.9282   -0.0107    0.0439 C   0  0  0  0  0  0  0  0  0  0  0  0
    3.3458   -0.0396    0.0348 C   0  0  0  0  0  0  0  0  0  0  0  0
    4.0834    1.1758    0.0318 C   0  0  0  0  0  0  0  0  0  0  0  0
    5.4685    1.1258    0.0499 C   0  0  0  0  0  0  0  0  0  0  0  0
    6.1959    2.2982    0.0440 O   0  0  0  0  0  0  0  0  0  0  0  0
    7.5819    2.3406    0.0356 C   0  0  0  0  0  0  0  0  0  0  0  0
    8.1795    3.5912    0.0578 C   0  0  0  0  0  0  0  0  0  0  0  0
    9.5865    3.6684    0.0579 C   0  0  0  0  0  0  0  0  0  0  0  0
   10.1207    4.9115    0.0502 O   0  0  0  0  0  0  0  0  0  0  0  0
   11.5501    4.9198    0.0478 C   0  0  0  0  0  0  0  0  0  0  0  0
   11.8926    6.3673    0.0450 C   0  0  0  0  0  0  0  0  0  0  0  0
   11.0077    7.2160   -0.0472 O   0  0  0  0  0  0  0  0  0  0  0  0
   13.2505    6.6327    0.1212 N   0  0  0  0  0  0  0  0  0  0  0  0
   13.7210    7.9632    0.0952 C   0  0  0  0  0  0  0  0  0  0  0  0
   12.8889    9.0060    0.5205 C   0  0  0  0  0  0  0  0  0  0  0  0
   13.2093   10.3282    0.2725 C   0  0  0  0  0  0  0  0  0  0  0  0
   14.4652   10.6260   -0.2338 C   0  0  0  0  0  0  0  0  0  0  0  0
   15.3965    9.6077   -0.4762 C   0  0  0  0  0  0  0  0  0  0  0  0
   14.9953    8.2729   -0.3822 C   0  0  0  0  0  0  0  0  0  0  0  0
   16.0612    7.0417   -0.9609 Cl  0  0  0  0  0  0  0  0  0  0  0  0
   14.7979   12.3286   -0.5811 S   0  0  0  0  0  0  0  0  0  0  0  0
   13.9638   12.7075   -1.6963 O   0  0  0  0  0  0  0  0  0  0  0  0
   14.8076   13.0273    0.6809 O   0  0  0  0  0  0  0  0  0  0  0  0
   16.3692   12.2941   -1.1403 N   0  0  0  0  0  0  0  0  0  0  0  0
   10.4097    2.5404    0.0677 C   0  0  0  0  0  0  0  0  0  0  0  0
    9.8415    1.3252    0.0501 C   0  0  0  0  0  0  0  0  0  0  0  0
    8.4756    1.2652   -0.0163 C   0  0  0  0  0  0  0  0  0  0  0  0
   10.7641   -0.1247    0.0501 Cl  0  0  0  0  0  0  0  0  0  0  0  0
    5.9940   -0.1544    0.1066 C   0  0  0  0  0  0  0  0  0  0  0  0
    5.3194   -1.3469    0.0455 C   0  0  0  0  0  0  0  0  0  0  0  0
    3.9663   -1.3024    0.0271 C   0  0  0  0  0  0  0  0  0  0  0  0
    6.2534   -2.7929    0.0593 Cl  0  0  0  0  0  0  0  0  0  0  0  0
    3.5639    2.1343    0.0384 H   0  0  0  0  0  0  0  0  0  0  0  0
    7.5848    4.5060    0.0548 H   0  0  0  0  0  0  0  0  0  0  0  0
   11.9441    4.4551   -0.8666 H   0  0  0  0  0  0  0  0  0  0  0  0
   11.9461    4.4536    0.9595 H   0  0  0  0  0  0  0  0  0  0  0  0
   13.9228    5.8913   -0.0590 H   0  0  0  0  0  0  0  0  0  0  0  0
   11.9486    8.8092    1.0286 H   0  0  0  0  0  0  0  0  0  0  0  0
   12.4728   11.1017    0.4779 H   0  0  0  0  0  0  0  0  0  0  0  0
   16.4166    9.8305   -0.7626 H   0  0  0  0  0  0  0  0  0  0  0  0
   16.4781   11.8896   -2.0665 H   0  0  0  0  0  0  0  0  0  0  0  0
   17.0682   12.1165   -0.4253 H   0  0  0  0  0  0  0  0  0  0  0  0
   11.4872    2.5560    0.0647 H   0  0  0  0  0  0  0  0  0  0  0  0
    8.2817    0.2439   -0.1828 H   0  0  0  0  0  0  0  0  0  0  0  0
    6.9912   -0.3940    0.3046 H   0  0  0  0  0  0  0  0  0  0  0  0
    3.4263   -2.2399    0.0328 H   0  0  0  0  0  0  0  0  0  0  0  0
  1  2  3  0  0  0  0
  2  3  1  0  0  0  0
  3  4  2  0  0  0  0
  3 32  1  0  0  0  0
  4  5  1  0  0  0  0
  4 34  1  0  0  0  0
  5  6  1  0  0  0  0
  5 30  2  0  0  0  0
  6  7  1  0  0  0  0
  7  8  2  0  0  0  0
  7 28  1  0  0  0  0
  8  9  1  0  0  0  0
  8 35  1  0  0  0  0
  9 10  1  0  0  0  0
  9 26  2  0  0  0  0
 10 11  1  0  0  0  0
 11 12  1  0  0  0  0
 11 36  1  0  0  0  0
 11 37  1  0  0  0  0
 12 13  2  0  0  0  0
 12 14  1  0  0  0  0
 14 15  1  0  0  0  0
 14 38  1  0  0  0  0
 15 16  2  0  0  0  0
 15 20  1  0  0  0  0
 16 17  1  0  0  0  0
 16 39  1  0  0  0  0
 17 18  2  0  0  0  0
 17 40  1  0  0  0  0
 18 19  1  0  0  0  0
 18 22  1  0  0  0  0
 19 20  2  0  0  0  0
 19 41  1  0  0  0  0
 20 21  1  0  0  0  0
 22 23  2  0  0  0  0
 22 24  2  0  0  0  0
 22 25  1  0  0  0  0
 25 42  1  0  0  0  0
 25 43  1  0  0  0  0
 26 27  1  0  0  0  0
 26 44  1  0  0  0  0
 27 28  2  0  0  0  0
 27 29  1  0  0  0  0
 28 45  1  0  0  0  0
 30 31  1  0  0  0  0
 30 46  1  0  0  0  0
 31 32  2  0  0  0  0
 31 33  1  0  0  0  0
 32 47  1  0  0  0  0
M  END
$$$$
