M18
 OpenBabel04121316153D

 55 56  0  0  1  0  0  0  0  0999 V2000
    5.2320    1.5460   -6.6284 O   0  0  0  0  0  0  0  0  0  0  0  0
    4.5398    1.1389   -5.7015 C   0  0  0  0  0  0  0  0  0  0  0  0
    3.3493    0.2079   -5.8608 C   0  0  0  0  0  0  0  0  0  0  0  0
    3.0854   -0.1306   -7.3058 C   0  0  0  0  0  0  0  0  0  0  0  0
    3.1185   -1.4610   -7.7344 C   0  0  0  0  0  0  0  0  0  0  0  0
    2.9787   -1.7584   -9.0872 C   0  0  0  0  0  0  0  0  0  0  0  0
    2.9321   -0.7271  -10.0260 C   0  0  0  0  0  0  0  0  0  0  0  0
    2.8955    0.5975   -9.6017 C   0  0  0  0  0  0  0  0  0  0  0  0
    2.8863    0.8946   -8.2446 C   0  0  0  0  0  0  0  0  0  0  0  0
    2.9123    1.8736  -10.7548 Cl  0  0  0  0  0  0  0  0  0  0  0  0
    4.8112    1.5508   -4.4482 O   0  0  0  0  0  0  0  0  0  0  0  0
    4.1273    1.0521   -3.2885 C   0  0  0  0  0  0  0  0  0  0  0  0
    4.7845    1.6583   -2.0326 C   0  0  2  0  0  0  0  0  0  0  0  0
    4.4988    1.0584   -1.1634 H   0  0  0  0  0  0  0  0  0  0  0  0
    4.3823    3.1230   -1.8232 C   0  0  0  0  0  0  0  0  0  0  0  0
    5.3696    3.9016   -2.6821 C   0  0  0  0  0  0  0  0  0  0  0  0
    6.6566    3.0855   -2.5712 C   0  0  0  0  0  0  0  0  0  0  0  0
    6.2474    1.7451   -2.1511 N   0  0  0  0  0  0  0  0  0  0  0  0
    7.1825    0.7361   -2.0043 C   0  0  0  0  0  0  0  0  0  0  0  0
    8.3892    0.9281   -2.1717 O   0  0  0  0  0  0  0  0  0  0  0  0
    6.6650   -0.6437   -1.5993 C   0  0  0  0  0  0  0  0  0  0  0  0
    7.7226   -1.6221   -1.4247 N   0  0  0  0  0  0  0  0  0  0  0  0
    7.3901   -2.8905   -1.0630 C   0  0  0  0  0  0  0  0  0  0  0  0
    6.2181   -3.2167   -0.8855 O   0  0  0  0  0  0  0  0  0  0  0  0
    8.4700   -3.7079   -0.9318 O   0  0  0  0  0  0  0  0  0  0  0  0
    8.2191   -5.0906   -0.5409 C   0  0  0  0  0  0  0  0  0  0  0  0
    7.5678   -5.1539    0.8485 C   0  0  0  0  0  0  0  0  0  0  0  0
    7.3687   -5.8103   -1.5981 C   0  0  0  0  0  0  0  0  0  0  0  0
    9.5707   -5.8258   -0.4538 C   0  0  0  0  0  0  0  0  0  0  0  0
    2.4476    0.6724   -5.4488 H   0  0  0  0  0  0  0  0  0  0  0  0
    3.5596   -0.7139   -5.3059 H   0  0  0  0  0  0  0  0  0  0  0  0
    3.2821   -2.2694   -7.0244 H   0  0  0  0  0  0  0  0  0  0  0  0
    2.9408   -2.7940   -9.4115 H   0  0  0  0  0  0  0  0  0  0  0  0
    2.9338   -0.9613  -11.0857 H   0  0  0  0  0  0  0  0  0  0  0  0
    2.8166    1.9314   -7.9210 H   0  0  0  0  0  0  0  0  0  0  0  0
    4.2102   -0.0375   -3.2633 H   0  0  0  0  0  0  0  0  0  0  0  0
    3.0704    1.3334   -3.3415 H   0  0  0  0  0  0  0  0  0  0  0  0
    4.5378    3.3941   -0.7715 H   0  0  0  0  0  0  0  0  0  0  0  0
    3.3379    3.3353   -2.0714 H   0  0  0  0  0  0  0  0  0  0  0  0
    5.4980    4.9339   -2.3436 H   0  0  0  0  0  0  0  0  0  0  0  0
    5.0197    3.9458   -3.7204 H   0  0  0  0  0  0  0  0  0  0  0  0
    7.3275    3.4992   -1.8125 H   0  0  0  0  0  0  0  0  0  0  0  0
    7.1911    3.0393   -3.5266 H   0  0  0  0  0  0  0  0  0  0  0  0
    5.9914   -1.0292   -2.3709 H   0  0  0  0  0  0  0  0  0  0  0  0
    6.1189   -0.5701   -0.6524 H   0  0  0  0  0  0  0  0  0  0  0  0
    8.6895   -1.3582   -1.5806 H   0  0  0  0  0  0  0  0  0  0  0  0
    6.5989   -4.6508    0.8795 H   0  0  0  0  0  0  0  0  0  0  0  0
    8.1976   -4.6555    1.5939 H   0  0  0  0  0  0  0  0  0  0  0  0
    7.4004   -6.1890    1.1619 H   0  0  0  0  0  0  0  0  0  0  0  0
    6.3864   -5.3511   -1.7285 H   0  0  0  0  0  0  0  0  0  0  0  0
    7.1982   -6.8564   -1.3257 H   0  0  0  0  0  0  0  0  0  0  0  0
    7.8580   -5.7744   -2.5779 H   0  0  0  0  0  0  0  0  0  0  0  0
   10.2362   -5.3599    0.2811 H   0  0  0  0  0  0  0  0  0  0  0  0
   10.0982   -5.8144   -1.4138 H   0  0  0  0  0  0  0  0  0  0  0  0
    9.4279   -6.8746   -0.1609 H   0  0  0  0  0  0  0  0  0  0  0  0
  1  2  2  0  0  0  0
  2  3  1  0  0  0  0
  2 11  1  0  0  0  0
  3  4  1  0  0  0  0
  3 30  1  0  0  0  0
  3 31  1  0  0  0  0
  4  5  2  0  0  0  0
  4  9  1  0  0  0  0
  5  6  1  0  0  0  0
  5 32  1  0  0  0  0
  6  7  2  0  0  0  0
  6 33  1  0  0  0  0
  7  8  1  0  0  0  0
  7 34  1  0  0  0  0
  8  9  2  0  0  0  0
  8 10  1  0  0  0  0
  9 35  1  0  0  0  0
 11 12  1  0  0  0  0
 12 36  1  0  0  0  0
 12 37  1  0  0  0  0
 13 15  1  0  0  0  0
 13 18  1  0  0  0  0
 13 14  1  1  0  0  0
 13 12  1  0  0  0  0
 15 16  1  0  0  0  0
 15 38  1  0  0  0  0
 15 39  1  0  0  0  0
 16 17  1  0  0  0  0
 16 40  1  0  0  0  0
 16 41  1  0  0  0  0
 17 18  1  0  0  0  0
 17 42  1  0  0  0  0
 17 43  1  0  0  0  0
 18 19  1  0  0  0  0
 19 20  2  0  0  0  0
 19 21  1  0  0  0  0
 21 22  1  0  0  0  0
 21 44  1  0  0  0  0
 21 45  1  0  0  0  0
 22 23  1  0  0  0  0
 22 46  1  0  0  0  0
 23 24  2  0  0  0  0
 23 25  1  0  0  0  0
 25 26  1  0  0  0  0
 26 27  1  0  0  0  0
 26 28  1  0  0  0  0
 26 29  1  0  0  0  0
 27 47  1  0  0  0  0
 27 48  1  0  0  0  0
 27 49  1  0  0  0  0
 28 50  1  0  0  0  0
 28 51  1  0  0  0  0
 28 52  1  0  0  0  0
 29 53  1  0  0  0  0
 29 54  1  0  0  0  0
 29 55  1  0  0  0  0
M  END
$$$$
