M1B
 OpenBabel04121316153D

 45 48  0  0  0  0  0  0  0  0999 V2000
    1.0630   -0.0294   -0.0487 N   0  0  0  0  0  0  0  0  0  0  0  0
    2.4217   -0.0737    0.0674 C   0  0  0  0  0  0  0  0  0  0  0  0
    3.1223   -0.9912   -0.4946 N   0  0  0  0  0  0  0  0  0  0  0  0
    3.0989    0.9987    0.8374 C   0  0  0  0  0  0  0  0  0  0  0  0
    2.6411    2.3073    0.7077 C   0  0  0  0  0  0  0  0  0  0  0  0
    3.2789    3.3256    1.3932 C   0  0  0  0  0  0  0  0  0  0  0  0
    4.4311    3.0445    2.1233 C   0  0  0  0  0  0  0  0  0  0  0  0
    4.9395    1.7358    2.2582 C   0  0  0  0  0  0  0  0  0  0  0  0
    4.2055    0.7060    1.6389 C   0  0  0  0  0  0  0  0  0  0  0  0
    6.2311    1.4807    2.9444 C   0  0  0  0  0  0  0  0  0  0  0  0
    7.0893    2.5371    3.3023 C   0  0  0  0  0  0  0  0  0  0  0  0
    8.3883    2.3108    3.7450 C   0  0  0  0  0  0  0  0  0  0  0  0
    8.8431    1.0107    3.9459 C   0  0  0  0  0  0  0  0  0  0  0  0
    7.9633   -0.0495    3.7350 C   0  0  0  0  0  0  0  0  0  0  0  0
    6.6977    0.1804    3.1972 C   0  0  0  0  0  0  0  0  0  0  0  0
   10.2176    0.7327    4.3238 C   0  0  0  0  0  0  0  0  0  0  0  0
   10.7523   -0.4633    4.4748 N   0  0  0  0  0  0  0  0  0  0  0  0
   12.0614   -0.2470    4.7992 C   0  0  0  0  0  0  0  0  0  0  0  0
   12.3439    1.1078    4.8476 C   0  0  0  0  0  0  0  0  0  0  0  0
   11.1617    1.7073    4.5303 N   0  0  0  0  0  0  0  0  0  0  0  0
   11.0124    2.7008    4.4592 H   0  0  0  0  0  0  0  0  0  0  0  0
   13.5887    1.6289    5.1626 C   0  0  0  0  0  0  0  0  0  0  0  0
   14.5834    0.6903    5.4457 C   0  0  0  0  0  0  0  0  0  0  0  0
   14.3447   -0.6975    5.4027 C   0  0  0  0  0  0  0  0  0  0  0  0
   13.0683   -1.1764    5.0722 C   0  0  0  0  0  0  0  0  0  0  0  0
   15.4567   -1.6499    5.7138 C   0  0  0  0  0  0  0  0  0  0  0  0
   15.3328   -2.9401    5.6963 N   0  0  0  0  0  0  0  0  0  0  0  0
   16.6945   -1.2026    6.0425 N   0  0  0  0  0  0  0  0  0  0  0  0
    0.5608   -0.8144   -0.4354 H   0  0  0  0  0  0  0  0  0  0  0  0
    0.5405    0.5587    0.5894 H   0  0  0  0  0  0  0  0  0  0  0  0
    2.5155   -1.6162   -1.0308 H   0  0  0  0  0  0  0  0  0  0  0  0
    1.8119    2.5396    0.0483 H   0  0  0  0  0  0  0  0  0  0  0  0
    2.9114    4.3449    1.3385 H   0  0  0  0  0  0  0  0  0  0  0  0
    4.9348    3.8974    2.5658 H   0  0  0  0  0  0  0  0  0  0  0  0
    4.4870   -0.3390    1.7329 H   0  0  0  0  0  0  0  0  0  0  0  0
    6.7994    3.5776    3.2044 H   0  0  0  0  0  0  0  0  0  0  0  0
    9.0232    3.1772    3.8955 H   0  0  0  0  0  0  0  0  0  0  0  0
    8.2718   -1.0719    3.9471 H   0  0  0  0  0  0  0  0  0  0  0  0
    6.1068   -0.6979    2.9562 H   0  0  0  0  0  0  0  0  0  0  0  0
   13.7824    2.6947    5.1958 H   0  0  0  0  0  0  0  0  0  0  0  0
   15.5584    1.0867    5.7040 H   0  0  0  0  0  0  0  0  0  0  0  0
   12.8071   -2.2233    5.0199 H   0  0  0  0  0  0  0  0  0  0  0  0
   14.3923   -3.2450    5.4470 H   0  0  0  0  0  0  0  0  0  0  0  0
   16.9714   -0.2379    6.0918 H   0  0  0  0  0  0  0  0  0  0  0  0
   17.3928   -1.9099    6.2277 H   0  0  0  0  0  0  0  0  0  0  0  0
  1  2  1  0  0  0  0
  1 29  1  0  0  0  0
  1 30  1  0  0  0  0
  2  3  2  0  0  0  0
  2  4  1  0  0  0  0
  3 31  1  0  0  0  0
  4  5  2  0  0  0  0
  4  9  1  0  0  0  0
  5  6  1  0  0  0  0
  5 32  1  0  0  0  0
  6  7  2  0  0  0  0
  6 33  1  0  0  0  0
  7  8  1  0  0  0  0
  7 34  1  0  0  0  0
  8  9  2  0  0  0  0
  8 10  1  0  0  0  0
  9 35  1  0  0  0  0
 10 11  2  0  0  0  0
 10 15  1  0  0  0  0
 11 12  1  0  0  0  0
 11 36  1  0  0  0  0
 12 13  2  0  0  0  0
 12 37  1  0  0  0  0
 13 14  1  0  0  0  0
 13 16  1  0  0  0  0
 14 15  2  0  0  0  0
 14 38  1  0  0  0  0
 15 39  1  0  0  0  0
 16 17  2  0  0  0  0
 16 20  1  0  0  0  0
 17 18  1  0  0  0  0
 18 19  2  0  0  0  0
 18 25  1  0  0  0  0
 19 20  1  0  0  0  0
 19 22  1  0  0  0  0
 20 21  1  0  0  0  0
 22 23  2  0  0  0  0
 22 40  1  0  0  0  0
 23 24  1  0  0  0  0
 23 41  1  0  0  0  0
 24 25  2  0  0  0  0
 24 26  1  0  0  0  0
 25 42  1  0  0  0  0
 26 27  2  0  0  0  0
 26 28  1  0  0  0  0
 27 43  1  0  0  0  0
 28 44  1  0  0  0  0
 28 45  1  0  0  0  0
M  END
$$$$
