M1T
 OpenBabel04121316153D

 25 24  0  0  0  0  0  0  0  0999 V2000
    0.8835    0.0804   -0.0071 C   0  0  0  0  0  0  0  0  0  0  0  0
    2.2969    0.0742   -0.0132 O   0  0  0  0  0  0  0  0  0  0  0  0
    2.8260   -1.0211   -0.7439 C   0  0  0  0  0  0  0  0  0  0  0  0
    4.3453   -0.9668   -0.7145 C   0  0  0  0  0  0  0  0  0  0  0  0
    4.9664   -0.0767   -0.1361 O   0  0  0  0  0  0  0  0  0  0  0  0
    5.0590   -2.0793   -1.4604 C   0  0  0  0  0  0  0  0  0  0  0  0
    6.5633   -1.8889   -1.3354 C   0  0  0  0  0  0  0  0  0  0  0  0
    7.3509   -2.9723   -2.0600 C   0  0  0  0  0  0  0  0  0  0  0  0
    8.8503   -2.7534   -1.8729 C   0  0  0  0  0  0  0  0  0  0  0  0
    9.1506   -2.8281   -0.4968 O   0  0  0  0  0  0  0  0  0  0  0  0
    9.5847   -3.7649   -2.5248 O   0  0  0  0  0  0  0  0  0  0  0  0
    0.5507    0.9447    0.5725 H   0  0  0  0  0  0  0  0  0  0  0  0
    0.5041   -0.8303    0.4640 H   0  0  0  0  0  0  0  0  0  0  0  0
    0.5027    0.1701   -1.0281 H   0  0  0  0  0  0  0  0  0  0  0  0
    2.4996   -0.9655   -1.7879 H   0  0  0  0  0  0  0  0  0  0  0  0
    2.5018   -1.9649   -0.2927 H   0  0  0  0  0  0  0  0  0  0  0  0
    4.7556   -2.0499   -2.5123 H   0  0  0  0  0  0  0  0  0  0  0  0
    4.7585   -3.0411   -1.0306 H   0  0  0  0  0  0  0  0  0  0  0  0
    6.8293   -1.8812   -0.2705 H   0  0  0  0  0  0  0  0  0  0  0  0
    6.8440   -0.9056   -1.7348 H   0  0  0  0  0  0  0  0  0  0  0  0
    7.0965   -2.9818   -3.1265 H   0  0  0  0  0  0  0  0  0  0  0  0
    7.0686   -3.9547   -1.6610 H   0  0  0  0  0  0  0  0  0  0  0  0
    9.1541   -1.7760   -2.2642 H   0  0  0  0  0  0  0  0  0  0  0  0
   10.0926   -2.6080   -0.4279 H   0  0  0  0  0  0  0  0  0  0  0  0
    9.2945   -3.7798   -3.4505 H   0  0  0  0  0  0  0  0  0  0  0  0
  1  2  1  0  0  0  0
  1 12  1  0  0  0  0
  1 13  1  0  0  0  0
  1 14  1  0  0  0  0
  2  3  1  0  0  0  0
  3  4  1  0  0  0  0
  3 15  1  0  0  0  0
  3 16  1  0  0  0  0
  4  5  2  0  0  0  0
  4  6  1  0  0  0  0
  6  7  1  0  0  0  0
  6 17  1  0  0  0  0
  6 18  1  0  0  0  0
  7  8  1  0  0  0  0
  7 19  1  0  0  0  0
  7 20  1  0  0  0  0
  8  9  1  0  0  0  0
  8 21  1  0  0  0  0
  8 22  1  0  0  0  0
  9 10  1  0  0  0  0
  9 11  1  0  0  0  0
  9 23  1  0  0  0  0
 10 24  1  0  0  0  0
 11 25  1  0  0  0  0
M  END
$$$$
