M24
 OpenBabel04121316153D

 64 69  0  0  1  0  0  0  0  0999 V2000
    3.7543    5.5004    5.4672 O   0  0  0  0  0  0  0  0  0  0  0  0
    2.4124    5.0086    5.6034 C   0  0  2  0  0  0  0  0  0  0  0  0
    2.4842    3.9181    5.5938 H   0  0  0  0  0  0  0  0  0  0  0  0
    1.5363    5.5511    4.4729 C   0  0  1  0  0  0  0  0  0  0  0  0
    2.1364    5.7212    3.5696 H   0  0  0  0  0  0  0  0  0  0  0  0
    0.3091    4.6554    4.1316 C   0  0  0  0  0  0  0  0  0  0  0  0
    0.7330    3.4159    3.6500 O   0  0  0  0  0  0  0  0  0  0  0  0
   -0.1369    2.0829    3.2466 P   0  0  2  0  0  0  0  0  0  0  0  0
    0.7241    1.8885    1.9794 O   0  0  0  0  0  0  0  0  0  0  0  0
   -1.4402    2.6184    2.3062 O   0  0  0  0  0  0  0  0  0  0  0  0
   -1.5012    2.3416    0.9518 C   0  0  0  0  0  0  0  0  0  0  0  0
   -0.6393    1.9198    0.1703 O   0  0  0  0  0  0  0  0  0  0  0  0
   -2.7819    2.4897    0.2702 C   0  0  0  0  0  0  0  0  0  0  0  0
   -3.3638    1.3541   -0.3145 C   0  0  0  0  0  0  0  0  0  0  0  0
   -4.3916    1.5036   -1.2470 C   0  0  0  0  0  0  0  0  0  0  0  0
   -4.7233    2.7790   -1.7265 C   0  0  0  0  0  0  0  0  0  0  0  0
   -4.0793    3.9144   -1.2180 C   0  0  0  0  0  0  0  0  0  0  0  0
   -3.1464    3.7570   -0.1716 C   0  0  0  0  0  0  0  0  0  0  0  0
   -4.3049    5.2645   -1.7301 C   0  0  0  0  0  0  0  0  0  0  0  0
   -4.9012    5.6235   -2.8817 N   0  0  0  0  0  0  0  0  0  0  0  0
   -4.7955    7.0378   -2.8756 O   0  0  0  0  0  0  0  0  0  0  0  0
   -4.1472    7.3658   -1.7164 C   0  0  0  0  0  0  0  0  0  0  0  0
   -3.8420    6.3208   -0.9944 N   0  0  0  0  0  0  0  0  0  0  0  0
   -3.8448    8.7519   -1.4086 C   0  0  0  0  0  0  0  0  0  0  0  0
   -4.6837    9.8223   -1.7396 C   0  0  0  0  0  0  0  0  0  0  0  0
   -4.3155   11.1344   -1.4045 C   0  0  0  0  0  0  0  0  0  0  0  0
   -3.1651   11.3789   -0.6518 C   0  0  0  0  0  0  0  0  0  0  0  0
   -2.3815   10.3127   -0.2289 C   0  0  0  0  0  0  0  0  0  0  0  0
   -2.6953    9.0248   -0.6509 C   0  0  0  0  0  0  0  0  0  0  0  0
   -1.8507    8.0380   -0.3113 F   0  0  0  0  0  0  0  0  0  0  0  0
   -1.1014    2.3007    4.6661 O   0  0  0  0  0  0  0  0  0  0  0  0
    1.0989    6.8466    4.9604 O   0  0  0  0  0  0  0  0  0  0  0  0
    0.9123    6.7534    6.3956 C   0  0  2  0  0  0  0  0  0  0  0  0
    1.2590    7.6886    6.8529 H   0  0  0  0  0  0  0  0  0  0  0  0
    1.7172    5.5305    6.8693 C   0  0  2  0  0  0  0  0  0  0  0  0
    1.0597    4.7496    7.2653 H   0  0  0  0  0  0  0  0  0  0  0  0
    2.6490    5.8749    7.8973 O   0  0  0  0  0  0  0  0  0  0  0  0
   -0.5172    6.6646    6.6772 N   0  0  0  0  0  0  0  0  0  0  0  0
   -1.5202    6.6571    5.7388 C   0  0  0  0  0  0  0  0  0  0  0  0
   -2.7029    6.4486    6.2644 N   0  0  0  0  0  0  0  0  0  0  0  0
   -2.4718    6.4101    7.6175 C   0  0  0  0  0  0  0  0  0  0  0  0
   -1.1201    6.5507    7.9057 C   0  0  0  0  0  0  0  0  0  0  0  0
   -0.5548    6.5558    9.1269 N   0  0  0  0  0  0  0  0  0  0  0  0
   -1.5079    6.4273   10.0873 C   0  0  0  0  0  0  0  0  0  0  0  0
   -2.8465    6.2798    9.9460 N   0  0  0  0  0  0  0  0  0  0  0  0
   -3.3548    6.2591    8.6962 C   0  0  0  0  0  0  0  0  0  0  0  0
   -4.7092    6.0894    8.5139 N   0  0  0  0  0  0  0  0  0  0  0  0
    3.7616    6.4553    5.6493 H   0  0  0  0  0  0  0  0  0  0  0  0
   -0.3025    5.1600    3.3770 H   0  0  0  0  0  0  0  0  0  0  0  0
   -0.2896    4.5001    5.0261 H   0  0  0  0  0  0  0  0  0  0  0  0
   -2.9670    0.3594   -0.1069 H   0  0  0  0  0  0  0  0  0  0  0  0
   -4.8982    0.6231   -1.6369 H   0  0  0  0  0  0  0  0  0  0  0  0
   -5.4724    2.8702   -2.5102 H   0  0  0  0  0  0  0  0  0  0  0  0
   -2.6249    4.6206    0.2367 H   0  0  0  0  0  0  0  0  0  0  0  0
   -5.6396    9.6511   -2.2299 H   0  0  0  0  0  0  0  0  0  0  0  0
   -4.9375   11.9720   -1.7137 H   0  0  0  0  0  0  0  0  0  0  0  0
   -2.8841   12.3954   -0.3865 H   0  0  0  0  0  0  0  0  0  0  0  0
   -1.5261   10.4668    0.4217 H   0  0  0  0  0  0  0  0  0  0  0  0
   -1.8100    1.6311    4.6897 H   0  0  0  0  0  0  0  0  0  0  0  0
    2.1354    6.1658    8.6751 H   0  0  0  0  0  0  0  0  0  0  0  0
   -1.3303    6.7657    4.6792 H   0  0  0  0  0  0  0  0  0  0  0  0
   -1.1565    6.4423   11.1165 H   0  0  0  0  0  0  0  0  0  0  0  0
   -5.3111    6.0499    9.3192 H   0  0  0  0  0  0  0  0  0  0  0  0
   -5.0743    6.1288    7.5711 H   0  0  0  0  0  0  0  0  0  0  0  0
  1 48  1  0  0  0  0
  2  4  1  0  0  0  0
  2 35  1  0  0  0  0
  2  3  1  6  0  0  0
  2  1  1  0  0  0  0
  4  5  1  6  0  0  0
  4  6  1  0  0  0  0
  4 32  1  0  0  0  0
  6  7  1  0  0  0  0
  6 49  1  0  0  0  0
  6 50  1  0  0  0  0
  8 10  1  6  0  0  0
  8 31  1  0  0  0  0
  8  9  2  0  0  0  0
  8  7  1  0  0  0  0
 10 11  1  0  0  0  0
 11 12  2  0  0  0  0
 11 13  1  0  0  0  0
 13 14  2  0  0  0  0
 13 18  1  0  0  0  0
 14 15  1  0  0  0  0
 14 51  1  0  0  0  0
 15 16  2  0  0  0  0
 15 52  1  0  0  0  0
 16 17  1  0  0  0  0
 16 53  1  0  0  0  0
 17 18  2  0  0  0  0
 17 19  1  0  0  0  0
 18 54  1  0  0  0  0
 19 20  2  0  0  0  0
 19 23  1  0  0  0  0
 20 21  1  0  0  0  0
 21 22  1  0  0  0  0
 22 23  2  0  0  0  0
 22 24  1  0  0  0  0
 24 25  2  0  0  0  0
 24 29  1  0  0  0  0
 25 26  1  0  0  0  0
 25 55  1  0  0  0  0
 26 27  2  0  0  0  0
 26 56  1  0  0  0  0
 27 28  1  0  0  0  0
 27 57  1  0  0  0  0
 28 29  2  0  0  0  0
 28 58  1  0  0  0  0
 29 30  1  0  0  0  0
 31 59  1  0  0  0  0
 32 33  1  0  0  0  0
 33 35  1  0  0  0  0
 33 38  1  0  0  0  0
 33 34  1  1  0  0  0
 35 36  1  1  0  0  0
 35 37  1  0  0  0  0
 37 60  1  0  0  0  0
 38 39  1  0  0  0  0
 38 42  1  0  0  0  0
 39 40  2  0  0  0  0
 39 61  1  0  0  0  0
 40 41  1  0  0  0  0
 41 42  2  0  0  0  0
 41 46  1  0  0  0  0
 42 43  1  0  0  0  0
 43 44  2  0  0  0  0
 44 45  1  0  0  0  0
 44 62  1  0  0  0  0
 45 46  2  0  0  0  0
 46 47  1  0  0  0  0
 47 63  1  0  0  0  0
 47 64  1  0  0  0  0
M  END
$$$$
