M29
 OpenBabel04121316153D

 32 32  0  0  0  0  0  0  0  0999 V2000
    1.0686   -0.0702   -0.0548 C   0  0  0  0  0  0  0  0  0  0  0  0
    2.5835   -0.0732   -0.0637 C   0  0  0  0  0  0  0  0  0  0  0  0
    3.0500   -0.5511   -1.3338 O   0  0  0  0  0  0  0  0  0  0  0  0
    4.4100   -0.5802   -1.4180 C   0  0  0  0  0  0  0  0  0  0  0  0
    5.1681   -0.2467   -0.5166 O   0  0  0  0  0  0  0  0  0  0  0  0
    4.8591   -1.0838   -2.7642 C   0  0  0  0  0  0  0  0  0  0  0  0
    6.3924   -1.0966   -2.8150 C   0  0  0  0  0  0  0  0  0  0  0  0
    6.8776   -1.5866   -4.1526 C   0  0  0  0  0  0  0  0  0  0  0  0
    7.2510   -0.6778   -5.1501 C   0  0  0  0  0  0  0  0  0  0  0  0
    7.4129   -1.1161   -6.4624 C   0  0  0  0  0  0  0  0  0  0  0  0
    7.3289   -2.4810   -6.7467 C   0  0  0  0  0  0  0  0  0  0  0  0
    7.1367   -3.4106   -5.7221 C   0  0  0  0  0  0  0  0  0  0  0  0
    6.8562   -2.9567   -4.4372 C   0  0  0  0  0  0  0  0  0  0  0  0
    7.3899   -2.9758   -8.4472 S   0  0  0  0  0  0  0  0  0  0  0  0
    6.1854   -2.4963   -9.0770 O   0  0  0  0  0  0  0  0  0  0  0  0
    8.7175   -2.6805   -8.9371 O   0  0  0  0  0  0  0  0  0  0  0  0
    7.2589   -4.6416   -8.3748 N   0  0  0  0  0  0  0  0  0  0  0  0
    0.6895    0.2924    0.9056 H   0  0  0  0  0  0  0  0  0  0  0  0
    0.6793   -1.0780   -0.2295 H   0  0  0  0  0  0  0  0  0  0  0  0
    0.6790    0.5704   -0.8521 H   0  0  0  0  0  0  0  0  0  0  0  0
    2.9514   -0.7294    0.7337 H   0  0  0  0  0  0  0  0  0  0  0  0
    2.9511    0.9462    0.1021 H   0  0  0  0  0  0  0  0  0  0  0  0
    4.4564   -0.4306   -3.5480 H   0  0  0  0  0  0  0  0  0  0  0  0
    4.4599   -2.0942   -2.9167 H   0  0  0  0  0  0  0  0  0  0  0  0
    6.7943   -1.7408   -2.0226 H   0  0  0  0  0  0  0  0  0  0  0  0
    6.7845   -0.0907   -2.6193 H   0  0  0  0  0  0  0  0  0  0  0  0
    7.3709    0.3789   -4.9201 H   0  0  0  0  0  0  0  0  0  0  0  0
    7.5768   -0.3933   -7.2590 H   0  0  0  0  0  0  0  0  0  0  0  0
    7.1585   -4.4797   -5.8972 H   0  0  0  0  0  0  0  0  0  0  0  0
    6.5874   -3.6722   -3.6624 H   0  0  0  0  0  0  0  0  0  0  0  0
    6.3342   -4.9765   -8.1165 H   0  0  0  0  0  0  0  0  0  0  0  0
    8.0849   -5.1116   -8.0166 H   0  0  0  0  0  0  0  0  0  0  0  0
  1  2  1  0  0  0  0
  1 18  1  0  0  0  0
  1 19  1  0  0  0  0
  1 20  1  0  0  0  0
  2  3  1  0  0  0  0
  2 21  1  0  0  0  0
  2 22  1  0  0  0  0
  3  4  1  0  0  0  0
  4  5  2  0  0  0  0
  4  6  1  0  0  0  0
  6  7  1  0  0  0  0
  6 23  1  0  0  0  0
  6 24  1  0  0  0  0
  7  8  1  0  0  0  0
  7 25  1  0  0  0  0
  7 26  1  0  0  0  0
  8  9  2  0  0  0  0
  8 13  1  0  0  0  0
  9 10  1  0  0  0  0
  9 27  1  0  0  0  0
 10 11  2  0  0  0  0
 10 28  1  0  0  0  0
 11 12  1  0  0  0  0
 11 14  1  0  0  0  0
 12 13  2  0  0  0  0
 12 29  1  0  0  0  0
 13 30  1  0  0  0  0
 14 15  2  0  0  0  0
 14 16  2  0  0  0  0
 14 17  1  0  0  0  0
 17 31  1  0  0  0  0
 17 32  1  0  0  0  0
M  END
$$$$
