M2F
 OpenBabel04121316153D

 37 38  0  0  1  0  0  0  0  0999 V2000
    0.7696    0.0912    0.2394 O   0  0  0  0  0  0  0  0  0  0  0  0
    2.1759    0.0541    0.3074 C   0  0  0  0  0  0  0  0  0  0  0  0
    2.9312    1.2327    0.9026 C   0  0  1  0  0  0  0  0  0  0  0  0
    2.6559    1.3001    1.9603 H   0  0  0  0  0  0  0  0  0  0  0  0
    4.3603    0.9526    0.8573 O   0  0  0  0  0  0  0  0  0  0  0  0
    4.9287    0.9370   -0.4758 C   0  0  1  0  0  0  0  0  0  0  0  0
    5.9984    0.7563   -0.3259 H   0  0  0  0  0  0  0  0  0  0  0  0
    4.3741   -0.1816   -1.1984 O   0  0  0  0  0  0  0  0  0  0  0  0
    4.8005   -0.5486   -2.4301 C   0  0  0  0  0  0  0  0  0  0  0  0
    6.0429   -0.1046   -2.9015 C   0  0  0  0  0  0  0  0  0  0  0  0
    6.4610   -0.3975   -4.1900 C   0  0  0  0  0  0  0  0  0  0  0  0
    5.7023   -1.2691   -4.9663 C   0  0  0  0  0  0  0  0  0  0  0  0
    4.5249   -1.8316   -4.4764 C   0  0  0  0  0  0  0  0  0  0  0  0
    4.0219   -1.4144   -3.2417 C   0  0  0  0  0  0  0  0  0  0  0  0
    2.6479   -1.8878   -2.9332 N   0  3  0  0  0  0  0  0  0  0  0  0
    2.1072   -2.6497   -3.7542 O   0  0  0  0  0  0  0  0  0  0  0  0
    2.0655   -1.4930   -1.9341 O   0  5  0  0  0  0  0  0  0  0  0  0
    6.1274   -1.5731   -6.3283 N   0  3  0  0  0  0  0  0  0  0  0  0
    7.1449   -1.0094   -6.7477 O   0  0  0  0  0  0  0  0  0  0  0  0
    5.4329   -2.3655   -6.9781 O   0  5  0  0  0  0  0  0  0  0  0  0
    4.7137    2.3149   -1.1378 C   0  0  2  0  0  0  0  0  0  0  0  0
    5.2513    3.0620   -0.5406 H   0  0  0  0  0  0  0  0  0  0  0  0
    3.2377    2.7095   -1.1931 C   0  0  2  0  0  0  0  0  0  0  0  0
    3.1986    3.7563   -1.5141 H   0  0  0  0  0  0  0  0  0  0  0  0
    2.6383    2.5918    0.2232 C   0  0  2  0  0  0  0  0  0  0  0  0
    1.5617    2.7869    0.2093 H   0  0  0  0  0  0  0  0  0  0  0  0
    3.2676    3.5999    1.0413 O   0  0  0  0  0  0  0  0  0  0  0  0
    2.4771    2.0267   -2.1925 O   0  0  0  0  0  0  0  0  0  0  0  0
    5.2466    2.3760   -2.3862 F   0  0  0  0  0  0  0  0  0  0  0  0
    0.5652   -0.5489   -0.4816 H   0  0  0  0  0  0  0  0  0  0  0  0
    2.4353    0.0999   -0.7192 H   0  0  0  0  0  0  0  0  0  0  0  0
    2.5312   -0.9140    0.6817 H   0  0  0  0  0  0  0  0  0  0  0  0
    6.7015    0.5201   -2.3032 H   0  0  0  0  0  0  0  0  0  0  0  0
    7.3762    0.0594   -4.5599 H   0  0  0  0  0  0  0  0  0  0  0  0
    3.9851   -2.5730   -5.0644 H   0  0  0  0  0  0  0  0  0  0  0  0
    3.0737    4.4713    0.6554 H   0  0  0  0  0  0  0  0  0  0  0  0
    2.6570    1.0753   -2.1741 H   0  0  0  0  0  0  0  0  0  0  0  0
  1  2  1  0  0  0  0
  1 30  1  0  0  0  0
  2  3  1  0  0  0  0
  2 31  1  0  0  0  0
  2 32  1  0  0  0  0
  3  4  1  1  0  0  0
  3  5  1  0  0  0  0
  3 25  1  0  0  0  0
  5  6  1  0  0  0  0
  6 21  1  0  0  0  0
  6  8  1  0  0  0  0
  6  7  1  1  0  0  0
  8  9  1  0  0  0  0
  9 10  2  0  0  0  0
  9 14  1  0  0  0  0
 10 11  1  0  0  0  0
 10 33  1  0  0  0  0
 11 12  2  0  0  0  0
 11 34  1  0  0  0  0
 12 13  1  0  0  0  0
 12 18  1  0  0  0  0
 13 14  2  0  0  0  0
 13 35  1  0  0  0  0
 14 15  1  0  0  0  0
 15 16  2  0  0  0  0
 15 17  1  0  0  0  0
 18 19  2  0  0  0  0
 18 20  1  0  0  0  0
 21 23  1  0  0  0  0
 21 29  1  0  0  0  0
 21 22  1  1  0  0  0
 23 25  1  0  0  0  0
 23 28  1  0  0  0  0
 23 24  1  6  0  0  0
 25 26  1  6  0  0  0
 25 27  1  0  0  0  0
 27 36  1  0  0  0  0
 28 37  1  0  0  0  0
M  CHG  4  15   1  17  -1  18   1  20  -1
M  END
$$$$
