M2P
 OpenBabel04121316153D

 36 35  0  0  1  0  0  0  0  0999 V2000
    0.8969   -0.1204   -0.2267 O   0  0  0  0  0  0  0  0  0  0  0  0
    2.3319    0.0444   -0.1196 C   0  0  1  0  0  0  0  0  0  0  0  0
    2.6265   -0.2872    0.8869 H   0  0  0  0  0  0  0  0  0  0  0  0
    2.9191   -0.8879   -1.1520 C   0  0  1  0  0  0  0  0  0  0  0  0
    2.5874   -0.5681   -2.1491 H   0  0  0  0  0  0  0  0  0  0  0  0
    4.4647   -0.9985   -1.0768 C   0  0  1  0  0  0  0  0  0  0  0  0
    4.7430   -1.4929   -0.1401 H   0  0  0  0  0  0  0  0  0  0  0  0
    4.9448   -1.7972   -2.2353 C   0  0  0  0  0  0  0  0  0  0  0  0
    4.3862   -3.0639   -2.0983 O   0  0  0  0  0  0  0  0  0  0  0  0
    4.9629   -4.0672   -3.3843 P   0  0  0  0  0  0  0  0  0  0  0  0
    4.1154   -5.2392   -2.9082 O   0  0  0  0  0  0  0  0  0  0  0  0
    4.0776   -3.1842   -4.4270 O   0  0  0  0  0  0  0  0  0  0  0  0
    5.5395   -5.0705   -4.6703 O   0  0  0  0  0  0  0  0  0  0  0  0
    5.2363    0.1794   -1.2303 O   0  0  0  0  0  0  0  0  0  0  0  0
    2.3026   -2.1735   -0.9063 O   0  0  0  0  0  0  0  0  0  0  0  0
    2.7095    1.5124   -0.3816 C   0  0  1  0  0  0  0  0  0  0  0  0
    2.2225    1.8712   -1.2923 H   0  0  0  0  0  0  0  0  0  0  0  0
    2.2837    2.3182    0.7830 C   0  0  0  0  0  0  0  0  0  0  0  0
    0.9062    2.3257    0.9074 O   0  0  0  0  0  0  0  0  0  0  0  0
    0.3295    3.3290    2.1934 P   0  0  0  0  0  0  0  0  0  0  0  0
   -0.3636    2.1317    2.8426 O   0  0  0  0  0  0  0  0  0  0  0  0
    1.8098    3.3962    2.9359 O   0  0  0  0  0  0  0  0  0  0  0  0
   -0.2472    4.3323    3.4794 O   0  0  0  0  0  0  0  0  0  0  0  0
    4.0859    1.8632   -0.4092 O   0  0  0  0  0  0  0  0  0  0  0  0
    0.6488   -0.8556    0.3660 H   0  0  0  0  0  0  0  0  0  0  0  0
    6.0380   -1.8563   -2.2630 H   0  0  0  0  0  0  0  0  0  0  0  0
    4.6268   -1.3166   -3.1707 H   0  0  0  0  0  0  0  0  0  0  0  0
    3.1543   -3.1774   -4.1141 H   0  0  0  0  0  0  0  0  0  0  0  0
    5.7719   -5.9275   -4.2666 H   0  0  0  0  0  0  0  0  0  0  0  0
    5.3034    0.5712   -0.3329 H   0  0  0  0  0  0  0  0  0  0  0  0
    1.3573   -2.0868   -1.1292 H   0  0  0  0  0  0  0  0  0  0  0  0
    2.6475    3.3422    0.6472 H   0  0  0  0  0  0  0  0  0  0  0  0
    2.7420    1.8812    1.6820 H   0  0  0  0  0  0  0  0  0  0  0  0
    2.5255    3.8489    2.5355 H   0  0  0  0  0  0  0  0  0  0  0  0
   -1.2131    4.2116    3.5240 H   0  0  0  0  0  0  0  0  0  0  0  0
    4.3843    1.7330   -1.3346 H   0  0  0  0  0  0  0  0  0  0  0  0
  1  2  1  0  0  0  0
  1 25  1  0  0  0  0
  2  3  1  1  0  0  0
  2  4  1  0  0  0  0
  2 16  1  0  0  0  0
  4  5  1  6  0  0  0
  4  6  1  0  0  0  0
  4 15  1  0  0  0  0
  6  7  1  1  0  0  0
  6  8  1  0  0  0  0
  6 14  1  0  0  0  0
  8  9  1  0  0  0  0
  8 26  1  0  0  0  0
  8 27  1  0  0  0  0
  9 10  1  0  0  0  0
 10 11  2  0  0  0  0
 10 12  1  0  0  0  0
 10 13  1  0  0  0  0
 12 28  1  0  0  0  0
 13 29  1  0  0  0  0
 14 30  1  0  0  0  0
 15 31  1  0  0  0  0
 16 17  1  6  0  0  0
 16 18  1  0  0  0  0
 16 24  1  0  0  0  0
 18 19  1  0  0  0  0
 18 32  1  0  0  0  0
 18 33  1  0  0  0  0
 19 20  1  0  0  0  0
 20 21  2  0  0  0  0
 20 22  1  0  0  0  0
 20 23  1  0  0  0  0
 22 34  1  0  0  0  0
 23 35  1  0  0  0  0
 24 36  1  0  0  0  0
M  END
$$$$
