M33
 OpenBabel04121316153D

 44 46  0  0  1  0  0  0  0  0999 V2000
    2.9145    0.1870   -1.2576 O   0  0  0  0  0  0  0  0  0  0  0  0
    2.4349   -0.0773    0.0664 C   0  0  2  0  0  0  0  0  0  0  0  0
    1.3442   -0.1089   -0.0039 H   0  0  0  0  0  0  0  0  0  0  0  0
    2.9264    0.9855    1.0352 C   0  0  1  0  0  0  0  0  0  0  0  0
    2.9897    1.9626    0.5410 H   0  0  0  0  0  0  0  0  0  0  0  0
    2.1815    1.0770    2.3794 C   0  0  0  0  0  0  0  0  0  0  0  0
    0.7803    0.9851    2.3383 O   0  0  0  0  0  0  0  0  0  0  0  0
   -0.0604    2.1423    3.0575 P   0  0  1  0  0  0  0  0  0  0  0  0
    0.7733    3.2148    3.7079 O   0  0  0  0  0  0  0  0  0  0  0  0
   -0.9725    2.6289    1.8427 O   0  0  0  0  0  0  0  0  0  0  0  0
   -0.3993    3.7276    0.8073 P   0  0  1  0  0  0  0  0  0  0  0  0
   -1.0740    5.0423    0.9030 O   0  0  0  0  0  0  0  0  0  0  0  0
    1.1658    3.7591    1.2162 O   0  0  0  0  0  0  0  0  0  0  0  0
   -0.1754    3.1380   -0.8616 C   0  0  0  0  0  0  0  0  0  0  0  0
   -0.9759    1.4090    4.1433 O   0  0  0  0  0  0  0  0  0  0  0  0
    4.2773    0.5622    1.3492 O   0  0  0  0  0  0  0  0  0  0  0  0
    4.2539   -0.8794    1.4972 C   0  0  2  0  0  0  0  0  0  0  0  0
    5.1950   -1.2829    1.1097 H   0  0  0  0  0  0  0  0  0  0  0  0
    3.0256   -1.3521    0.6724 C   0  0  2  0  0  0  0  0  0  0  0  0
    2.2374   -1.7871    1.2893 H   0  0  0  0  0  0  0  0  0  0  0  0
    3.3788   -2.3191   -0.3114 O   0  0  0  0  0  0  0  0  0  0  0  0
    4.2306   -1.2374    2.9208 N   0  0  0  0  0  0  0  0  0  0  0  0
    3.4198   -2.1801    3.5114 C   0  0  0  0  0  0  0  0  0  0  0  0
    3.5385   -2.2030    4.8197 N   0  0  0  0  0  0  0  0  0  0  0  0
    4.5026   -1.2656    5.0983 C   0  0  0  0  0  0  0  0  0  0  0  0
    4.9540   -0.6503    3.9372 C   0  0  0  0  0  0  0  0  0  0  0  0
    5.8810    0.3162    3.8612 N   0  0  0  0  0  0  0  0  0  0  0  0
    6.3593    0.6336    5.0852 C   0  0  0  0  0  0  0  0  0  0  0  0
    6.0191    0.1093    6.2848 N   0  0  0  0  0  0  0  0  0  0  0  0
    5.0746   -0.8534    6.3126 C   0  0  0  0  0  0  0  0  0  0  0  0
    4.7001   -1.3927    7.5237 N   0  0  0  0  0  0  0  0  0  0  0  0
    3.8707    0.0071   -1.2871 H   0  0  0  0  0  0  0  0  0  0  0  0
    2.5509    1.9665    2.8961 H   0  0  0  0  0  0  0  0  0  0  0  0
    2.4437    0.2625    3.0359 H   0  0  0  0  0  0  0  0  0  0  0  0
    1.3461    4.0299    2.1437 H   0  0  0  0  0  0  0  0  0  0  0  0
   -1.0714    3.1263   -1.4864 H   0  0  0  0  0  0  0  0  0  0  0  0
    0.3684    2.1946   -0.9718 H   0  0  0  0  0  0  0  0  0  0  0  0
    0.4824    3.8995   -1.3052 H   0  0  0  0  0  0  0  0  0  0  0  0
   -0.7277    1.6843    5.0540 H   0  0  0  0  0  0  0  0  0  0  0  0
    3.6919   -3.1225    0.1407 H   0  0  0  0  0  0  0  0  0  0  0  0
    2.7299   -2.8119    2.9706 H   0  0  0  0  0  0  0  0  0  0  0  0
    7.1177    1.4109    5.1138 H   0  0  0  0  0  0  0  0  0  0  0  0
    5.1951   -1.1068    8.3529 H   0  0  0  0  0  0  0  0  0  0  0  0
    4.0298   -2.1483    7.5313 H   0  0  0  0  0  0  0  0  0  0  0  0
  1 32  1  0  0  0  0
  2  4  1  0  0  0  0
  2 19  1  0  0  0  0
  2  3  1  1  0  0  0
  2  1  1  0  0  0  0
  4  5  1  6  0  0  0
  4  6  1  0  0  0  0
  4 16  1  0  0  0  0
  6  7  1  0  0  0  0
  6 33  1  0  0  0  0
  6 34  1  0  0  0  0
  8  7  1  6  0  0  0
  8  9  2  0  0  0  0
  8 10  1  0  0  0  0
  8 15  1  0  0  0  0
 11 10  1  1  0  0  0
 11 12  2  0  0  0  0
 11 13  1  0  0  0  0
 11 14  1  0  0  0  0
 13 35  1  0  0  0  0
 14 36  1  0  0  0  0
 14 37  1  0  0  0  0
 14 38  1  0  0  0  0
 15 39  1  0  0  0  0
 16 17  1  0  0  0  0
 17 19  1  0  0  0  0
 17 22  1  0  0  0  0
 17 18  1  6  0  0  0
 19 20  1  1  0  0  0
 19 21  1  0  0  0  0
 21 40  1  0  0  0  0
 22 23  1  0  0  0  0
 22 26  1  0  0  0  0
 23 24  2  0  0  0  0
 23 41  1  0  0  0  0
 24 25  1  0  0  0  0
 25 26  2  0  0  0  0
 25 30  1  0  0  0  0
 26 27  1  0  0  0  0
 27 28  2  0  0  0  0
 28 29  1  0  0  0  0
 28 42  1  0  0  0  0
 29 30  2  0  0  0  0
 30 31  1  0  0  0  0
 31 43  1  0  0  0  0
 31 44  1  0  0  0  0
M  END
$$$$
