M35
 OpenBabel04121316153D

 57 60  0  0  0  0  0  0  0  0999 V2000
    0.9371    0.0367   -0.0274 N   0  0  0  0  0  0  0  0  0  0  0  0
    2.4045    0.0632   -0.0465 C   0  0  0  0  0  0  0  0  0  0  0  0
    2.9068    0.7659   -1.2856 C   0  0  0  0  0  0  0  0  0  0  0  0
    2.7654    2.1239   -1.4926 C   0  0  0  0  0  0  0  0  0  0  0  0
    3.0649    2.6665   -2.7478 C   0  0  0  0  0  0  0  0  0  0  0  0
    3.2860    1.8326   -3.8541 C   0  0  0  0  0  0  0  0  0  0  0  0
    3.4422    0.4687   -3.6499 C   0  0  0  0  0  0  0  0  0  0  0  0
    3.4943    0.0505   -2.3219 C   0  0  0  0  0  0  0  0  0  0  0  0
    3.5027   -0.4551   -4.7531 N   0  0  0  0  0  0  0  0  0  0  0  0
    3.6424    0.0309   -6.0257 N   0  0  0  0  0  0  0  0  0  0  0  0
    3.6268   -1.0410   -6.8350 C   0  0  0  0  0  0  0  0  0  0  0  0
    3.4550   -2.2249   -6.1046 C   0  0  0  0  0  0  0  0  0  0  0  0
    3.3429   -1.8489   -4.7883 C   0  0  0  0  0  0  0  0  0  0  0  0
    3.0530   -2.6971   -3.6692 C   0  0  0  0  0  0  0  0  0  0  0  0
    2.8638   -2.2715   -2.5636 O   0  0  0  0  0  0  0  0  0  0  0  0
    3.0633   -4.0652   -3.8899 N   0  0  0  0  0  0  0  0  0  0  0  0
    3.0176   -4.9274   -2.7849 C   0  0  0  0  0  0  0  0  0  0  0  0
    3.6891   -6.1287   -2.8194 C   0  0  0  0  0  0  0  0  0  0  0  0
    3.4841   -7.0452   -1.7825 C   0  0  0  0  0  0  0  0  0  0  0  0
    2.8340   -6.6708   -0.6055 C   0  0  0  0  0  0  0  0  0  0  0  0
    2.7050   -5.3351   -0.4740 C   0  0  0  0  0  0  0  0  0  0  0  0
    2.4435   -4.5778   -1.5861 C   0  0  0  0  0  0  0  0  0  0  0  0
    1.5671   -3.5652   -1.4776 F   0  0  0  0  0  0  0  0  0  0  0  0
    2.4179   -7.5155    0.5189 C   0  0  0  0  0  0  0  0  0  0  0  0
    2.9856   -8.8135    0.5151 C   0  0  0  0  0  0  0  0  0  0  0  0
    2.6361   -9.7966    1.4203 C   0  0  0  0  0  0  0  0  0  0  0  0
    1.8245   -9.4587    2.4839 C   0  0  0  0  0  0  0  0  0  0  0  0
    1.3319   -8.1494    2.6092 C   0  0  0  0  0  0  0  0  0  0  0  0
    1.5260   -7.1778    1.5910 C   0  0  0  0  0  0  0  0  0  0  0  0
    0.5037   -5.6329    1.8994 S   0  0  0  0  0  0  0  0  0  0  0  0
   -0.8686   -6.1051    1.9750 O   0  0  0  0  0  0  0  0  0  0  0  0
    1.1289   -5.0031    3.0505 O   0  0  0  0  0  0  0  0  0  0  0  0
    0.4556   -4.3865    0.6476 C   0  0  0  0  0  0  0  0  0  0  0  0
    3.7623   -0.9802   -8.3271 C   0  0  0  0  0  0  0  0  0  0  0  0
    2.7749   -0.2622   -8.9166 F   0  0  0  0  0  0  0  0  0  0  0  0
    4.9507   -0.4575   -8.7181 F   0  0  0  0  0  0  0  0  0  0  0  0
    3.6999   -2.2330   -8.8671 F   0  0  0  0  0  0  0  0  0  0  0  0
    0.6108   -0.4511    0.8038 H   0  0  0  0  0  0  0  0  0  0  0  0
    0.6181   -0.5176   -0.8245 H   0  0  0  0  0  0  0  0  0  0  0  0
    2.7683   -0.9719    0.0064 H   0  0  0  0  0  0  0  0  0  0  0  0
    2.7717    0.5808    0.8427 H   0  0  0  0  0  0  0  0  0  0  0  0
    2.4443    2.7520   -0.6683 H   0  0  0  0  0  0  0  0  0  0  0  0
    3.0751    3.7429   -2.8721 H   0  0  0  0  0  0  0  0  0  0  0  0
    3.3414    2.2618   -4.8504 H   0  0  0  0  0  0  0  0  0  0  0  0
    4.0242   -0.8470   -2.0377 H   0  0  0  0  0  0  0  0  0  0  0  0
    3.3763   -3.2251   -6.5102 H   0  0  0  0  0  0  0  0  0  0  0  0
    3.3326   -4.4423   -4.7796 H   0  0  0  0  0  0  0  0  0  0  0  0
    4.3964   -6.3464   -3.6062 H   0  0  0  0  0  0  0  0  0  0  0  0
    3.9195   -8.0281   -1.9009 H   0  0  0  0  0  0  0  0  0  0  0  0
    2.6730   -4.9662    0.5321 H   0  0  0  0  0  0  0  0  0  0  0  0
    3.7382   -9.0915   -0.2170 H   0  0  0  0  0  0  0  0  0  0  0  0
    3.0316  -10.8003    1.2886 H   0  0  0  0  0  0  0  0  0  0  0  0
    1.5864  -10.2231    3.2187 H   0  0  0  0  0  0  0  0  0  0  0  0
    0.7864   -7.8985    3.5199 H   0  0  0  0  0  0  0  0  0  0  0  0
    0.2336   -4.8816   -0.3004 H   0  0  0  0  0  0  0  0  0  0  0  0
    1.3674   -3.7817    0.6943 H   0  0  0  0  0  0  0  0  0  0  0  0
   -0.2821   -3.5955    0.7744 H   0  0  0  0  0  0  0  0  0  0  0  0
  1  2  1  0  0  0  0
  1 38  1  0  0  0  0
  1 39  1  0  0  0  0
  2  3  1  0  0  0  0
  2 40  1  0  0  0  0
  2 41  1  0  0  0  0
  3  4  2  0  0  0  0
  3  8  1  0  0  0  0
  4  5  1  0  0  0  0
  4 42  1  0  0  0  0
  5  6  2  0  0  0  0
  5 43  1  0  0  0  0
  6  7  1  0  0  0  0
  6 44  1  0  0  0  0
  7  8  2  0  0  0  0
  7  9  1  0  0  0  0
  8 45  1  0  0  0  0
  9 10  1  0  0  0  0
  9 13  1  0  0  0  0
 10 11  2  0  0  0  0
 11 12  1  0  0  0  0
 11 34  1  0  0  0  0
 12 13  2  0  0  0  0
 12 46  1  0  0  0  0
 13 14  1  0  0  0  0
 14 15  2  0  0  0  0
 14 16  1  0  0  0  0
 16 17  1  0  0  0  0
 16 47  1  0  0  0  0
 17 18  2  0  0  0  0
 17 22  1  0  0  0  0
 18 19  1  0  0  0  0
 18 48  1  0  0  0  0
 19 20  2  0  0  0  0
 19 49  1  0  0  0  0
 20 21  1  0  0  0  0
 20 24  1  0  0  0  0
 21 22  2  0  0  0  0
 21 50  1  0  0  0  0
 22 23  1  0  0  0  0
 24 25  2  0  0  0  0
 24 29  1  0  0  0  0
 25 26  1  0  0  0  0
 25 51  1  0  0  0  0
 26 27  2  0  0  0  0
 26 52  1  0  0  0  0
 27 28  1  0  0  0  0
 27 53  1  0  0  0  0
 28 29  2  0  0  0  0
 28 54  1  0  0  0  0
 29 30  1  0  0  0  0
 30 31  2  0  0  0  0
 30 32  2  0  0  0  0
 30 33  1  0  0  0  0
 33 55  1  0  0  0  0
 33 56  1  0  0  0  0
 33 57  1  0  0  0  0
 34 35  1  0  0  0  0
 34 36  1  0  0  0  0
 34 37  1  0  0  0  0
M  END
$$$$
