M6D
 OpenBabel04121316153D

 29 29  0  0  1  0  0  0  0  0999 V2000
    2.8347    0.2330    1.2221 O   0  0  0  0  0  0  0  0  0  0  0  0
    2.3786   -0.0153   -0.0993 C   0  0  2  0  0  0  0  0  0  0  0  0
    1.2831   -0.0153   -0.0697 H   0  0  0  0  0  0  0  0  0  0  0  0
    2.8284   -1.3142   -0.4917 O   0  0  0  0  0  0  0  0  0  0  0  0
    2.4660   -1.6987   -1.8287 C   0  0  2  0  0  0  0  0  0  0  0  0
    1.3709   -1.7779   -1.8802 H   0  0  0  0  0  0  0  0  0  0  0  0
    3.0646   -3.1041   -2.1033 C   0  0  0  0  0  0  0  0  0  0  0  0
    2.9528   -3.4945   -3.4622 O   0  0  0  0  0  0  0  0  0  0  0  0
    2.6140   -5.0074   -3.8540 P   0  0  0  0  0  0  0  0  0  0  0  0
    1.5971   -5.6829   -2.9958 O   0  0  0  0  0  0  0  0  0  0  0  0
    2.2003   -4.8371   -5.3829 O   0  0  0  0  0  0  0  0  0  0  0  0
    4.0231   -5.7468   -3.9263 O   0  0  0  0  0  0  0  0  0  0  0  0
    2.9350   -0.6530   -2.8614 C   0  0  2  0  0  0  0  0  0  0  0  0
    4.0301   -0.6521   -2.9225 H   0  0  0  0  0  0  0  0  0  0  0  0
    2.4449    0.7441   -2.4600 C   0  0  1  0  0  0  0  0  0  0  0  0
    1.3506    0.7843   -2.5318 H   0  0  0  0  0  0  0  0  0  0  0  0
    2.8800    1.0932   -1.0430 C   0  0  2  0  0  0  0  0  0  0  0  0
    2.4984    2.0754   -0.7415 H   0  0  0  0  0  0  0  0  0  0  0  0
    4.3154    1.1924   -0.9715 O   0  0  0  0  0  0  0  0  0  0  0  0
    2.9454    1.7161   -3.3869 O   0  0  0  0  0  0  0  0  0  0  0  0
    2.4338   -0.9033   -4.1852 O   0  0  0  0  0  0  0  0  0  0  0  0
    3.7868    0.4210    1.1166 H   0  0  0  0  0  0  0  0  0  0  0  0
    2.5691   -3.8337   -1.4538 H   0  0  0  0  0  0  0  0  0  0  0  0
    4.1252   -3.1061   -1.8330 H   0  0  0  0  0  0  0  0  0  0  0  0
    2.2255   -3.8906   -5.6225 H   0  0  0  0  0  0  0  0  0  0  0  0
    3.9219   -6.6921   -3.6978 H   0  0  0  0  0  0  0  0  0  0  0  0
    4.5683    1.7987   -1.6972 H   0  0  0  0  0  0  0  0  0  0  0  0
    2.7675    1.3425   -4.2751 H   0  0  0  0  0  0  0  0  0  0  0  0
    1.4916   -1.1340   -4.1114 H   0  0  0  0  0  0  0  0  0  0  0  0
  1 22  1  0  0  0  0
  2  4  1  0  0  0  0
  2 17  1  0  0  0  0
  2  3  1  6  0  0  0
  2  1  1  0  0  0  0
  4  5  1  0  0  0  0
  5  6  1  6  0  0  0
  5  7  1  0  0  0  0
  5 13  1  0  0  0  0
  7  8  1  0  0  0  0
  7 23  1  0  0  0  0
  7 24  1  0  0  0  0
  8  9  1  0  0  0  0
  9 10  2  0  0  0  0
  9 11  1  0  0  0  0
  9 12  1  0  0  0  0
 11 25  1  0  0  0  0
 12 26  1  0  0  0  0
 13 15  1  0  0  0  0
 13 21  1  0  0  0  0
 13 14  1  6  0  0  0
 15 16  1  6  0  0  0
 15 17  1  0  0  0  0
 15 20  1  0  0  0  0
 17 18  1  1  0  0  0
 17 19  1  0  0  0  0
 19 27  1  0  0  0  0
 20 28  1  0  0  0  0
 21 29  1  0  0  0  0
M  END
$$$$
