M77
 OpenBabel04121316153D

 37 39  0  0  0  0  0  0  0  0999 V2000
    1.1087    0.2205    0.0674 O   0  0  0  0  0  0  0  0  0  0  0  0
    2.5259   -0.0447    0.0335 S   0  0  0  0  0  0  0  0  0  0  0  0
    3.0097   -1.4131   -0.0367 O   0  0  0  0  0  0  0  0  0  0  0  0
    3.1717    0.9381   -1.3394 C   0  0  0  0  0  0  0  0  0  0  0  0
    2.7151    2.2725   -1.4155 C   0  0  0  0  0  0  0  0  0  0  0  0
    3.0973    3.1444   -2.4211 C   0  0  0  0  0  0  0  0  0  0  0  0
    3.8255    2.6485   -3.4805 C   0  0  0  0  0  0  0  0  0  0  0  0
    4.1778    1.2901   -3.5110 C   0  0  0  0  0  0  0  0  0  0  0  0
    3.8894    0.4126   -2.4299 C   0  0  0  0  0  0  0  0  0  0  0  0
    4.2444   -0.9328   -2.5934 C   0  0  0  0  0  0  0  0  0  0  0  0
    4.5847   -1.3797   -3.8531 C   0  0  0  0  0  0  0  0  0  0  0  0
    4.8939   -0.5671   -4.8768 N   0  0  0  0  0  0  0  0  0  0  0  0
    4.7580    0.7544   -4.6532 C   0  0  0  0  0  0  0  0  0  0  0  0
    3.2388    0.6516    1.4382 N   0  0  0  0  0  0  0  0  0  0  0  0
    4.5017    0.0126    1.8969 C   0  0  0  0  0  0  0  0  0  0  0  0
    4.9428    0.5239    3.2853 C   0  0  0  0  0  0  0  0  0  0  0  0
    5.5408    1.8675    3.2280 N   0  0  0  0  0  0  0  0  0  0  0  0
    4.5710    2.9366    3.4498 C   0  0  0  0  0  0  0  0  0  0  0  0
    3.1870    2.7056    2.8691 C   0  0  0  0  0  0  0  0  0  0  0  0
    3.2410    2.1292    1.4808 C   0  0  0  0  0  0  0  0  0  0  0  0
    1.9927    2.6661   -0.7132 H   0  0  0  0  0  0  0  0  0  0  0  0
    2.7573    4.1763   -2.3980 H   0  0  0  0  0  0  0  0  0  0  0  0
    4.0220    3.3043   -4.3262 H   0  0  0  0  0  0  0  0  0  0  0  0
    4.1841   -1.6718   -1.8087 H   0  0  0  0  0  0  0  0  0  0  0  0
    4.5693   -2.4431   -4.0700 H   0  0  0  0  0  0  0  0  0  0  0  0
    5.0904    1.3891   -5.4697 H   0  0  0  0  0  0  0  0  0  0  0  0
    5.2881    0.1797    1.1528 H   0  0  0  0  0  0  0  0  0  0  0  0
    4.3470   -1.0686    1.9935 H   0  0  0  0  0  0  0  0  0  0  0  0
    5.7108   -0.1546    3.6693 H   0  0  0  0  0  0  0  0  0  0  0  0
    4.1167    0.4799    4.0072 H   0  0  0  0  0  0  0  0  0  0  0  0
    5.9830    1.9933    2.3164 H   0  0  0  0  0  0  0  0  0  0  0  0
    4.9847    3.8627    3.0283 H   0  0  0  0  0  0  0  0  0  0  0  0
    4.4641    3.1140    4.5240 H   0  0  0  0  0  0  0  0  0  0  0  0
    2.6802    3.6782    2.8082 H   0  0  0  0  0  0  0  0  0  0  0  0
    2.5721    2.0711    3.5146 H   0  0  0  0  0  0  0  0  0  0  0  0
    4.0993    2.5111    0.9118 H   0  0  0  0  0  0  0  0  0  0  0  0
    2.3101    2.4845    1.0577 H   0  0  0  0  0  0  0  0  0  0  0  0
  1  2  2  0  0  0  0
  2  3  2  0  0  0  0
  2  4  1  0  0  0  0
  2 14  1  0  0  0  0
  4  5  2  0  0  0  0
  4  9  1  0  0  0  0
  5  6  1  0  0  0  0
  5 21  1  0  0  0  0
  6  7  2  0  0  0  0
  6 22  1  0  0  0  0
  7  8  1  0  0  0  0
  7 23  1  0  0  0  0
  8  9  2  0  0  0  0
  8 13  1  0  0  0  0
  9 10  1  0  0  0  0
 10 11  2  0  0  0  0
 10 24  1  0  0  0  0
 11 12  1  0  0  0  0
 11 25  1  0  0  0  0
 12 13  2  0  0  0  0
 13 26  1  0  0  0  0
 14 15  1  0  0  0  0
 14 20  1  0  0  0  0
 15 16  1  0  0  0  0
 15 27  1  0  0  0  0
 15 28  1  0  0  0  0
 16 17  1  0  0  0  0
 16 29  1  0  0  0  0
 16 30  1  0  0  0  0
 17 18  1  0  0  0  0
 17 31  1  0  0  0  0
 18 19  1  0  0  0  0
 18 32  1  0  0  0  0
 18 33  1  0  0  0  0
 19 20  1  0  0  0  0
 19 34  1  0  0  0  0
 19 35  1  0  0  0  0
 20 36  1  0  0  0  0
 20 37  1  0  0  0  0
M  END
$$$$
