M7G
 OpenBabel04121316153D

 48 50  0  0  1  0  0  0  0  0999 V2000
    2.9179    0.1560   -1.4912 O   0  0  0  0  0  0  0  0  0  0  0  0
    2.4144   -0.0914   -0.1819 C   0  0  2  0  0  0  0  0  0  0  0  0
    1.3230   -0.0880   -0.2377 H   0  0  0  0  0  0  0  0  0  0  0  0
    2.8782    0.9858    0.7430 C   0  0  1  0  0  0  0  0  0  0  0  0
    2.9505    1.9467    0.2285 H   0  0  0  0  0  0  0  0  0  0  0  0
    1.9947    0.9605    1.9864 C   0  0  0  0  0  0  0  0  0  0  0  0
    0.6926    1.5687    1.9072 O   0  0  0  0  0  0  0  0  0  0  0  0
    0.2291    1.9633    3.4103 P   0  0  1  0  0  0  0  0  0  0  0  0
    0.5563    0.8724    4.3769 O   0  0  0  0  0  0  0  0  0  0  0  0
    0.9639    3.3682    3.6433 O   0  0  0  0  0  0  0  0  0  0  0  0
    2.2211    3.5899    2.4758 P   0  0  0  0  0  0  0  0  0  0  0  0
    1.8358    5.0557    2.2953 O   0  0  0  0  0  0  0  0  0  0  0  0
    3.2952    3.5765    3.7054 O   0  0  0  0  0  0  0  0  0  0  0  0
    3.4783    3.8116    1.3083 O   0  0  0  0  0  0  0  0  0  0  0  0
   -1.3334    2.2691    3.4723 O   0  0  0  0  0  0  0  0  0  0  0  0
    4.2087    0.5822    1.1079 O   0  0  0  0  0  0  0  0  0  0  0  0
    4.1785   -0.8388    1.3700 C   0  0  2  0  0  0  0  0  0  0  0  0
    5.1270   -1.2582    1.0163 H   0  0  0  0  0  0  0  0  0  0  0  0
    2.9835   -1.3378    0.5156 C   0  0  2  0  0  0  0  0  0  0  0  0
    2.2062   -1.7606    1.1554 H   0  0  0  0  0  0  0  0  0  0  0  0
    3.3452   -2.3291   -0.4314 O   0  0  0  0  0  0  0  0  0  0  0  0
    4.0775   -1.0527    2.8135 N   0  0  0  0  0  0  0  0  0  0  0  0
    3.3063   -2.1011    3.5081 C   0  0  0  0  0  0  0  0  0  0  0  0
    3.7243   -1.9109    4.9084 N   0  0  0  0  0  0  0  0  0  0  0  0
    4.7127   -0.9176    4.9463 C   0  0  0  0  0  0  0  0  0  0  0  0
    4.9531   -0.4342    3.7116 C   0  0  0  0  0  0  0  0  0  0  0  0
    5.8794    0.5132    3.4029 N   0  0  0  0  0  0  0  0  0  0  0  0
    6.5610    1.0279    4.3664 C   0  0  0  0  0  0  0  0  0  0  0  0
    7.4957    1.9651    4.0827 N   0  0  0  0  0  0  0  0  0  0  0  0
    6.3795    0.6528    5.6703 N   0  0  0  0  0  0  0  0  0  0  0  0
    6.9316    1.0815    6.3918 H   0  0  0  0  0  0  0  0  0  0  0  0
    5.4863   -0.3234    6.0542 C   0  0  0  0  0  0  0  0  0  0  0  0
    5.3475   -0.6531    7.2432 O   0  0  0  0  0  0  0  0  0  0  0  0
    3.1507   -2.6646    6.0051 C   0  0  0  0  0  0  0  0  0  0  0  0
    3.8899    0.1203   -1.4485 H   0  0  0  0  0  0  0  0  0  0  0  0
    2.5968    1.3934    2.7904 H   0  0  0  0  0  0  0  0  0  0  0  0
    1.8127   -0.0306    2.3722 H   0  0  0  0  0  0  0  0  0  0  0  0
    3.1541    2.8353    4.3257 H   0  0  0  0  0  0  0  0  0  0  0  0
    3.1507    4.4771    0.6724 H   0  0  0  0  0  0  0  0  0  0  0  0
   -1.6647    1.8855    4.3156 H   0  0  0  0  0  0  0  0  0  0  0  0
    3.7566   -3.0605    0.0558 H   0  0  0  0  0  0  0  0  0  0  0  0
    3.5668   -3.0990    3.1405 H   0  0  0  0  0  0  0  0  0  0  0  0
    2.2294   -1.9332    3.4052 H   0  0  0  0  0  0  0  0  0  0  0  0
    7.5032    2.3043    3.1243 H   0  0  0  0  0  0  0  0  0  0  0  0
    7.9801    2.5206    4.7679 H   0  0  0  0  0  0  0  0  0  0  0  0
    2.3857   -3.3756    5.6629 H   0  0  0  0  0  0  0  0  0  0  0  0
    2.6661   -2.0100    6.7394 H   0  0  0  0  0  0  0  0  0  0  0  0
    3.9127   -3.2508    6.5320 H   0  0  0  0  0  0  0  0  0  0  0  0
  1 35  1  0  0  0  0
  2  4  1  0  0  0  0
  2 19  1  0  0  0  0
  2  3  1  6  0  0  0
  2  1  1  0  0  0  0
  4  5  1  6  0  0  0
  4  6  1  0  0  0  0
  4 16  1  0  0  0  0
  6  7  1  0  0  0  0
  6 36  1  0  0  0  0
  6 37  1  0  0  0  0
  8  7  1  6  0  0  0
  8  9  2  0  0  0  0
  8 10  1  0  0  0  0
  8 15  1  0  0  0  0
 10 11  1  0  0  0  0
 11 12  2  0  0  0  0
 11 13  1  0  0  0  0
 11 14  1  0  0  0  0
 13 38  1  0  0  0  0
 14 39  1  0  0  0  0
 15 40  1  0  0  0  0
 16 17  1  0  0  0  0
 17 19  1  0  0  0  0
 17 22  1  0  0  0  0
 17 18  1  6  0  0  0
 19 20  1  1  0  0  0
 19 21  1  0  0  0  0
 21 41  1  0  0  0  0
 22 23  1  0  0  0  0
 22 26  1  0  0  0  0
 23 24  1  0  0  0  0
 23 42  1  0  0  0  0
 23 43  1  0  0  0  0
 24 25  1  0  0  0  0
 24 34  1  0  0  0  0
 25 26  2  0  0  0  0
 25 32  1  0  0  0  0
 26 27  1  0  0  0  0
 27 28  2  0  0  0  0
 28 29  1  0  0  0  0
 28 30  1  0  0  0  0
 29 44  1  0  0  0  0
 29 45  1  0  0  0  0
 30 31  1  0  0  0  0
 30 32  1  0  0  0  0
 32 33  2  0  0  0  0
 34 46  1  0  0  0  0
 34 47  1  0  0  0  0
 34 48  1  0  0  0  0
M  END
$$$$
