M8E
 OpenBabel04121316153D

 55 57  0  0  1  0  0  0  0  0999 V2000
    0.9319   -0.0701   -0.0243 N   0  0  0  0  0  0  0  0  0  0  0  0
    2.3775   -0.0311   -0.1991 O   0  0  0  0  0  0  0  0  0  0  0  0
    2.9206    0.8262    0.7952 C   0  0  0  0  0  0  0  0  0  0  0  0
    4.4421    0.7668    0.7033 C   0  0  0  0  0  0  0  0  0  0  0  0
    4.9864    1.6414    1.7954 C   0  0  0  0  0  0  0  0  0  0  0  0
    6.4931    1.7491    1.9462 C   0  0  0  0  0  0  0  0  0  0  0  0
    6.9139    2.6815    3.0230 N   0  0  0  0  0  0  0  0  0  0  0  0
    6.4213    2.3094    4.3774 C   0  0  0  0  0  0  0  0  0  0  0  0
    4.9014    2.4765    4.6172 C   0  0  1  0  0  0  0  0  0  0  0  0
    4.3739    2.5394    3.6827 H   0  0  0  0  0  0  0  0  0  0  0  0
    4.3243    1.3573    5.3097 O   0  0  0  0  0  0  0  0  0  0  0  0
    3.0093    1.7951    5.6843 C   0  0  2  0  0  0  0  0  0  0  0  0
    2.3217    1.7068    4.8406 H   0  0  0  0  0  0  0  0  0  0  0  0
    3.1060    3.3144    5.9352 C   0  0  1  0  0  0  0  0  0  0  0  0
    3.1937    3.6028    6.9726 H   0  0  0  0  0  0  0  0  0  0  0  0
    4.4064    3.7538    5.2529 C   0  0  2  0  0  0  0  0  0  0  0  0
    5.1279    4.1368    5.9752 H   0  0  0  0  0  0  0  0  0  0  0  0
    4.1983    4.7471    4.2484 O   0  0  0  0  0  0  0  0  0  0  0  0
    1.9535    3.9995    5.4290 O   0  0  0  0  0  0  0  0  0  0  0  0
    2.4981    0.9289    6.7260 N   0  0  0  0  0  0  0  0  0  0  0  0
    1.7482   -0.2454    6.6142 C   0  0  0  0  0  0  0  0  0  0  0  0
    1.3677   -0.9085    5.4044 C   0  0  0  0  0  0  0  0  0  0  0  0
    1.7344   -0.6475    4.1558 C   0  0  0  0  0  0  0  0  0  0  0  0
    1.3720   -0.6583    7.8166 N   0  0  0  0  0  0  0  0  0  0  0  0
    1.9007    0.2282    8.7212 C   0  0  0  0  0  0  0  0  0  0  0  0
    2.6193    1.2047    8.0698 C   0  0  0  0  0  0  0  0  0  0  0  0
    3.2635    2.2342    8.6436 N   0  0  0  0  0  0  0  0  0  0  0  0
    3.1112    2.2448    9.9764 C   0  0  0  0  0  0  0  0  0  0  0  0
    2.4444    1.3589   10.7366 N   0  0  0  0  0  0  0  0  0  0  0  0
    1.8309    0.3220   10.1217 C   0  0  0  0  0  0  0  0  0  0  0  0
    1.1449   -0.5798   10.9009 N   0  0  0  0  0  0  0  0  0  0  0  0
    8.3846    2.7322    3.0302 C   0  0  0  0  0  0  0  0  0  0  0  0
    0.6856   -0.7137   -0.7783 H   0  0  0  0  0  0  0  0  0  0  0  0
    0.6614    0.8504   -0.3763 H   0  0  0  0  0  0  0  0  0  0  0  0
    2.5809    0.5075    1.7851 H   0  0  0  0  0  0  0  0  0  0  0  0
    2.5586    1.8515    0.6406 H   0  0  0  0  0  0  0  0  0  0  0  0
    4.7904    1.0847   -0.2801 H   0  0  0  0  0  0  0  0  0  0  0  0
    4.7789   -0.2623    0.8698 H   0  0  0  0  0  0  0  0  0  0  0  0
    4.6115    1.1167    2.6758 H   0  0  0  0  0  0  0  0  0  0  0  0
    4.5523    2.6486    1.7016 H   0  0  0  0  0  0  0  0  0  0  0  0
    6.8958    2.1087    0.9919 H   0  0  0  0  0  0  0  0  0  0  0  0
    6.9024    0.7499    2.1306 H   0  0  0  0  0  0  0  0  0  0  0  0
    6.9284    2.9457    5.1155 H   0  0  0  0  0  0  0  0  0  0  0  0
    6.7367    1.2813    4.6037 H   0  0  0  0  0  0  0  0  0  0  0  0
    3.5260    5.3600    4.5947 H   0  0  0  0  0  0  0  0  0  0  0  0
    1.1781    3.6125    5.8795 H   0  0  0  0  0  0  0  0  0  0  0  0
    0.6936   -1.7570    5.5481 H   0  0  0  0  0  0  0  0  0  0  0  0
    2.4419    0.1092    3.8582 H   0  0  0  0  0  0  0  0  0  0  0  0
    1.3330   -1.2218    3.3210 H   0  0  0  0  0  0  0  0  0  0  0  0
    3.5752    3.0769   10.4981 H   0  0  0  0  0  0  0  0  0  0  0  0
    1.2094   -0.4865   11.9017 H   0  0  0  0  0  0  0  0  0  0  0  0
    0.7362   -1.3893   10.4571 H   0  0  0  0  0  0  0  0  0  0  0  0
    8.7641    3.0723    2.0593 H   0  0  0  0  0  0  0  0  0  0  0  0
    8.8229    1.7498    3.2429 H   0  0  0  0  0  0  0  0  0  0  0  0
    8.7561    3.4440    3.7755 H   0  0  0  0  0  0  0  0  0  0  0  0
  1  2  1  0  0  0  0
  1 33  1  0  0  0  0
  1 34  1  0  0  0  0
  2  3  1  0  0  0  0
  3  4  1  0  0  0  0
  3 35  1  0  0  0  0
  3 36  1  0  0  0  0
  4  5  1  0  0  0  0
  4 37  1  0  0  0  0
  4 38  1  0  0  0  0
  5  6  1  0  0  0  0
  5 39  1  0  0  0  0
  5 40  1  0  0  0  0
  6  7  1  0  0  0  0
  6 41  1  0  0  0  0
  6 42  1  0  0  0  0
  7  8  1  0  0  0  0
  7 32  1  0  0  0  0
  8  9  1  0  0  0  0
  8 43  1  0  0  0  0
  8 44  1  0  0  0  0
  9 10  1  6  0  0  0
  9 11  1  0  0  0  0
  9 16  1  0  0  0  0
 11 12  1  0  0  0  0
 12 14  1  0  0  0  0
 12 20  1  0  0  0  0
 12 13  1  6  0  0  0
 14 15  1  1  0  0  0
 14 16  1  0  0  0  0
 14 19  1  0  0  0  0
 16 17  1  1  0  0  0
 16 18  1  0  0  0  0
 18 45  1  0  0  0  0
 19 46  1  0  0  0  0
 20 21  1  0  0  0  0
 20 26  1  0  0  0  0
 21 22  1  0  0  0  0
 21 24  2  0  0  0  0
 22 23  2  0  0  0  0
 22 47  1  0  0  0  0
 23 48  1  0  0  0  0
 23 49  1  0  0  0  0
 24 25  1  0  0  0  0
 25 26  2  0  0  0  0
 25 30  1  0  0  0  0
 26 27  1  0  0  0  0
 27 28  2  0  0  0  0
 28 29  1  0  0  0  0
 28 50  1  0  0  0  0
 29 30  2  0  0  0  0
 30 31  1  0  0  0  0
 31 51  1  0  0  0  0
 31 52  1  0  0  0  0
 32 53  1  0  0  0  0
 32 54  1  0  0  0  0
 32 55  1  0  0  0  0
M  END
$$$$
