MA0
 OpenBabel04121316153D

 31 32  0  0  1  0  0  0  0  0999 V2000
    4.5816    1.1847    1.4772 C   0  0  0  0  0  0  0  0  0  0  0  0
    4.4729   -0.2824    1.3121 N   0  3  0  0  0  0  0  0  0  0  0  0
    5.4617   -1.1166    1.4578 C   0  0  0  0  0  0  0  0  0  0  0  0
    6.8501   -0.7564    1.7597 C   0  0  0  0  0  0  0  0  0  0  0  0
    7.7627   -1.7328    1.8289 C   0  0  0  0  0  0  0  0  0  0  0  0
    3.0943   -0.7666    0.9408 C   0  0  2  0  0  0  0  0  0  0  0  0
    2.5561    0.0353    0.4208 H   0  0  0  0  0  0  0  0  0  0  0  0
    2.3662   -1.2417    2.2026 C   0  0  0  0  0  0  0  0  0  0  0  0
    2.2185   -2.7799    2.1144 C   0  0  0  0  0  0  0  0  0  0  0  0
    2.7651   -3.1185    0.7531 C   0  0  0  0  0  0  0  0  0  0  0  0
    3.1731   -1.9716    0.0702 C   0  0  0  0  0  0  0  0  0  0  0  0
    3.7885   -2.0073   -1.1790 C   0  0  0  0  0  0  0  0  0  0  0  0
    4.0066   -3.2429   -1.7544 C   0  0  0  0  0  0  0  0  0  0  0  0
    4.6626   -3.3488   -2.9426 O   0  0  0  0  0  0  0  0  0  0  0  0
    3.5979   -4.4090   -1.1015 C   0  0  0  0  0  0  0  0  0  0  0  0
    2.9764   -4.3556    0.1625 C   0  0  0  0  0  0  0  0  0  0  0  0
    5.5881    1.4807    1.7593 H   0  0  0  0  0  0  0  0  0  0  0  0
    3.8880    1.4765    2.2683 H   0  0  0  0  0  0  0  0  0  0  0  0
    4.3201    1.6516    0.5248 H   0  0  0  0  0  0  0  0  0  0  0  0
    5.2660   -2.1966    1.3408 H   0  0  0  0  0  0  0  0  0  0  0  0
    7.1543    0.2654    1.9226 H   0  0  0  0  0  0  0  0  0  0  0  0
    7.5388   -2.7827    1.6660 H   0  0  0  0  0  0  0  0  0  0  0  0
    8.7916   -1.4727    2.0581 H   0  0  0  0  0  0  0  0  0  0  0  0
    1.3771   -0.7676    2.2572 H   0  0  0  0  0  0  0  0  0  0  0  0
    2.8808   -0.9398    3.1256 H   0  0  0  0  0  0  0  0  0  0  0  0
    1.1645   -3.0589    2.2088 H   0  0  0  0  0  0  0  0  0  0  0  0
    2.7879   -3.2519    2.9232 H   0  0  0  0  0  0  0  0  0  0  0  0
    4.1510   -1.0975   -1.6450 H   0  0  0  0  0  0  0  0  0  0  0  0
    4.8626   -2.4662   -3.2994 H   0  0  0  0  0  0  0  0  0  0  0  0
    3.7764   -5.3682   -1.5846 H   0  0  0  0  0  0  0  0  0  0  0  0
    2.6985   -5.2843    0.6556 H   0  0  0  0  0  0  0  0  0  0  0  0
  1  2  1  0  0  0  0
  1 17  1  0  0  0  0
  1 18  1  0  0  0  0
  1 19  1  0  0  0  0
  2  3  2  0  0  0  0
  3  4  1  0  0  0  0
  3 20  1  0  0  0  0
  4  5  2  0  0  0  0
  4 21  1  0  0  0  0
  5 22  1  0  0  0  0
  5 23  1  0  0  0  0
  6  8  1  0  0  0  0
  6 11  1  0  0  0  0
  6  7  1  6  0  0  0
  6  2  1  0  0  0  0
  8  9  1  0  0  0  0
  8 24  1  0  0  0  0
  8 25  1  0  0  0  0
  9 10  1  0  0  0  0
  9 26  1  0  0  0  0
  9 27  1  0  0  0  0
 10 11  2  0  0  0  0
 10 16  1  0  0  0  0
 11 12  1  0  0  0  0
 12 13  2  0  0  0  0
 12 28  1  0  0  0  0
 13 14  1  0  0  0  0
 13 15  1  0  0  0  0
 14 29  1  0  0  0  0
 15 16  2  0  0  0  0
 15 30  1  0  0  0  0
 16 31  1  0  0  0  0
M  CHG  1   2   1
M  END
$$$$
