MAC
 OpenBabel04121316153D

  8  7  0  0  0  0  0  0  0  0999 V2000
    1.0216   -0.0675   -0.0706 C   0  0  0  0  0  0  0  0  0  0  0  0
    2.5036   -0.0675   -0.0706 C   0  0  0  0  0  0  0  0  0  0  0  0
    3.1174    0.4530   -0.9976 O   0  0  0  0  0  0  0  0  0  0  0  0
    3.1781   -0.6394    0.9481 O   0  0  0  0  0  0  0  0  0  0  0  0
    5.1251   -0.6394    0.9481 Hg  0  3  0  0  0  0  0  0  0  0  0  0
    0.6649    0.4264   -0.9502 H   0  0  0  0  0  0  0  0  0  0  0  0
    0.6649    0.4474    0.7969 H   0  0  0  0  0  0  0  0  0  0  0  0
    0.6649   -1.0762   -0.0584 H   0  0  0  0  0  0  0  0  0  0  0  0
  1  2  1  0  0  0  0
  1  6  1  0  0  0  0
  1  7  1  0  0  0  0
  1  8  1  0  0  0  0
  2  3  2  0  0  0  0
  2  4  1  0  0  0  0
  4  5  1  0  0  0  0
M  CHG  1   5   1
M  END
$$$$
