MAG
 OpenBabel04121316153D

 33 33  0  0  1  0  0  0  0  0999 V2000
    1.8432   -2.5945    2.0583 C   0  0  0  0  0  0  0  0  0  0  0  0
    2.8907   -1.7958    1.5026 O   0  0  0  0  0  0  0  0  0  0  0  0
    2.7239   -1.4636    0.1279 C   0  0  2  0  0  0  0  0  0  0  0  0
    1.7588   -0.9512    0.0147 H   0  0  0  0  0  0  0  0  0  0  0  0
    2.7252   -2.7192   -0.5352 O   0  0  0  0  0  0  0  0  0  0  0  0
    2.3975   -2.6683   -1.9046 C   0  0  2  0  0  0  0  0  0  0  0  0
    1.4057   -2.2123   -2.0221 H   0  0  0  0  0  0  0  0  0  0  0  0
    2.3311   -4.1191   -2.3733 C   0  0  0  0  0  0  0  0  0  0  0  0
    1.9370   -4.2334   -3.7290 O   0  0  0  0  0  0  0  0  0  0  0  0
    3.4372   -1.8543   -2.6751 C   0  0  2  0  0  0  0  0  0  0  0  0
    4.4240   -2.3330   -2.6327 H   0  0  0  0  0  0  0  0  0  0  0  0
    3.5196   -0.4608   -2.0560 C   0  0  1  0  0  0  0  0  0  0  0  0
    2.5598    0.0491   -2.2132 H   0  0  0  0  0  0  0  0  0  0  0  0
    3.8199   -0.5087   -0.5287 C   0  0  1  0  0  0  0  0  0  0  0  0
    4.8400   -0.8890   -0.3703 H   0  0  0  0  0  0  0  0  0  0  0  0
    3.7947    0.8904   -0.0480 N   0  0  0  0  0  0  0  0  0  0  0  0
    3.7778    1.2099    1.2809 C   0  0  0  0  0  0  0  0  0  0  0  0
    3.7381    0.3932    2.1994 O   0  0  0  0  0  0  0  0  0  0  0  0
    3.7369    2.6595    1.6241 C   0  0  0  0  0  0  0  0  0  0  0  0
    4.4650    0.3301   -2.7979 O   0  0  0  0  0  0  0  0  0  0  0  0
    3.0992   -1.6801   -4.0572 O   0  0  0  0  0  0  0  0  0  0  0  0
    2.0666   -2.7610    3.1173 H   0  0  0  0  0  0  0  0  0  0  0  0
    1.7931   -3.5806    1.5828 H   0  0  0  0  0  0  0  0  0  0  0  0
    0.8613   -2.1093    1.9977 H   0  0  0  0  0  0  0  0  0  0  0  0
    1.6190   -4.6762   -1.7537 H   0  0  0  0  0  0  0  0  0  0  0  0
    3.3046   -4.6048   -2.2388 H   0  0  0  0  0  0  0  0  0  0  0  0
    1.1384   -3.6993   -3.8602 H   0  0  0  0  0  0  0  0  0  0  0  0
    4.1027    1.5948   -0.7171 H   0  0  0  0  0  0  0  0  0  0  0  0
    3.8809    3.3078    0.7604 H   0  0  0  0  0  0  0  0  0  0  0  0
    4.5251    2.8410    2.3603 H   0  0  0  0  0  0  0  0  0  0  0  0
    2.7631    2.8643    2.0807 H   0  0  0  0  0  0  0  0  0  0  0  0
    4.2741    0.1384   -3.7437 H   0  0  0  0  0  0  0  0  0  0  0  0
    2.1389   -1.5501   -4.1297 H   0  0  0  0  0  0  0  0  0  0  0  0
  1  2  1  0  0  0  0
  1 22  1  0  0  0  0
  1 23  1  0  0  0  0
  1 24  1  0  0  0  0
  3  5  1  0  0  0  0
  3 14  1  0  0  0  0
  3  4  1  6  0  0  0
  3  2  1  0  0  0  0
  5  6  1  0  0  0  0
  6  7  1  6  0  0  0
  6  8  1  0  0  0  0
  6 10  1  0  0  0  0
  8  9  1  0  0  0  0
  8 25  1  0  0  0  0
  8 26  1  0  0  0  0
  9 27  1  0  0  0  0
 10 12  1  0  0  0  0
 10 21  1  0  0  0  0
 10 11  1  1  0  0  0
 12 13  1  6  0  0  0
 12 14  1  0  0  0  0
 12 20  1  0  0  0  0
 14 16  1  0  0  0  0
 14 15  1  1  0  0  0
 16 17  1  0  0  0  0
 16 28  1  0  0  0  0
 17 18  2  0  0  0  0
 17 19  1  0  0  0  0
 19 29  1  0  0  0  0
 19 30  1  0  0  0  0
 19 31  1  0  0  0  0
 20 32  1  0  0  0  0
 21 33  1  0  0  0  0
M  END
$$$$
