MAN
 OpenBabel04121316153D

 24 24  0  0  1  0  0  0  0  0999 V2000
    0.8263    0.0976    0.1355 O   0  0  0  0  0  0  0  0  0  0  0  0
    2.2464    0.0708    0.0370 C   0  0  0  0  0  0  0  0  0  0  0  0
    2.8760   -0.8293    1.1225 C   0  0  1  0  0  0  0  0  0  0  0  0
    2.6779   -0.3631    2.0960 H   0  0  0  0  0  0  0  0  0  0  0  0
    2.2357   -2.1191    1.2050 O   0  0  0  0  0  0  0  0  0  0  0  0
    2.4688   -2.9742    0.1038 C   0  0  2  0  0  0  0  0  0  0  0  0
    2.0052   -2.5643   -0.7987 H   0  0  0  0  0  0  0  0  0  0  0  0
    1.8170   -4.2089    0.3615 O   0  0  0  0  0  0  0  0  0  0  0  0
    3.9740   -3.2320   -0.1212 C   0  0  2  0  0  0  0  0  0  0  0  0
    4.3653   -3.7918    0.7375 H   0  0  0  0  0  0  0  0  0  0  0  0
    4.7421   -1.9054   -0.2376 C   0  0  2  0  0  0  0  0  0  0  0  0
    5.8147   -2.1320   -0.2380 H   0  0  0  0  0  0  0  0  0  0  0  0
    4.4065   -0.9814    0.9451 C   0  0  2  0  0  0  0  0  0  0  0  0
    4.8565    0.0076    0.8018 H   0  0  0  0  0  0  0  0  0  0  0  0
    4.9623   -1.5296    2.1482 O   0  0  0  0  0  0  0  0  0  0  0  0
    4.5071   -1.2261   -1.4802 O   0  0  0  0  0  0  0  0  0  0  0  0
    4.2341   -4.0380   -1.2808 O   0  0  0  0  0  0  0  0  0  0  0  0
    0.4908    0.4989   -0.6856 H   0  0  0  0  0  0  0  0  0  0  0  0
    2.6243    1.0945    0.1258 H   0  0  0  0  0  0  0  0  0  0  0  0
    2.4599   -0.2791   -0.9699 H   0  0  0  0  0  0  0  0  0  0  0  0
    0.8792   -3.9789    0.4673 H   0  0  0  0  0  0  0  0  0  0  0  0
    5.9163   -1.6687    2.0122 H   0  0  0  0  0  0  0  0  0  0  0  0
    3.7046   -1.5735   -1.9050 H   0  0  0  0  0  0  0  0  0  0  0  0
    3.7985   -3.6452   -2.0519 H   0  0  0  0  0  0  0  0  0  0  0  0
  1  2  1  0  0  0  0
  1 18  1  0  0  0  0
  2  3  1  0  0  0  0
  2 19  1  0  0  0  0
  2 20  1  0  0  0  0
  3  4  1  1  0  0  0
  3  5  1  0  0  0  0
  3 13  1  0  0  0  0
  5  6  1  0  0  0  0
  6  7  1  6  0  0  0
  6  8  1  0  0  0  0
  6  9  1  0  0  0  0
  8 21  1  0  0  0  0
  9 11  1  0  0  0  0
  9 17  1  0  0  0  0
  9 10  1  1  0  0  0
 11 13  1  0  0  0  0
 11 16  1  0  0  0  0
 11 12  1  1  0  0  0
 13 14  1  6  0  0  0
 13 15  1  0  0  0  0
 15 22  1  0  0  0  0
 16 23  1  0  0  0  0
 17 24  1  0  0  0  0
M  END
$$$$
