MAQ
 OpenBabel04121316153D

 22 23  0  0  0  0  0  0  0  0999 V2000
    1.0953   -0.0623   -0.0197 N   0  0  0  0  0  0  0  0  0  0  0  0
    2.4385   -0.1652    0.0306 C   0  0  0  0  0  0  0  0  0  0  0  0
    2.9938   -1.3326    0.0040 N   0  0  0  0  0  0  0  0  0  0  0  0
    4.3687   -1.3974    0.0244 C   0  0  0  0  0  0  0  0  0  0  0  0
    4.9769   -2.4694    0.0068 O   0  0  0  0  0  0  0  0  0  0  0  0
    5.1656   -0.1446    0.0053 C   0  0  0  0  0  0  0  0  0  0  0  0
    4.4689    1.0702    0.0326 C   0  0  0  0  0  0  0  0  0  0  0  0
    3.0749    1.0288    0.1143 N   0  0  0  0  0  0  0  0  0  0  0  0
    2.5559    1.8757   -0.0433 H   0  0  0  0  0  0  0  0  0  0  0  0
    5.2004    2.2652    0.0327 C   0  0  0  0  0  0  0  0  0  0  0  0
    4.5803    3.6002    0.3193 C   0  0  0  0  0  0  0  0  0  0  0  0
    6.5792    2.2172   -0.2387 C   0  0  0  0  0  0  0  0  0  0  0  0
    7.2386    0.9979   -0.3836 C   0  0  0  0  0  0  0  0  0  0  0  0
    6.5555   -0.1818   -0.1224 C   0  0  0  0  0  0  0  0  0  0  0  0
    0.5729   -0.9297   -0.0185 H   0  0  0  0  0  0  0  0  0  0  0  0
    0.5859    0.8044    0.0293 H   0  0  0  0  0  0  0  0  0  0  0  0
    3.5116    3.5346    0.5346 H   0  0  0  0  0  0  0  0  0  0  0  0
    4.7140    4.2690   -0.5342 H   0  0  0  0  0  0  0  0  0  0  0  0
    5.0509    4.0342    1.2083 H   0  0  0  0  0  0  0  0  0  0  0  0
    7.1529    3.1385   -0.3230 H   0  0  0  0  0  0  0  0  0  0  0  0
    8.2806    0.9669   -0.6910 H   0  0  0  0  0  0  0  0  0  0  0  0
    7.0911   -1.1256   -0.0589 H   0  0  0  0  0  0  0  0  0  0  0  0
  1  2  1  0  0  0  0
  1 15  1  0  0  0  0
  1 16  1  0  0  0  0
  2  3  2  0  0  0  0
  2  8  1  0  0  0  0
  3  4  1  0  0  0  0
  4  5  2  0  0  0  0
  4  6  1  0  0  0  0
  6  7  2  0  0  0  0
  6 14  1  0  0  0  0
  7  8  1  0  0  0  0
  7 10  1  0  0  0  0
  8  9  1  0  0  0  0
 10 11  1  0  0  0  0
 10 12  2  0  0  0  0
 11 17  1  0  0  0  0
 11 18  1  0  0  0  0
 11 19  1  0  0  0  0
 12 13  1  0  0  0  0
 12 20  1  0  0  0  0
 13 14  2  0  0  0  0
 13 21  1  0  0  0  0
 14 22  1  0  0  0  0
M  END
$$$$
