MAZ
 OpenBabel04121316153D

 20 20  0  0  0  0  0  0  0  0999 V2000
    0.8966    0.1308   -0.0085 O   0  0  0  0  0  0  0  0  0  0  0  0
    2.1182    0.0638    0.0651 C   0  0  0  0  0  0  0  0  0  0  0  0
    2.7606   -0.8762    0.7751 O   0  0  0  0  0  0  0  0  0  0  0  0
    4.1937   -0.8798    0.7326 C   0  0  0  0  0  0  0  0  0  0  0  0
    4.6456   -2.0957    1.4992 C   0  0  0  0  0  0  0  0  0  0  0  0
    5.6768   -2.0390    2.4411 C   0  0  0  0  0  0  0  0  0  0  0  0
    6.0396   -3.1924    3.1381 C   0  0  0  0  0  0  0  0  0  0  0  0
    5.4660   -4.4249    2.8083 C   0  0  0  0  0  0  0  0  0  0  0  0
    4.4783   -4.5141    1.8292 C   0  0  0  0  0  0  0  0  0  0  0  0
    4.0183   -3.3316    1.2535 C   0  0  0  0  0  0  0  0  0  0  0  0
    3.8013   -5.7141    1.6021 N   0  0  0  0  0  0  0  0  0  0  0  0
    2.7916    0.7686   -0.4392 H   0  0  0  0  0  0  0  0  0  0  0  0
    4.5749    0.0436    1.1823 H   0  0  0  0  0  0  0  0  0  0  0  0
    4.5523   -0.9569   -0.3025 H   0  0  0  0  0  0  0  0  0  0  0  0
    6.1853   -1.1034    2.6616 H   0  0  0  0  0  0  0  0  0  0  0  0
    6.7653   -3.1375    3.9458 H   0  0  0  0  0  0  0  0  0  0  0  0
    5.7947   -5.3192    3.3295 H   0  0  0  0  0  0  0  0  0  0  0  0
    3.1484   -3.3627    0.6000 H   0  0  0  0  0  0  0  0  0  0  0  0
    4.3390   -6.5536    1.7886 H   0  0  0  0  0  0  0  0  0  0  0  0
    3.2828   -5.7551    0.7299 H   0  0  0  0  0  0  0  0  0  0  0  0
  1  2  2  0  0  0  0
  2  3  1  0  0  0  0
  2 12  1  0  0  0  0
  3  4  1  0  0  0  0
  4  5  1  0  0  0  0
  4 13  1  0  0  0  0
  4 14  1  0  0  0  0
  5  6  2  0  0  0  0
  5 10  1  0  0  0  0
  6  7  1  0  0  0  0
  6 15  1  0  0  0  0
  7  8  2  0  0  0  0
  7 16  1  0  0  0  0
  8  9  1  0  0  0  0
  8 17  1  0  0  0  0
  9 10  2  0  0  0  0
  9 11  1  0  0  0  0
 10 18  1  0  0  0  0
 11 19  1  0  0  0  0
 11 20  1  0  0  0  0
M  END
$$$$
