MB9
 OpenBabel04121316153D

 40 43  0  0  1  0  0  0  0  0999 V2000
    4.1393    1.2138   -2.2478 N   0  0  0  0  0  0  0  0  0  0  0  0
    3.7888    0.6767   -1.2571 C   0  0  0  0  0  0  0  0  0  0  0  0
    3.4243    0.0087    0.0298 C   0  0  2  0  0  0  0  0  0  0  0  0
    2.3346    0.0333    0.1049 H   0  0  0  0  0  0  0  0  0  0  0  0
    4.0397    0.8760    1.1716 C   0  0  0  0  0  0  0  0  0  0  0  0
    4.6967    0.3881    2.2999 C   0  0  0  0  0  0  0  0  0  0  0  0
    4.8939   -0.9688    2.5770 C   0  0  0  0  0  0  0  0  0  0  0  0
    5.3220   -1.5458    3.5669 O   0  0  0  0  0  0  0  0  0  0  0  0
    4.2663   -1.6629    1.6579 N   0  0  0  0  0  0  0  0  0  0  0  0
    3.9709   -1.4732    0.1925 C   0  0  0  0  0  0  0  0  0  0  0  0
    4.9674   -1.6966   -1.0074 C   0  0  0  0  0  0  0  0  0  0  0  0
    6.0781   -2.6683   -0.7822 C   0  0  0  0  0  0  0  0  0  0  0  0
    5.5446   -3.9759   -0.4232 N   0  0  0  0  0  0  0  0  0  0  0  0
    4.5598   -3.8506    0.6504 C   0  0  0  0  0  0  0  0  0  0  0  0
    3.2946   -2.8591    0.1995 C   0  0  0  0  0  0  0  0  0  0  0  0
    4.9801    1.3955    3.1605 N   0  0  0  0  0  0  0  0  0  0  0  0
    4.6655    2.5811    2.5436 C   0  0  0  0  0  0  0  0  0  0  0  0
    4.0929    2.2795    1.2984 C   0  0  0  0  0  0  0  0  0  0  0  0
    3.6995    3.3168    0.4438 C   0  0  0  0  0  0  0  0  0  0  0  0
    3.8951    4.6292    0.8411 C   0  0  0  0  0  0  0  0  0  0  0  0
    4.4437    4.9073    2.0876 C   0  0  0  0  0  0  0  0  0  0  0  0
    4.8337    3.8974    2.9706 C   0  0  0  0  0  0  0  0  0  0  0  0
    4.6456    6.5474    2.5562 Cl  0  0  0  0  0  0  0  0  0  0  0  0
    5.5188    1.2212    4.4946 C   0  0  0  0  0  0  0  0  0  0  0  0
    3.7767   -2.3807    2.1966 H   0  0  0  0  0  0  0  0  0  0  0  0
    5.4653   -0.8041   -1.3870 H   0  0  0  0  0  0  0  0  0  0  0  0
    4.3606   -2.0440   -1.8712 H   0  0  0  0  0  0  0  0  0  0  0  0
    6.7458   -2.2289   -0.0315 H   0  0  0  0  0  0  0  0  0  0  0  0
    6.6510   -2.7624   -1.7124 H   0  0  0  0  0  0  0  0  0  0  0  0
    6.3392   -4.5240   -0.0882 H   0  0  0  0  0  0  0  0  0  0  0  0
    5.1964   -3.4801    1.4844 H   0  0  0  0  0  0  0  0  0  0  0  0
    4.2013   -4.7908    1.0651 H   0  0  0  0  0  0  0  0  0  0  0  0
    2.4611   -2.8438    0.9286 H   0  0  0  0  0  0  0  0  0  0  0  0
    2.8525   -3.2295   -0.7243 H   0  0  0  0  0  0  0  0  0  0  0  0
    3.2741    3.1134   -0.5335 H   0  0  0  0  0  0  0  0  0  0  0  0
    3.6086    5.4191    0.1557 H   0  0  0  0  0  0  0  0  0  0  0  0
    5.2627    4.1203    3.9399 H   0  0  0  0  0  0  0  0  0  0  0  0
    5.6196    0.1715    4.7675 H   0  0  0  0  0  0  0  0  0  0  0  0
    4.8317    1.6676    5.2140 H   0  0  0  0  0  0  0  0  0  0  0  0
    6.5117    1.6674    4.5238 H   0  0  0  0  0  0  0  0  0  0  0  0
  1  2  3  0  0  0  0
  3  5  1  0  0  0  0
  3 10  1  0  0  0  0
  3  4  1  1  0  0  0
  3  2  1  0  0  0  0
  5  6  2  0  0  0  0
  5 18  1  0  0  0  0
  6  7  1  0  0  0  0
  6 16  1  0  0  0  0
  7  8  2  0  0  0  0
  7  9  1  0  0  0  0
  9 10  1  0  0  0  0
  9 25  1  0  0  0  0
 10 11  1  0  0  0  0
 10 15  1  0  0  0  0
 11 12  1  0  0  0  0
 11 26  1  0  0  0  0
 11 27  1  0  0  0  0
 12 13  1  0  0  0  0
 12 28  1  0  0  0  0
 12 29  1  0  0  0  0
 13 14  1  0  0  0  0
 13 30  1  0  0  0  0
 14 15  1  0  0  0  0
 14 31  1  0  0  0  0
 14 32  1  0  0  0  0
 15 33  1  0  0  0  0
 15 34  1  0  0  0  0
 16 17  1  0  0  0  0
 16 24  1  0  0  0  0
 17 18  2  0  0  0  0
 17 22  1  0  0  0  0
 18 19  1  0  0  0  0
 19 20  2  0  0  0  0
 19 35  1  0  0  0  0
 20 21  1  0  0  0  0
 20 36  1  0  0  0  0
 21 22  2  0  0  0  0
 21 23  1  0  0  0  0
 22 37  1  0  0  0  0
 24 38  1  0  0  0  0
 24 39  1  0  0  0  0
 24 40  1  0  0  0  0
M  END
$$$$
