MBC
 OpenBabel04121316153D

 42 45  0  0  0  0  0  0  0  0999 V2000
    1.0125    0.0869    0.0419 N   0  0  0  0  0  0  0  0  0  0  0  0
    2.3750    0.0073   -0.0318 C   0  0  0  0  0  0  0  0  0  0  0  0
    3.0594   -0.8250    0.6606 N   0  0  0  0  0  0  0  0  0  0  0  0
    3.0679    0.9507   -0.9300 C   0  0  0  0  0  0  0  0  0  0  0  0
    2.8710    2.3037   -0.6934 C   0  0  0  0  0  0  0  0  0  0  0  0
    3.2702    3.2124   -1.6578 C   0  0  0  0  0  0  0  0  0  0  0  0
    3.9384    2.7985   -2.8257 C   0  0  0  0  0  0  0  0  0  0  0  0
    4.2628    1.4434   -2.9734 C   0  0  0  0  0  0  0  0  0  0  0  0
    3.7903    0.5079   -2.0409 C   0  0  0  0  0  0  0  0  0  0  0  0
    4.1857    3.8132   -3.8415 C   0  0  0  0  0  0  0  0  0  0  0  0
    3.9985    5.1783   -3.8130 C   0  0  0  0  0  0  0  0  0  0  0  0
    4.2452    5.6474   -5.1085 C   0  0  0  0  0  0  0  0  0  0  0  0
    4.6042    4.5552   -5.8813 C   0  0  0  0  0  0  0  0  0  0  0  0
    4.5665    3.4247   -5.0948 O   0  0  0  0  0  0  0  0  0  0  0  0
    4.9465    4.5807   -7.2686 C   0  0  0  0  0  0  0  0  0  0  0  0
    5.1829    3.5498   -8.0512 N   0  0  0  0  0  0  0  0  0  0  0  0
    5.4610    4.0874   -9.2868 C   0  0  0  0  0  0  0  0  0  0  0  0
    5.3937    5.4726   -9.2546 C   0  0  0  0  0  0  0  0  0  0  0  0
    5.0633    5.7584   -7.9628 N   0  0  0  0  0  0  0  0  0  0  0  0
    4.9337    6.6820   -7.5814 H   0  0  0  0  0  0  0  0  0  0  0  0
    5.6311    6.2905  -10.3512 C   0  0  0  0  0  0  0  0  0  0  0  0
    5.9551    5.6367  -11.5423 C   0  0  0  0  0  0  0  0  0  0  0  0
    6.0321    4.2339  -11.6308 C   0  0  0  0  0  0  0  0  0  0  0  0
    5.7831    3.4476  -10.4913 C   0  0  0  0  0  0  0  0  0  0  0  0
    6.3778    3.5968  -12.9433 C   0  0  0  0  0  0  0  0  0  0  0  0
    6.4694    2.3167  -13.1249 N   0  0  0  0  0  0  0  0  0  0  0  0
    6.6205    4.3434  -14.0506 N   0  0  0  0  0  0  0  0  0  0  0  0
    0.4841   -0.6358    0.5086 H   0  0  0  0  0  0  0  0  0  0  0  0
    0.5126    0.6002   -0.6767 H   0  0  0  0  0  0  0  0  0  0  0  0
    2.4318   -1.3705    1.2555 H   0  0  0  0  0  0  0  0  0  0  0  0
    2.3813    2.6489    0.2122 H   0  0  0  0  0  0  0  0  0  0  0  0
    3.0088    4.2541   -1.5002 H   0  0  0  0  0  0  0  0  0  0  0  0
    4.8454    1.1010   -3.8269 H   0  0  0  0  0  0  0  0  0  0  0  0
    3.9470   -0.5559   -2.1977 H   0  0  0  0  0  0  0  0  0  0  0  0
    3.6741    5.7617   -2.9652 H   0  0  0  0  0  0  0  0  0  0  0  0
    4.1517    6.6710   -5.4364 H   0  0  0  0  0  0  0  0  0  0  0  0
    5.5729    7.3720  -10.2962 H   0  0  0  0  0  0  0  0  0  0  0  0
    6.1462    6.2677  -12.4033 H   0  0  0  0  0  0  0  0  0  0  0  0
    5.8263    2.3680  -10.4857 H   0  0  0  0  0  0  0  0  0  0  0  0
    6.2819    1.7815  -12.2776 H   0  0  0  0  0  0  0  0  0  0  0  0
    6.5934    5.3470  -14.0975 H   0  0  0  0  0  0  0  0  0  0  0  0
    6.8451    3.8339  -14.8951 H   0  0  0  0  0  0  0  0  0  0  0  0
  1  2  1  0  0  0  0
  1 28  1  0  0  0  0
  1 29  1  0  0  0  0
  2  3  2  0  0  0  0
  2  4  1  0  0  0  0
  3 30  1  0  0  0  0
  4  5  2  0  0  0  0
  4  9  1  0  0  0  0
  5  6  1  0  0  0  0
  5 31  1  0  0  0  0
  6  7  2  0  0  0  0
  6 32  1  0  0  0  0
  7  8  1  0  0  0  0
  7 10  1  0  0  0  0
  8  9  2  0  0  0  0
  8 33  1  0  0  0  0
  9 34  1  0  0  0  0
 10 11  2  0  0  0  0
 10 14  1  0  0  0  0
 11 12  1  0  0  0  0
 11 35  1  0  0  0  0
 12 13  2  0  0  0  0
 12 36  1  0  0  0  0
 13 14  1  0  0  0  0
 13 15  1  0  0  0  0
 15 16  2  0  0  0  0
 15 19  1  0  0  0  0
 16 17  1  0  0  0  0
 17 18  2  0  0  0  0
 17 24  1  0  0  0  0
 18 19  1  0  0  0  0
 18 21  1  0  0  0  0
 19 20  1  0  0  0  0
 21 22  2  0  0  0  0
 21 37  1  0  0  0  0
 22 23  1  0  0  0  0
 22 38  1  0  0  0  0
 23 24  2  0  0  0  0
 23 25  1  0  0  0  0
 24 39  1  0  0  0  0
 25 26  2  0  0  0  0
 25 27  1  0  0  0  0
 26 40  1  0  0  0  0
 27 41  1  0  0  0  0
 27 42  1  0  0  0  0
M  END
$$$$
