MBF
 OpenBabel04121316153D

 23 23  0  0  1  0  0  0  0  0999 V2000
    0.7299   -0.1368    0.2912 O   0  0  0  0  0  0  0  0  0  0  0  0
    2.1419   -0.1833    0.1647 C   0  0  0  0  0  0  0  0  0  0  0  0
    2.8777    0.4940    1.3392 C   0  0  1  0  0  0  0  0  0  0  0  0
    2.3408    0.2373    2.2613 H   0  0  0  0  0  0  0  0  0  0  0  0
    4.1956   -0.0720    1.5054 O   0  0  0  0  0  0  0  0  0  0  0  0
    5.1842    0.3341    0.5678 C   0  0  1  0  0  0  0  0  0  0  0  0
    6.1461   -0.0079    0.9657 H   0  0  0  0  0  0  0  0  0  0  0  0
    5.0478   -0.3815   -0.6507 O   0  0  0  0  0  0  0  0  0  0  0  0
    5.2771    1.8557    0.4095 C   0  0  2  0  0  0  0  0  0  0  0  0
    5.7038    2.2682    1.3329 H   0  0  0  0  0  0  0  0  0  0  0  0
    3.9167    2.5180    0.1780 C   0  0  2  0  0  0  0  0  0  0  0  0
    4.0640    3.6017    0.2643 H   0  0  0  0  0  0  0  0  0  0  0  0
    2.9277    2.0414    1.2504 C   0  0  2  0  0  0  0  0  0  0  0  0
    1.9222    2.4307    1.0552 H   0  0  0  0  0  0  0  0  0  0  0  0
    3.3628    2.5658    2.5167 O   0  0  0  0  0  0  0  0  0  0  0  0
    3.3569    2.3048   -1.1207 O   0  0  0  0  0  0  0  0  0  0  0  0
    6.1159    2.1803   -0.6117 F   0  0  0  0  0  0  0  0  0  0  0  0
    0.3736   -0.4666   -0.5553 H   0  0  0  0  0  0  0  0  0  0  0  0
    2.3619    0.2976   -0.7854 H   0  0  0  0  0  0  0  0  0  0  0  0
    2.4542   -1.2294    0.0732 H   0  0  0  0  0  0  0  0  0  0  0  0
    4.2102   -0.1425   -1.0687 H   0  0  0  0  0  0  0  0  0  0  0  0
    3.3163    3.5378    2.4705 H   0  0  0  0  0  0  0  0  0  0  0  0
    3.9463    1.7374   -1.6455 H   0  0  0  0  0  0  0  0  0  0  0  0
  1  2  1  0  0  0  0
  1 18  1  0  0  0  0
  2  3  1  0  0  0  0
  2 19  1  0  0  0  0
  2 20  1  0  0  0  0
  3  4  1  1  0  0  0
  3  5  1  0  0  0  0
  3 13  1  0  0  0  0
  5  6  1  0  0  0  0
  6  9  1  0  0  0  0
  6  8  1  0  0  0  0
  6  7  1  1  0  0  0
  8 21  1  0  0  0  0
  9 11  1  0  0  0  0
  9 17  1  0  0  0  0
  9 10  1  1  0  0  0
 11 13  1  0  0  0  0
 11 16  1  0  0  0  0
 11 12  1  1  0  0  0
 13 14  1  6  0  0  0
 13 15  1  0  0  0  0
 15 22  1  0  0  0  0
 16 23  1  0  0  0  0
M  END
$$$$
