MBG
 OpenBabel04121316153D

 27 27  0  0  1  0  0  0  0  0999 V2000
    1.7574   -1.6571    2.6537 C   0  0  0  0  0  0  0  0  0  0  0  0
    2.6810   -0.7416    2.0520 O   0  0  0  0  0  0  0  0  0  0  0  0
    2.9022   -1.0842    0.6692 C   0  0  2  0  0  0  0  0  0  0  0  0
    2.4931   -0.2506    0.0841 H   0  0  0  0  0  0  0  0  0  0  0  0
    2.1473   -2.2493    0.3842 O   0  0  0  0  0  0  0  0  0  0  0  0
    2.3207   -2.9270   -0.8278 C   0  0  2  0  0  0  0  0  0  0  0  0
    1.8960   -2.3130   -1.6300 H   0  0  0  0  0  0  0  0  0  0  0  0
    1.4897   -4.2050   -0.6778 C   0  0  0  0  0  0  0  0  0  0  0  0
    1.4760   -4.9330   -1.8940 O   0  0  0  0  0  0  0  0  0  0  0  0
    3.8000   -3.1967   -1.1036 C   0  0  1  0  0  0  0  0  0  0  0  0
    3.9286   -3.6738   -2.0805 H   0  0  0  0  0  0  0  0  0  0  0  0
    4.5406   -1.8466   -1.0567 C   0  0  1  0  0  0  0  0  0  0  0  0
    4.0969   -1.1601   -1.7890 H   0  0  0  0  0  0  0  0  0  0  0  0
    4.4154   -1.2133    0.3474 C   0  0  1  0  0  0  0  0  0  0  0  0
    4.9225   -1.8297    1.1003 H   0  0  0  0  0  0  0  0  0  0  0  0
    5.0765    0.0654    0.3961 O   0  0  0  0  0  0  0  0  0  0  0  0
    5.9051   -1.9964   -1.4502 O   0  0  0  0  0  0  0  0  0  0  0  0
    4.3788   -4.0697   -0.1273 O   0  0  0  0  0  0  0  0  0  0  0  0
    1.5248   -1.3734    3.6782 H   0  0  0  0  0  0  0  0  0  0  0  0
    2.2010   -2.6617    2.6636 H   0  0  0  0  0  0  0  0  0  0  0  0
    0.8137   -1.6620    2.0897 H   0  0  0  0  0  0  0  0  0  0  0  0
    0.4599   -3.9703   -0.3789 H   0  0  0  0  0  0  0  0  0  0  0  0
    1.8752   -4.8476    0.1229 H   0  0  0  0  0  0  0  0  0  0  0  0
    1.0732   -4.3591   -2.5634 H   0  0  0  0  0  0  0  0  0  0  0  0
    4.6693    0.6582   -0.2638 H   0  0  0  0  0  0  0  0  0  0  0  0
    5.9269   -2.5731   -2.2379 H   0  0  0  0  0  0  0  0  0  0  0  0
    3.9139   -4.9265   -0.1512 H   0  0  0  0  0  0  0  0  0  0  0  0
  1  2  1  0  0  0  0
  1 19  1  0  0  0  0
  1 20  1  0  0  0  0
  1 21  1  0  0  0  0
  3  5  1  0  0  0  0
  3 14  1  0  0  0  0
  3  4  1  6  0  0  0
  3  2  1  0  0  0  0
  5  6  1  0  0  0  0
  6  7  1  6  0  0  0
  6  8  1  0  0  0  0
  6 10  1  0  0  0  0
  8  9  1  0  0  0  0
  8 22  1  0  0  0  0
  8 23  1  0  0  0  0
  9 24  1  0  0  0  0
 10 11  1  6  0  0  0
 10 12  1  0  0  0  0
 10 18  1  0  0  0  0
 12 13  1  6  0  0  0
 12 14  1  0  0  0  0
 12 17  1  0  0  0  0
 14 16  1  0  0  0  0
 14 15  1  1  0  0  0
 16 25  1  0  0  0  0
 17 26  1  0  0  0  0
 18 27  1  0  0  0  0
M  END
$$$$
