MBN
 OpenBabel04121316153D

 15 15  0  0  0  0  0  0  0  0999 V2000
    1.0534    0.0795    0.0612 C   0  0  0  0  0  0  0  0  0  0  0  0
    2.5528    0.1042    0.0394 C   0  0  0  0  0  0  0  0  0  0  0  0
    3.2484    1.3200    0.0222 C   0  0  0  0  0  0  0  0  0  0  0  0
    4.6336    1.3323   -0.1526 C   0  0  0  0  0  0  0  0  0  0  0  0
    5.3392    0.1357   -0.2294 C   0  0  0  0  0  0  0  0  0  0  0  0
    4.6645   -1.0798   -0.1160 C   0  0  0  0  0  0  0  0  0  0  0  0
    3.2722   -1.0938   -0.0150 C   0  0  0  0  0  0  0  0  0  0  0  0
    0.6358    1.0896    0.1220 H   0  0  0  0  0  0  0  0  0  0  0  0
    0.6886   -0.4933    0.9186 H   0  0  0  0  0  0  0  0  0  0  0  0
    0.6816   -0.3770   -0.8629 H   0  0  0  0  0  0  0  0  0  0  0  0
    2.7166    2.2612    0.1244 H   0  0  0  0  0  0  0  0  0  0  0  0
    5.1588    2.2811   -0.2359 H   0  0  0  0  0  0  0  0  0  0  0  0
    6.4162    0.1464   -0.3761 H   0  0  0  0  0  0  0  0  0  0  0  0
    5.2188   -2.0127   -0.1238 H   0  0  0  0  0  0  0  0  0  0  0  0
    2.7503   -2.0488    0.0081 H   0  0  0  0  0  0  0  0  0  0  0  0
  1  2  1  0  0  0  0
  1  8  1  0  0  0  0
  1  9  1  0  0  0  0
  1 10  1  0  0  0  0
  2  3  2  0  0  0  0
  2  7  1  0  0  0  0
  3  4  1  0  0  0  0
  3 11  1  0  0  0  0
  4  5  2  0  0  0  0
  4 12  1  0  0  0  0
  5  6  1  0  0  0  0
  5 13  1  0  0  0  0
  6  7  2  0  0  0  0
  6 14  1  0  0  0  0
  7 15  1  0  0  0  0
M  END
$$$$
