MBR
 OpenBabel04121316153D

  5  4  0  0  0  0  0  0  0  0999 V2000
    1.0110    0.1109   -0.0193 Br  0  0  0  0  0  0  0  0  0  0  0  0
    2.9528    0.0485   -0.0929 C   0  0  0  0  0  0  0  0  0  0  0  0
    3.6455   -1.7216    0.3152 Br  0  0  0  0  0  0  0  0  0  0  0  0
    3.6455    0.7375   -1.7736 Br  0  0  0  0  0  0  0  0  0  0  0  0
    3.3170    0.7154    0.6923 H   0  0  0  0  0  0  0  0  0  0  0  0
  1  2  1  0  0  0  0
  2  3  1  0  0  0  0
  2  4  1  0  0  0  0
  2  5  1  0  0  0  0
M  END
$$$$
