MC
 OpenBabel04121316153D

 39 41  0  0  1  0  0  0  0  0999 V2000
    1.0486   -0.0034   -0.0170 N   0  0  0  0  0  0  0  0  0  0  0  0
    2.4043   -0.0011   -0.0480 C   0  0  0  0  0  0  0  0  0  0  0  0
    3.0356   -0.1815   -1.0821 O   0  0  0  0  0  0  0  0  0  0  0  0
    2.9236    0.2439    1.1803 O   0  0  0  0  0  0  0  0  0  0  0  0
    4.3677    0.2696    1.2477 C   0  0  0  0  0  0  0  0  0  0  0  0
    4.8710    0.5763    2.6584 C   0  0  0  0  0  0  0  0  0  0  0  0
    5.0205    1.8153    3.2965 C   0  0  0  0  0  0  0  0  0  0  0  0
    4.8778    3.3043    3.1381 C   0  0  1  0  0  0  0  0  0  0  0  0
    5.7307    3.7420    2.6036 H   0  0  0  0  0  0  0  0  0  0  0  0
    3.6757    3.6539    2.4800 O   0  0  0  0  0  0  0  0  0  0  0  0
    4.8810    3.8363    4.6340 C   0  0  2  0  0  0  0  0  0  0  0  0
    5.3857    4.8091    4.6953 H   0  0  0  0  0  0  0  0  0  0  0  0
    5.6831    2.7625    5.3884 C   0  0  0  0  0  0  0  0  0  0  0  0
    5.5000    1.5757    4.5613 N   0  0  0  0  0  0  0  0  0  0  0  0
    5.6799    0.2609    4.8041 C   0  0  0  0  0  0  0  0  0  0  0  0
    5.3213   -0.4217    3.6519 C   0  0  0  0  0  0  0  0  0  0  0  0
    5.4259   -1.8865    3.6135 C   0  0  0  0  0  0  0  0  0  0  0  0
    5.1658   -2.5712    2.6274 O   0  0  0  0  0  0  0  0  0  0  0  0
    5.9121   -2.5610    4.9293 C   0  0  0  0  0  0  0  0  0  0  0  0
    6.2291   -1.8394    6.0285 C   0  0  0  0  0  0  0  0  0  0  0  0
    6.1407   -0.3416    6.0250 C   0  0  0  0  0  0  0  0  0  0  0  0
    6.4569    0.3015    7.0216 O   0  0  0  0  0  0  0  0  0  0  0  0
    6.6961   -2.4307    7.3324 C   0  0  0  0  0  0  0  0  0  0  0  0
    6.0038   -3.9434    4.8997 N   0  0  0  0  0  0  0  0  0  0  0  0
    3.5390    4.0258    5.2294 N   0  0  0  0  0  0  0  0  0  0  0  0
    0.5335   -0.1676   -0.8708 H   0  0  0  0  0  0  0  0  0  0  0  0
    0.5517    0.1488    0.8475 H   0  0  0  0  0  0  0  0  0  0  0  0
    4.7436    1.0300    0.5499 H   0  0  0  0  0  0  0  0  0  0  0  0
    4.7542   -0.7015    0.9115 H   0  0  0  0  0  0  0  0  0  0  0  0
    3.7361    3.3148    1.5748 H   0  0  0  0  0  0  0  0  0  0  0  0
    5.3126    2.5728    6.3990 H   0  0  0  0  0  0  0  0  0  0  0  0
    6.7530    2.9949    5.4078 H   0  0  0  0  0  0  0  0  0  0  0  0
    6.7609   -3.5216    7.3254 H   0  0  0  0  0  0  0  0  0  0  0  0
    6.0045   -2.1695    8.1399 H   0  0  0  0  0  0  0  0  0  0  0  0
    7.6967   -2.0647    7.5835 H   0  0  0  0  0  0  0  0  0  0  0  0
    5.7368   -4.4300    4.0483 H   0  0  0  0  0  0  0  0  0  0  0  0
    6.2868   -4.4836    5.7067 H   0  0  0  0  0  0  0  0  0  0  0  0
    3.0366    4.7150    4.6674 H   0  0  0  0  0  0  0  0  0  0  0  0
    3.6014    4.3796    6.1806 H   0  0  0  0  0  0  0  0  0  0  0  0
  1  2  1  0  0  0  0
  1 26  1  0  0  0  0
  1 27  1  0  0  0  0
  2  3  2  0  0  0  0
  2  4  1  0  0  0  0
  4  5  1  0  0  0  0
  5  6  1  0  0  0  0
  5 28  1  0  0  0  0
  5 29  1  0  0  0  0
  6  7  2  0  0  0  0
  6 16  1  0  0  0  0
  7  8  1  0  0  0  0
  7 14  1  0  0  0  0
  8  9  1  6  0  0  0
  8 10  1  0  0  0  0
  8 11  1  0  0  0  0
 10 30  1  0  0  0  0
 11 12  1  1  0  0  0
 11 13  1  0  0  0  0
 11 25  1  0  0  0  0
 13 14  1  0  0  0  0
 13 31  1  0  0  0  0
 13 32  1  0  0  0  0
 14 15  1  0  0  0  0
 15 16  2  0  0  0  0
 15 21  1  0  0  0  0
 16 17  1  0  0  0  0
 17 18  2  0  0  0  0
 17 19  1  0  0  0  0
 19 20  2  0  0  0  0
 19 24  1  0  0  0  0
 20 21  1  0  0  0  0
 20 23  1  0  0  0  0
 21 22  2  0  0  0  0
 23 33  1  0  0  0  0
 23 34  1  0  0  0  0
 23 35  1  0  0  0  0
 24 36  1  0  0  0  0
 24 37  1  0  0  0  0
 25 38  1  0  0  0  0
 25 39  1  0  0  0  0
M  END
$$$$
