MCA
 OpenBabel04121316153D

 95 97  0  0  1  0  0  0  0  0999 V2000
   12.6458    8.4985    4.4267 O   0  0  0  0  0  0  0  0  0  0  0  0
   12.2488    8.2216    3.2964 C   0  0  0  0  0  0  0  0  0  0  0  0
   11.2655    8.9472    2.6627 N   0  0  0  0  0  0  0  0  0  0  0  0
   10.6532   10.0880    3.2983 C   0  0  0  0  0  0  0  0  0  0  0  0
    9.5875   10.7388    2.4149 C   0  0  0  0  0  0  0  0  0  0  0  0
    8.8448   12.1044    3.3526 S   0  0  0  0  0  0  0  0  0  0  0  0
    7.7438   12.8028    2.1617 C   0  0  0  0  0  0  0  0  0  0  0  0
    7.5465   12.2375    1.0825 O   0  0  0  0  0  0  0  0  0  0  0  0
    7.0050   14.0370    2.6398 C   0  0  1  0  0  0  0  0  0  0  0  0
    6.4615   13.7911    3.5631 H   0  0  0  0  0  0  0  0  0  0  0  0
    7.9106   15.2164    2.9231 C   0  0  0  0  0  0  0  0  0  0  0  0
    7.8278   16.3011    2.3475 O   0  0  0  0  0  0  0  0  0  0  0  0
    8.8076   15.0434    3.9157 O   0  0  0  0  0  0  0  0  0  0  0  0
    5.9554   14.4576    1.6019 C   0  0  0  0  0  0  0  0  0  0  0  0
   12.8388    7.0539    2.5338 C   0  0  0  0  0  0  0  0  0  0  0  0
   12.2638    6.9011    1.1415 C   0  0  0  0  0  0  0  0  0  0  0  0
   12.9397    5.9150    0.3572 N   0  0  0  0  0  0  0  0  0  0  0  0
   12.4179    5.5544   -0.8665 C   0  0  0  0  0  0  0  0  0  0  0  0
   11.5745    6.2301   -1.4539 O   0  0  0  0  0  0  0  0  0  0  0  0
   13.0033    4.2574   -1.4582 C   0  0  1  0  0  0  0  0  0  0  0  0
   14.0839    4.4060   -1.5512 H   0  0  0  0  0  0  0  0  0  0  0  0
   12.6966    2.9922   -0.6038 C   0  0  0  0  0  0  0  0  0  0  0  0
   11.1594    2.8796   -0.3948 C   0  0  0  0  0  0  0  0  0  0  0  0
   10.6134    4.0687    0.2732 O   0  0  0  0  0  0  0  0  0  0  0  0
    8.9871    4.0420    0.5389 P   0  0  2  0  0  0  0  0  0  0  0  0
    8.6485    3.8927   -0.9604 O   0  0  0  0  0  0  0  0  0  0  0  0
    8.2501    5.5078    0.5510 O   0  0  0  0  0  0  0  0  0  0  0  0
    6.5963    5.4942    0.9343 P   0  0  2  0  0  0  0  0  0  0  0  0
    6.9633    4.9868    2.3459 O   0  0  0  0  0  0  0  0  0  0  0  0
    6.0278    3.9491    0.5143 O   0  0  0  0  0  0  0  0  0  0  0  0
    5.9405    2.9945    1.6329 C   0  0  0  0  0  0  0  0  0  0  0  0
    5.0000    1.8058    1.4479 C   0  0  1  0  0  0  0  0  0  0  0  0
    4.6271    1.7898    0.4197 H   0  0  0  0  0  0  0  0  0  0  0  0
    5.6341    0.5681    1.7313 O   0  0  0  0  0  0  0  0  0  0  0  0
    4.5770   -0.3799    2.0223 C   0  0  2  0  0  0  0  0  0  0  0  0
    4.1541   -0.7333    1.0754 H   0  0  0  0  0  0  0  0  0  0  0  0
    3.5551    0.4055    2.8416 C   0  0  1  0  0  0  0  0  0  0  0  0
    3.7047    0.2663    3.9209 H   0  0  0  0  0  0  0  0  0  0  0  0
    3.8840    1.8503    2.4919 C   0  0  2  0  0  0  0  0  0  0  0  0
    4.2014    2.3333    3.4257 H   0  0  0  0  0  0  0  0  0  0  0  0
    2.7910    2.5545    1.9641 O   0  0  0  0  0  0  0  0  0  0  0  0
    3.1769    4.1970    1.5816 P   0  0  0  0  0  0  0  0  0  0  0  0
    1.8932    4.3678    0.7913 O   0  0  0  0  0  0  0  0  0  0  0  0
    2.9677    4.5794    3.1412 O   0  0  0  0  0  0  0  0  0  0  0  0
    3.5628    5.8394    1.1990 O   0  0  0  0  0  0  0  0  0  0  0  0
    2.2034    0.0822    2.5363 O   0  0  0  0  0  0  0  0  0  0  0  0
    5.1146   -1.5410    2.7064 N   0  0  0  0  0  0  0  0  0  0  0  0
    4.4154   -2.4873    3.4145 C   0  0  0  0  0  0  0  0  0  0  0  0
    5.2063   -3.4166    3.9104 N   0  0  0  0  0  0  0  0  0  0  0  0
    6.4702   -3.0729    3.4735 C   0  0  0  0  0  0  0  0  0  0  0  0
    6.4259   -1.9231    2.7092 C   0  0  0  0  0  0  0  0  0  0  0  0
    7.4558   -1.3090    2.1114 N   0  0  0  0  0  0  0  0  0  0  0  0
    8.6121   -1.9363    2.3526 C   0  0  0  0  0  0  0  0  0  0  0  0
    8.8104   -3.0516    3.0817 N   0  0  0  0  0  0  0  0  0  0  0  0
    7.7380   -3.6470    3.6555 C   0  0  0  0  0  0  0  0  0  0  0  0
    7.9443   -4.7830    4.4006 N   0  0  0  0  0  0  0  0  0  0  0  0
    6.1850    6.0626   -0.6471 O   0  0  0  0  0  0  0  0  0  0  0  0
    9.3664    4.2092    2.2185 O   0  0  0  0  0  0  0  0  0  0  0  0
   13.2894    1.7617   -1.3450 C   0  0  0  0  0  0  0  0  0  0  0  0
   13.3713    3.0077    0.7802 C   0  0  0  0  0  0  0  0  0  0  0  0
   12.5217    4.0442   -2.7907 O   0  0  0  0  0  0  0  0  0  0  0  0
   10.9379    8.7022    1.7382 H   0  0  0  0  0  0  0  0  0  0  0  0
   11.4576   10.7948    3.5345 H   0  0  0  0  0  0  0  0  0  0  0  0
   10.2221    9.7322    4.2409 H   0  0  0  0  0  0  0  0  0  0  0  0
    8.8169   10.0051    2.1519 H   0  0  0  0  0  0  0  0  0  0  0  0
   10.0398   11.0961    1.4814 H   0  0  0  0  0  0  0  0  0  0  0  0
    8.8532   14.1459    4.3069 H   0  0  0  0  0  0  0  0  0  0  0  0
    5.2438   13.6513    1.3969 H   0  0  0  0  0  0  0  0  0  0  0  0
    6.4361   14.7279    0.6541 H   0  0  0  0  0  0  0  0  0  0  0  0
    5.3871   15.3308    1.9431 H   0  0  0  0  0  0  0  0  0  0  0  0
   12.6717    6.1415    3.1213 H   0  0  0  0  0  0  0  0  0  0  0  0
   13.9227    7.2073    2.4705 H   0  0  0  0  0  0  0  0  0  0  0  0
   12.3552    7.8310    0.5735 H   0  0  0  0  0  0  0  0  0  0  0  0
   11.1982    6.6379    1.2004 H   0  0  0  0  0  0  0  0  0  0  0  0
   13.6668    5.3685    0.7914 H   0  0  0  0  0  0  0  0  0  0  0  0
   10.9291    1.9868    0.2044 H   0  0  0  0  0  0  0  0  0  0  0  0
   10.6765    2.7400   -1.3705 H   0  0  0  0  0  0  0  0  0  0  0  0
    5.5328    3.5462    2.4908 H   0  0  0  0  0  0  0  0  0  0  0  0
    6.9487    2.6661    1.8977 H   0  0  0  0  0  0  0  0  0  0  0  0
    2.2788    4.0150    3.5421 H   0  0  0  0  0  0  0  0  0  0  0  0
    3.1567    5.9669    0.3161 H   0  0  0  0  0  0  0  0  0  0  0  0
    2.0111   -0.8338    2.7909 H   0  0  0  0  0  0  0  0  0  0  0  0
    3.3420   -2.4679    3.5580 H   0  0  0  0  0  0  0  0  0  0  0  0
    9.4903   -1.4799    1.9084 H   0  0  0  0  0  0  0  0  0  0  0  0
    8.8828   -5.1409    4.4700 H   0  0  0  0  0  0  0  0  0  0  0  0
    7.1516   -5.2461    4.8197 H   0  0  0  0  0  0  0  0  0  0  0  0
    5.2333    6.0245   -0.8265 H   0  0  0  0  0  0  0  0  0  0  0  0
    8.5191    4.4006    2.6856 H   0  0  0  0  0  0  0  0  0  0  0  0
   12.8558    1.6116   -2.3387 H   0  0  0  0  0  0  0  0  0  0  0  0
   13.1487    0.8351   -0.7783 H   0  0  0  0  0  0  0  0  0  0  0  0
   14.3737    1.8898   -1.4831 H   0  0  0  0  0  0  0  0  0  0  0  0
   12.9004    3.7174    1.4626 H   0  0  0  0  0  0  0  0  0  0  0  0
   14.4377    3.2440    0.6920 H   0  0  0  0  0  0  0  0  0  0  0  0
   13.2811    2.0377    1.2807 H   0  0  0  0  0  0  0  0  0  0  0  0
   12.4356    4.9260   -3.2007 H   0  0  0  0  0  0  0  0  0  0  0  0
  1  2  2  0  0  0  0
  2  3  1  0  0  0  0
  2 15  1  0  0  0  0
  3  4  1  0  0  0  0
  3 62  1  0  0  0  0
  4  5  1  0  0  0  0
  4 63  1  0  0  0  0
  4 64  1  0  0  0  0
  5  6  1  0  0  0  0
  5 65  1  0  0  0  0
  5 66  1  0  0  0  0
  6  7  1  0  0  0  0
  7  8  2  0  0  0  0
  7  9  1  0  0  0  0
  9 10  1  1  0  0  0
  9 11  1  0  0  0  0
  9 14  1  0  0  0  0
 11 12  2  0  0  0  0
 11 13  1  0  0  0  0
 13 67  1  0  0  0  0
 14 68  1  0  0  0  0
 14 69  1  0  0  0  0
 14 70  1  0  0  0  0
 15 16  1  0  0  0  0
 15 71  1  0  0  0  0
 15 72  1  0  0  0  0
 16 17  1  0  0  0  0
 16 73  1  0  0  0  0
 16 74  1  0  0  0  0
 17 18  1  0  0  0  0
 17 75  1  0  0  0  0
 18 19  2  0  0  0  0
 18 20  1  0  0  0  0
 20 21  1  6  0  0  0
 20 22  1  0  0  0  0
 20 61  1  0  0  0  0
 22 23  1  0  0  0  0
 22 59  1  0  0  0  0
 22 60  1  0  0  0  0
 23 24  1  0  0  0  0
 23 76  1  0  0  0  0
 23 77  1  0  0  0  0
 25 27  1  6  0  0  0
 25 58  1  0  0  0  0
 25 26  2  0  0  0  0
 25 24  1  0  0  0  0
 28 30  1  6  0  0  0
 28 57  1  0  0  0  0
 28 29  2  0  0  0  0
 28 27  1  0  0  0  0
 30 31  1  0  0  0  0
 31 32  1  0  0  0  0
 31 78  1  0  0  0  0
 31 79  1  0  0  0  0
 32 33  1  6  0  0  0
 32 34  1  0  0  0  0
 32 39  1  0  0  0  0
 34 35  1  0  0  0  0
 35 37  1  0  0  0  0
 35 47  1  0  0  0  0
 35 36  1  6  0  0  0
 37 38  1  1  0  0  0
 37 39  1  0  0  0  0
 37 46  1  0  0  0  0
 39 40  1  1  0  0  0
 39 41  1  0  0  0  0
 41 42  1  0  0  0  0
 42 43  2  0  0  0  0
 42 44  1  0  0  0  0
 42 45  1  0  0  0  0
 44 80  1  0  0  0  0
 45 81  1  0  0  0  0
 46 82  1  0  0  0  0
 47 48  1  0  0  0  0
 47 51  1  0  0  0  0
 48 49  2  0  0  0  0
 48 83  1  0  0  0  0
 49 50  1  0  0  0  0
 50 51  2  0  0  0  0
 50 55  1  0  0  0  0
 51 52  1  0  0  0  0
 52 53  2  0  0  0  0
 53 54  1  0  0  0  0
 53 84  1  0  0  0  0
 54 55  2  0  0  0  0
 55 56  1  0  0  0  0
 56 85  1  0  0  0  0
 56 86  1  0  0  0  0
 57 87  1  0  0  0  0
 58 88  1  0  0  0  0
 59 89  1  0  0  0  0
 59 90  1  0  0  0  0
 59 91  1  0  0  0  0
 60 92  1  0  0  0  0
 60 93  1  0  0  0  0
 60 94  1  0  0  0  0
 61 95  1  0  0  0  0
M  END
$$$$
