MCF
 OpenBabel04121316153D

 39 41  0  0  1  0  0  0  0  0999 V2000
    0.8044    0.0958   -0.0294 C   0  0  0  0  0  0  0  0  0  0  0  0
    2.5707   -0.1243    0.0745 S   0  0  0  0  0  0  0  0  0  0  0  0
    3.2751    1.5504   -0.2678 C   0  0  0  0  0  0  0  0  0  0  0  0
    4.8335    1.5366   -0.2792 C   0  0  1  0  0  0  0  0  0  0  0  0
    5.1651    2.1267   -1.1479 H   0  0  0  0  0  0  0  0  0  0  0  0
    5.3743    2.1965    0.8745 O   0  0  0  0  0  0  0  0  0  0  0  0
    6.7492    1.7594    1.0130 C   0  0  2  0  0  0  0  0  0  0  0  0
    7.4000    2.3425    0.3478 H   0  0  0  0  0  0  0  0  0  0  0  0
    6.7313    0.2846    0.6112 C   0  0  1  0  0  0  0  0  0  0  0  0
    6.5564   -0.3458    1.4933 H   0  0  0  0  0  0  0  0  0  0  0  0
    5.5042    0.1638   -0.2805 C   0  0  2  0  0  0  0  0  0  0  0  0
    4.9200   -0.6086    0.2129 H   0  0  0  0  0  0  0  0  0  0  0  0
    5.7545   -0.2856   -1.6029 O   0  0  0  0  0  0  0  0  0  0  0  0
    7.8936   -0.2080   -0.0485 O   0  0  0  0  0  0  0  0  0  0  0  0
    7.2072    2.0280    2.3713 N   0  0  0  0  0  0  0  0  0  0  0  0
    8.0176    1.2439    3.1518 C   0  0  0  0  0  0  0  0  0  0  0  0
    8.2930    1.8079    4.3076 N   0  0  0  0  0  0  0  0  0  0  0  0
    7.6274    3.0178    4.2764 C   0  0  0  0  0  0  0  0  0  0  0  0
    6.9892    3.1958    3.0610 C   0  0  0  0  0  0  0  0  0  0  0  0
    6.2778    4.2291    2.5312 N   0  0  0  0  0  0  0  0  0  0  0  0
    6.7140    5.3987    2.8128 C   0  0  0  0  0  0  0  0  0  0  0  0
    7.7804    5.7491    3.6066 N   0  0  0  0  0  0  0  0  0  0  0  0
    7.7016    5.4712    5.0403 C   0  0  0  0  0  0  0  0  0  0  0  0
    7.5993    3.9658    5.4354 C   0  0  1  0  0  0  0  0  0  0  0  0
    8.4339    3.7398    6.1096 H   0  0  0  0  0  0  0  0  0  0  0  0
    6.3996    3.7449    6.2047 O   0  0  0  0  0  0  0  0  0  0  0  0
    0.3769   -0.8980    0.1439 H   0  0  0  0  0  0  0  0  0  0  0  0
    0.4894    0.4314   -1.0179 H   0  0  0  0  0  0  0  0  0  0  0  0
    0.4520    0.7604    0.7584 H   0  0  0  0  0  0  0  0  0  0  0  0
    2.9047    2.2633    0.4787 H   0  0  0  0  0  0  0  0  0  0  0  0
    2.9197    1.8812   -1.2521 H   0  0  0  0  0  0  0  0  0  0  0  0
    6.2144   -1.1382   -1.4978 H   0  0  0  0  0  0  0  0  0  0  0  0
    8.6581   -0.0959    0.5396 H   0  0  0  0  0  0  0  0  0  0  0  0
    8.3778    0.2683    2.8511 H   0  0  0  0  0  0  0  0  0  0  0  0
    6.2043    6.2777    2.3749 H   0  0  0  0  0  0  0  0  0  0  0  0
    8.2663    6.6014    3.3638 H   0  0  0  0  0  0  0  0  0  0  0  0
    6.8517    6.0305    5.4567 H   0  0  0  0  0  0  0  0  0  0  0  0
    8.5927    5.9010    5.5122 H   0  0  0  0  0  0  0  0  0  0  0  0
    6.2645    4.5018    6.7927 H   0  0  0  0  0  0  0  0  0  0  0  0
  1  2  1  0  0  0  0
  1 27  1  0  0  0  0
  1 28  1  0  0  0  0
  1 29  1  0  0  0  0
  2  3  1  0  0  0  0
  3  4  1  0  0  0  0
  3 30  1  0  0  0  0
  3 31  1  0  0  0  0
  4  5  1  6  0  0  0
  4  6  1  0  0  0  0
  4 11  1  0  0  0  0
  6  7  1  0  0  0  0
  7  9  1  0  0  0  0
  7 15  1  0  0  0  0
  7  8  1  6  0  0  0
  9 10  1  1  0  0  0
  9 11  1  0  0  0  0
  9 14  1  0  0  0  0
 11 12  1  1  0  0  0
 11 13  1  0  0  0  0
 13 32  1  0  0  0  0
 14 33  1  0  0  0  0
 15 16  1  0  0  0  0
 15 19  1  0  0  0  0
 16 17  2  0  0  0  0
 16 34  1  0  0  0  0
 17 18  1  0  0  0  0
 18 19  2  0  0  0  0
 18 24  1  0  0  0  0
 19 20  1  0  0  0  0
 20 21  2  0  0  0  0
 21 22  1  0  0  0  0
 21 35  1  0  0  0  0
 22 23  1  0  0  0  0
 22 36  1  0  0  0  0
 23 24  1  0  0  0  0
 23 37  1  0  0  0  0
 23 38  1  0  0  0  0
 24 25  1  1  0  0  0
 24 26  1  0  0  0  0
 26 39  1  0  0  0  0
M  END
$$$$
