MCV
 OpenBabel04121316153D

 41 43  0  0  0  0  0  0  0  0999 V2000
    0.9262    0.2300    0.7430 C   0  0  0  0  0  0  0  0  0  0  0  0
    2.3070    0.2122    0.3504 O   0  0  0  0  0  0  0  0  0  0  0  0
    2.9882   -0.8252    0.9189 C   0  0  0  0  0  0  0  0  0  0  0  0
    4.0670   -0.4669    1.7221 C   0  0  0  0  0  0  0  0  0  0  0  0
    4.8005   -1.4478    2.3840 C   0  0  0  0  0  0  0  0  0  0  0  0
    4.4059   -2.7820    2.3098 C   0  0  0  0  0  0  0  0  0  0  0  0
    3.3120   -3.1276    1.5129 C   0  0  0  0  0  0  0  0  0  0  0  0
    2.6792   -2.1689    0.7023 C   0  0  0  0  0  0  0  0  0  0  0  0
    1.7357   -2.6688   -0.3659 C   0  0  0  0  0  0  0  0  0  0  0  0
    1.4260   -1.7143   -1.5372 C   0  0  0  0  0  0  0  0  0  0  0  0
    0.2932   -2.1467   -2.3955 C   0  0  0  0  0  0  0  0  0  0  0  0
    0.0076   -3.4773   -2.6291 C   0  0  0  0  0  0  0  0  0  0  0  0
   -1.2737   -3.6844   -3.7136 S   0  0  0  0  0  0  0  0  0  0  0  0
   -1.5185   -2.0060   -3.8180 C   0  0  0  0  0  0  0  0  0  0  0  0
   -0.6765   -1.2528   -3.0248 C   0  0  0  0  0  0  0  0  0  0  0  0
   -0.9532    0.1423   -3.0144 C   0  0  0  0  0  0  0  0  0  0  0  0
   -0.3195    1.0992   -2.2318 N   0  0  0  0  0  0  0  0  0  0  0  0
   -1.9378    0.6155   -3.8119 N   0  0  0  0  0  0  0  0  0  0  0  0
   -2.6143   -0.2358   -4.5842 C   0  0  0  0  0  0  0  0  0  0  0  0
   -2.4830   -1.5466   -4.6235 N   0  0  0  0  0  0  0  0  0  0  0  0
   -3.5474    0.2736   -5.4491 N   0  0  0  0  0  0  0  0  0  0  0  0
    5.1718   -3.6598    3.0270 O   0  0  0  0  0  0  0  0  0  0  0  0
    4.8116   -5.0318    2.9137 C   0  0  0  0  0  0  0  0  0  0  0  0
    0.4340    0.9328    0.0725 H   0  0  0  0  0  0  0  0  0  0  0  0
    0.8015    0.5723    1.7636 H   0  0  0  0  0  0  0  0  0  0  0  0
    0.4090   -0.7330    0.6368 H   0  0  0  0  0  0  0  0  0  0  0  0
    4.3269    0.5815    1.8321 H   0  0  0  0  0  0  0  0  0  0  0  0
    5.6640   -1.1649    2.9792 H   0  0  0  0  0  0  0  0  0  0  0  0
    2.9427   -4.1490    1.4841 H   0  0  0  0  0  0  0  0  0  0  0  0
    0.8160   -3.0092    0.1279 H   0  0  0  0  0  0  0  0  0  0  0  0
    2.2022   -3.5614   -0.8086 H   0  0  0  0  0  0  0  0  0  0  0  0
    2.3268   -1.4683   -2.1092 H   0  0  0  0  0  0  0  0  0  0  0  0
    1.0713   -0.7637   -1.2014 H   0  0  0  0  0  0  0  0  0  0  0  0
    0.5132   -4.3361   -2.2073 H   0  0  0  0  0  0  0  0  0  0  0  0
    0.6693    0.9759   -2.0681 H   0  0  0  0  0  0  0  0  0  0  0  0
   -0.6038    2.0496   -2.4456 H   0  0  0  0  0  0  0  0  0  0  0  0
   -3.6999    1.2603   -5.4837 H   0  0  0  0  0  0  0  0  0  0  0  0
   -4.0138   -0.4017   -6.0288 H   0  0  0  0  0  0  0  0  0  0  0  0
    5.5444   -5.6252    3.4662 H   0  0  0  0  0  0  0  0  0  0  0  0
    4.8326   -5.3673    1.8702 H   0  0  0  0  0  0  0  0  0  0  0  0
    3.8280   -5.2038    3.3630 H   0  0  0  0  0  0  0  0  0  0  0  0
  1  2  1  0  0  0  0
  1 24  1  0  0  0  0
  1 25  1  0  0  0  0
  1 26  1  0  0  0  0
  2  3  1  0  0  0  0
  3  4  2  0  0  0  0
  3  8  1  0  0  0  0
  4  5  1  0  0  0  0
  4 27  1  0  0  0  0
  5  6  2  0  0  0  0
  5 28  1  0  0  0  0
  6  7  1  0  0  0  0
  6 22  1  0  0  0  0
  7  8  2  0  0  0  0
  7 29  1  0  0  0  0
  8  9  1  0  0  0  0
  9 10  1  0  0  0  0
  9 30  1  0  0  0  0
  9 31  1  0  0  0  0
 10 11  1  0  0  0  0
 10 32  1  0  0  0  0
 10 33  1  0  0  0  0
 11 12  2  0  0  0  0
 11 15  1  0  0  0  0
 12 13  1  0  0  0  0
 12 34  1  0  0  0  0
 13 14  1  0  0  0  0
 14 15  2  0  0  0  0
 14 20  1  0  0  0  0
 15 16  1  0  0  0  0
 16 17  1  0  0  0  0
 16 18  2  0  0  0  0
 17 35  1  0  0  0  0
 17 36  1  0  0  0  0
 18 19  1  0  0  0  0
 19 20  2  0  0  0  0
 19 21  1  0  0  0  0
 21 37  1  0  0  0  0
 21 38  1  0  0  0  0
 22 23  1  0  0  0  0
 23 39  1  0  0  0  0
 23 40  1  0  0  0  0
 23 41  1  0  0  0  0
M  END
$$$$
