MD1
 OpenBabel04121316153D

 73 77  0  0  1  0  0  0  0  0999 V2000
    7.9507  -15.5378    1.5423 N   0  0  0  0  0  0  0  0  0  0  0  0
    8.8764  -15.2413    2.4628 C   0  0  0  0  0  0  0  0  0  0  0  0
    8.5178  -14.6216    3.5457 N   0  0  0  0  0  0  0  0  0  0  0  0
    9.4734  -14.4040    4.4817 C   0  0  0  0  0  0  0  0  0  0  0  0
    8.9450  -14.1290    5.7060 N   0  0  0  0  0  0  0  0  0  0  0  0
    9.8056  -13.9736    6.6694 C   0  0  0  0  0  0  0  0  0  0  0  0
   11.4063  -13.7409    6.5411 C   0  0  1  0  0  0  0  0  0  0  0  0
   11.8055  -14.3183    7.3875 H   0  0  0  0  0  0  0  0  0  0  0  0
   11.7560  -14.4176    5.3088 N   0  0  0  0  0  0  0  0  0  0  0  0
   10.8012  -14.6266    4.3293 C   0  0  0  0  0  0  0  0  0  0  0  0
   11.1775  -15.3126    3.0805 C   0  0  0  0  0  0  0  0  0  0  0  0
   12.3528  -15.6574    2.8753 O   0  0  0  0  0  0  0  0  0  0  0  0
   10.1635  -15.6004    2.2291 N   0  0  0  0  0  0  0  0  0  0  0  0
   10.4086  -16.1070    1.3945 H   0  0  0  0  0  0  0  0  0  0  0  0
   12.1908  -12.3338    6.5514 C   0  0  0  0  0  0  0  0  0  0  0  0
   11.6916  -11.0741    6.7582 C   0  0  0  0  0  0  0  0  0  0  0  0
   10.2652  -10.7593    7.0852 C   0  0  1  0  0  0  0  0  0  0  0  0
   10.1573  -10.1310    7.9644 H   0  0  0  0  0  0  0  0  0  0  0  0
    9.4986  -10.2016    5.9596 C   0  0  0  0  0  0  0  0  0  0  0  0
    9.5132   -8.7755    6.0960 O   0  0  0  0  0  0  0  0  0  0  0  0
    9.0795   -8.0812    4.7001 P   0  0  2  0  0  0  0  0  0  0  0  0
   10.2256   -7.0476    4.6483 O   0  0  0  0  0  0  0  0  0  0  0  0
    7.9638   -6.8493    5.0699 O   0  0  0  0  0  0  0  0  0  0  0  0
    8.2262   -5.1329    5.3321 P   0  0  2  0  0  0  0  0  0  0  0  0
    6.9322   -5.0118    6.1661 O   0  0  0  0  0  0  0  0  0  0  0  0
    7.5344   -4.3632    4.0150 O   0  0  0  0  0  0  0  0  0  0  0  0
    6.2908   -3.7096    4.3537 C   0  0  0  0  0  0  0  0  0  0  0  0
    5.6644   -2.7777    3.3442 C   0  0  1  0  0  0  0  0  0  0  0  0
    5.7941   -1.7406    3.6930 H   0  0  0  0  0  0  0  0  0  0  0  0
    6.2059   -2.9005    2.0215 O   0  0  0  0  0  0  0  0  0  0  0  0
    5.1593   -2.4172    1.1594 C   0  0  2  0  0  0  0  0  0  0  0  0
    5.2180   -1.3229    1.1110 H   0  0  0  0  0  0  0  0  0  0  0  0
    3.8505   -2.9048    1.7909 C   0  0  1  0  0  0  0  0  0  0  0  0
    3.5646   -3.8804    1.3754 H   0  0  0  0  0  0  0  0  0  0  0  0
    4.1746   -3.1184    3.2491 C   0  0  2  0  0  0  0  0  0  0  0  0
    3.9870   -4.1752    3.4751 H   0  0  0  0  0  0  0  0  0  0  0  0
    3.3660   -2.3700    4.1440 O   0  0  0  0  0  0  0  0  0  0  0  0
    2.7625   -2.0017    1.6156 O   0  0  0  0  0  0  0  0  0  0  0  0
    5.3247   -2.9033   -0.2027 N   0  0  0  0  0  0  0  0  0  0  0  0
    6.4899   -3.2706   -0.8268 C   0  0  0  0  0  0  0  0  0  0  0  0
    6.2826   -3.6528   -2.0738 N   0  0  0  0  0  0  0  0  0  0  0  0
    4.9328   -3.5060   -2.2629 C   0  0  0  0  0  0  0  0  0  0  0  0
    4.3188   -3.0169   -1.1353 C   0  0  0  0  0  0  0  0  0  0  0  0
    2.9992   -2.7374   -0.9573 N   0  0  0  0  0  0  0  0  0  0  0  0
    2.2542   -3.0085   -1.9967 C   0  0  0  0  0  0  0  0  0  0  0  0
    0.9172   -2.8055   -1.9559 N   0  0  0  0  0  0  0  0  0  0  0  0
    2.7599   -3.5068   -3.1788 N   0  0  0  0  0  0  0  0  0  0  0  0
    2.1484   -3.6894   -3.9555 H   0  0  0  0  0  0  0  0  0  0  0  0
    4.1014   -3.7786   -3.4141 C   0  0  0  0  0  0  0  0  0  0  0  0
    4.4914   -4.2067   -4.4975 O   0  0  0  0  0  0  0  0  0  0  0  0
    9.6759   -5.2685    4.3978 O   0  0  0  0  0  0  0  0  0  0  0  0
    7.7955   -9.2392    4.7580 O   0  0  0  0  0  0  0  0  0  0  0  0
    9.5898  -11.8916    7.5007 O   0  0  0  0  0  0  0  0  0  0  0  0
   12.6524   -9.5720    6.8259 S   0  0  0  0  0  0  0  0  0  0  0  0
   13.9849  -12.4348    6.3504 S   0  0  0  0  0  0  0  0  0  0  0  0
    6.9926  -15.2780    1.7511 H   0  0  0  0  0  0  0  0  0  0  0  0
    8.1432  -16.0459    0.6941 H   0  0  0  0  0  0  0  0  0  0  0  0
    9.3462  -13.9473    7.6791 H   0  0  0  0  0  0  0  0  0  0  0  0
   12.7201  -14.5858    5.0426 H   0  0  0  0  0  0  0  0  0  0  0  0
    8.4693  -10.5445    6.1193 H   0  0  0  0  0  0  0  0  0  0  0  0
    9.7962  -10.5751    4.9555 H   0  0  0  0  0  0  0  0  0  0  0  0
    6.3785   -3.1237    5.2880 H   0  0  0  0  0  0  0  0  0  0  0  0
    5.5878   -4.5254    4.5567 H   0  0  0  0  0  0  0  0  0  0  0  0
    2.4465   -2.5171    3.8443 H   0  0  0  0  0  0  0  0  0  0  0  0
    2.6611   -1.9321    0.6399 H   0  0  0  0  0  0  0  0  0  0  0  0
    7.4569   -3.2451   -0.3369 H   0  0  0  0  0  0  0  0  0  0  0  0
    0.4955   -2.4477   -1.1070 H   0  0  0  0  0  0  0  0  0  0  0  0
    0.3016   -2.9802   -2.7369 H   0  0  0  0  0  0  0  0  0  0  0  0
   10.1265   -4.4140    4.3212 H   0  0  0  0  0  0  0  0  0  0  0  0
    7.0762   -8.9375    4.1730 H   0  0  0  0  0  0  0  0  0  0  0  0
   10.2203  -12.2843    8.1131 H   0  0  0  0  0  0  0  0  0  0  0  0
   13.8625  -10.0622    6.5524 H   0  0  0  0  0  0  0  0  0  0  0  0
   14.2089  -13.7363    6.1602 H   0  0  0  0  0  0  0  0  0  0  0  0
  1  2  1  0  0  0  0
  1 56  1  0  0  0  0
  1 57  1  0  0  0  0
  2  3  2  0  0  0  0
  2 13  1  0  0  0  0
  3  4  1  0  0  0  0
  4  5  1  0  0  0  0
  4 10  2  0  0  0  0
  5  6  2  0  0  0  0
  6  7  1  0  0  0  0
  6 58  1  0  0  0  0
  7  8  1  1  0  0  0
  7  9  1  0  0  0  0
  7 15  1  0  0  0  0
  9 10  1  0  0  0  0
  9 59  1  0  0  0  0
 10 11  1  0  0  0  0
 11 12  2  0  0  0  0
 11 13  1  0  0  0  0
 13 14  1  0  0  0  0
 15 16  2  0  0  0  0
 15 55  1  0  0  0  0
 16 17  1  0  0  0  0
 16 54  1  0  0  0  0
 17 18  1  1  0  0  0
 17 19  1  0  0  0  0
 17 53  1  0  0  0  0
 19 20  1  0  0  0  0
 19 60  1  0  0  0  0
 19 61  1  0  0  0  0
 21 23  1  1  0  0  0
 21 52  1  0  0  0  0
 21 22  2  0  0  0  0
 21 20  1  0  0  0  0
 24 26  1  6  0  0  0
 24 51  1  0  0  0  0
 24 25  2  0  0  0  0
 24 23  1  0  0  0  0
 26 27  1  0  0  0  0
 27 28  1  0  0  0  0
 27 62  1  0  0  0  0
 27 63  1  0  0  0  0
 28 29  1  1  0  0  0
 28 30  1  0  0  0  0
 28 35  1  0  0  0  0
 30 31  1  0  0  0  0
 31 33  1  0  0  0  0
 31 39  1  0  0  0  0
 31 32  1  6  0  0  0
 33 34  1  6  0  0  0
 33 35  1  0  0  0  0
 33 38  1  0  0  0  0
 35 36  1  1  0  0  0
 35 37  1  0  0  0  0
 37 64  1  0  0  0  0
 38 65  1  0  0  0  0
 39 40  1  0  0  0  0
 39 43  1  0  0  0  0
 40 41  2  0  0  0  0
 40 66  1  0  0  0  0
 41 42  1  0  0  0  0
 42 43  2  0  0  0  0
 42 49  1  0  0  0  0
 43 44  1  0  0  0  0
 44 45  2  0  0  0  0
 45 46  1  0  0  0  0
 45 47  1  0  0  0  0
 46 67  1  0  0  0  0
 46 68  1  0  0  0  0
 47 48  1  0  0  0  0
 47 49  1  0  0  0  0
 49 50  2  0  0  0  0
 51 69  1  0  0  0  0
 52 70  1  0  0  0  0
 53 71  1  0  0  0  0
 54 72  1  0  0  0  0
 55 73  1  0  0  0  0
M  END
$$$$
