MDE
 OpenBabel04121316153D

118120  0  0  1  0  0  0  0  0999 V2000
   23.8833  -14.9407   15.7832 C   0  0  0  0  0  0  0  0  0  0  0  0
   24.8030  -13.9430   16.4516 C   0  0  0  0  0  0  0  0  0  0  0  0
   25.0024  -14.3066   17.9247 C   0  0  0  0  0  0  0  0  0  0  0  0
   25.9330  -13.2916   18.5585 C   0  0  0  0  0  0  0  0  0  0  0  0
   26.0972  -13.4560   20.0758 C   0  0  0  0  0  0  0  0  0  0  0  0
   27.0129  -12.3963   20.7502 C   0  0  2  0  0  0  0  0  0  0  0  0
   27.9714  -12.8727   20.9927 H   0  0  0  0  0  0  0  0  0  0  0  0
   26.3492  -11.7122   22.3454 S   0  0  0  0  0  0  0  0  0  0  0  0
   26.0005  -13.1910   23.3341 C   0  0  0  0  0  0  0  0  0  0  0  0
   25.3288  -12.7444   24.6154 C   0  0  0  0  0  0  0  0  0  0  0  0
   25.0326  -13.5190   25.5227 O   0  0  0  0  0  0  0  0  0  0  0  0
   27.3083  -11.1482   19.8684 C   0  0  0  0  0  0  0  0  0  0  0  0
   26.0598  -10.3769   19.4987 C   0  0  0  0  0  0  0  0  0  0  0  0
   25.9908   -9.4236   18.5615 C   0  0  0  0  0  0  0  0  0  0  0  0
   24.6631   -8.8599   18.2037 C   0  0  0  0  0  0  0  0  0  0  0  0
   23.5978   -9.2722   18.6353 O   0  0  0  0  0  0  0  0  0  0  0  0
   24.7843   -7.5406   17.0634 S   0  0  0  0  0  0  0  0  0  0  0  0
   23.0318   -7.0762   16.9324 C   0  0  0  0  0  0  0  0  0  0  0  0
   22.9165   -5.8736   15.9984 C   0  0  0  0  0  0  0  0  0  0  0  0
   21.5489   -5.3932   15.8414 N   0  0  0  0  0  0  0  0  0  0  0  0
   21.2837   -4.2106   15.1893 C   0  0  0  0  0  0  0  0  0  0  0  0
   22.1922   -3.4976   14.7478 O   0  0  0  0  0  0  0  0  0  0  0  0
   19.7892   -3.8589   15.0846 C   0  0  0  0  0  0  0  0  0  0  0  0
   19.5766   -2.5671   14.2930 C   0  0  0  0  0  0  0  0  0  0  0  0
   18.2682   -2.0663   13.8869 N   0  0  0  0  0  0  0  0  0  0  0  0
   18.4245   -1.0774   12.7792 C   0  0  1  0  0  0  0  0  0  0  0  0
   19.0699   -0.2510   13.0912 H   0  0  0  0  0  0  0  0  0  0  0  0
   18.9584   -1.6675   11.3641 C   0  0  0  0  0  0  0  0  0  0  0  0
   18.1955   -1.6991   10.3849 O   0  0  0  0  0  0  0  0  0  0  0  0
   20.4816   -2.0354   11.1237 C   0  0  0  0  0  0  0  0  0  0  0  0
   21.3096   -0.8853   11.6907 C   0  0  0  0  0  0  0  0  0  0  0  0
   20.9544    0.4484   11.2240 O   0  0  0  0  0  0  0  0  0  0  0  0
   22.0439    1.6602   11.6604 P   0  0  2  0  0  0  0  0  0  0  0  0
   22.6006    0.8185   12.8293 O   0  0  0  0  0  0  0  0  0  0  0  0
   21.2171    2.5607   12.7652 O   0  0  0  0  0  0  0  0  0  0  0  0
   21.6239    2.1217   14.3732 P   0  0  2  0  0  0  0  0  0  0  0  0
   20.6774    3.1758   14.9879 O   0  0  0  0  0  0  0  0  0  0  0  0
   22.9476    3.2784   14.7090 O   0  0  0  0  0  0  0  0  0  0  0  0
   22.6068    4.4319   15.7140 C   0  0  0  0  0  0  0  0  0  0  0  0
   23.7808    4.8299   16.6801 C   0  0  1  0  0  0  0  0  0  0  0  0
   24.6951    4.8727   16.0838 H   0  0  0  0  0  0  0  0  0  0  0  0
   23.5072    6.1564   17.2184 O   0  0  0  0  0  0  0  0  0  0  0  0
   24.4189    6.3027   18.3113 C   0  0  2  0  0  0  0  0  0  0  0  0
   25.3986    6.5689   17.8972 H   0  0  0  0  0  0  0  0  0  0  0  0
   24.4806    4.9602   19.0305 C   0  0  1  0  0  0  0  0  0  0  0  0
   23.7699    4.9063   19.8668 H   0  0  0  0  0  0  0  0  0  0  0  0
   24.0272    3.9710   17.9773 C   0  0  2  0  0  0  0  0  0  0  0  0
   23.0742    3.5767   18.3612 H   0  0  0  0  0  0  0  0  0  0  0  0
   24.9707    2.8956   17.8920 O   0  0  0  0  0  0  0  0  0  0  0  0
   24.4714    1.6846   16.7619 P   0  0  0  0  0  0  0  0  0  0  0  0
   24.5805    0.5775   17.8002 O   0  0  0  0  0  0  0  0  0  0  0  0
   22.9297    2.0802   16.7781 O   0  0  0  0  0  0  0  0  0  0  0  0
   23.9721    0.4737   15.6318 O   0  0  0  0  0  0  0  0  0  0  0  0
   25.7944    4.7192   19.5301 O   0  0  0  0  0  0  0  0  0  0  0  0
   24.0025    7.4068   19.1525 N   0  3  0  0  0  0  0  0  0  0  0  0
   23.3664    8.5031   18.7207 C   0  0  0  0  0  0  0  0  0  0  0  0
   23.2404    9.3399   19.7574 N   0  0  0  0  0  0  0  0  0  0  0  0
   22.8071   10.2575   19.7187 H   0  0  0  0  0  0  0  0  0  0  0  0
   23.7837    8.7679   20.8922 C   0  0  0  0  0  0  0  0  0  0  0  0
   24.2813    7.5435   20.4988 C   0  0  0  0  0  0  0  0  0  0  0  0
   24.9244    6.6371   21.3037 N   0  0  0  0  0  0  0  0  0  0  0  0
   24.9845    7.0618   22.5807 C   0  0  0  0  0  0  0  0  0  0  0  0
   24.5329    8.2478   23.0603 N   0  0  0  0  0  0  0  0  0  0  0  0
   23.9322    9.1421   22.2266 C   0  0  0  0  0  0  0  0  0  0  0  0
   23.5167   10.3427   22.7413 N   0  0  0  0  0  0  0  0  0  0  0  0
   22.6842    0.9408   13.6846 O   0  0  0  0  0  0  0  0  0  0  0  0
   21.4203    2.6032   10.3509 O   0  0  0  0  0  0  0  0  0  0  0  0
   20.9920   -3.4084   11.6586 C   0  0  0  0  0  0  0  0  0  0  0  0
   20.7711   -2.2067    9.6240 C   0  0  0  0  0  0  0  0  0  0  0  0
   17.1514   -0.4782   12.5913 O   0  0  0  0  0  0  0  0  0  0  0  0
   23.7522  -14.6913   14.7271 H   0  0  0  0  0  0  0  0  0  0  0  0
   22.9008  -14.9367   16.2653 H   0  0  0  0  0  0  0  0  0  0  0  0
   24.3009  -15.9492   15.8546 H   0  0  0  0  0  0  0  0  0  0  0  0
   24.3731  -12.9361   16.3631 H   0  0  0  0  0  0  0  0  0  0  0  0
   25.7695  -13.9205   15.9334 H   0  0  0  0  0  0  0  0  0  0  0  0
   25.4204  -15.3130   18.0231 H   0  0  0  0  0  0  0  0  0  0  0  0
   24.0337  -14.2895   18.4385 H   0  0  0  0  0  0  0  0  0  0  0  0
   25.4784  -12.3279   18.3322 H   0  0  0  0  0  0  0  0  0  0  0  0
   26.9090  -13.3222   18.0609 H   0  0  0  0  0  0  0  0  0  0  0  0
   26.5247  -14.4503   20.2658 H   0  0  0  0  0  0  0  0  0  0  0  0
   25.1006  -13.4620   20.5304 H   0  0  0  0  0  0  0  0  0  0  0  0
   26.9363  -13.6943   23.5853 H   0  0  0  0  0  0  0  0  0  0  0  0
   25.3170  -13.8633   22.8119 H   0  0  0  0  0  0  0  0  0  0  0  0
   25.0775  -11.6717   24.7071 H   0  0  0  0  0  0  0  0  0  0  0  0
   27.8259  -11.4730   18.9558 H   0  0  0  0  0  0  0  0  0  0  0  0
   28.0097  -10.4827   20.3856 H   0  0  0  0  0  0  0  0  0  0  0  0
   25.1284  -10.7041   19.9658 H   0  0  0  0  0  0  0  0  0  0  0  0
   26.8729   -9.0769   18.0401 H   0  0  0  0  0  0  0  0  0  0  0  0
   22.6372   -6.8198   17.9220 H   0  0  0  0  0  0  0  0  0  0  0  0
   22.4489   -7.9183   16.5428 H   0  0  0  0  0  0  0  0  0  0  0  0
   23.2965   -6.1224   14.9986 H   0  0  0  0  0  0  0  0  0  0  0  0
   23.5176   -5.0376   16.3781 H   0  0  0  0  0  0  0  0  0  0  0  0
   20.7813   -5.9274   16.2301 H   0  0  0  0  0  0  0  0  0  0  0  0
   19.3813   -3.7774   16.0908 H   0  0  0  0  0  0  0  0  0  0  0  0
   19.3025   -4.6857   14.5507 H   0  0  0  0  0  0  0  0  0  0  0  0
   19.8793   -2.8908   13.3420 H   0  0  0  0  0  0  0  0  0  0  0  0
   20.2438   -1.7636   14.6216 H   0  0  0  0  0  0  0  0  0  0  0  0
   17.8300   -1.6141   14.6852 H   0  0  0  0  0  0  0  0  0  0  0  0
   22.3746   -1.0805   11.5002 H   0  0  0  0  0  0  0  0  0  0  0  0
   21.1610   -0.8860   12.7745 H   0  0  0  0  0  0  0  0  0  0  0  0
   21.8061    4.1212   16.4041 H   0  0  0  0  0  0  0  0  0  0  0  0
   22.2063    5.2799   15.1436 H   0  0  0  0  0  0  0  0  0  0  0  0
   23.0176    2.5130   15.9143 H   0  0  0  0  0  0  0  0  0  0  0  0
   24.2898   -0.3593   16.0634 H   0  0  0  0  0  0  0  0  0  0  0  0
   25.8998    5.2620   20.3359 H   0  0  0  0  0  0  0  0  0  0  0  0
   23.0280    8.6932   17.7078 H   0  0  0  0  0  0  0  0  0  0  0  0
   25.4391    6.3839   23.3012 H   0  0  0  0  0  0  0  0  0  0  0  0
   23.6832   10.4995   23.7291 H   0  0  0  0  0  0  0  0  0  0  0  0
   23.0655   11.0613   22.2007 H   0  0  0  0  0  0  0  0  0  0  0  0
   23.1478    0.4181   14.3616 H   0  0  0  0  0  0  0  0  0  0  0  0
   21.7494    3.5164   10.4035 H   0  0  0  0  0  0  0  0  0  0  0  0
   21.4176   -3.3316   12.6533 H   0  0  0  0  0  0  0  0  0  0  0  0
   21.8617   -3.8064   11.1251 H   0  0  0  0  0  0  0  0  0  0  0  0
   20.2053   -4.1724   11.6392 H   0  0  0  0  0  0  0  0  0  0  0  0
   20.6103   -1.2943    9.0542 H   0  0  0  0  0  0  0  0  0  0  0  0
   20.1410   -3.0069    9.2157 H   0  0  0  0  0  0  0  0  0  0  0  0
   21.8147   -2.5185    9.4661 H   0  0  0  0  0  0  0  0  0  0  0  0
   16.7019   -0.4656   13.4455 H   0  0  0  0  0  0  0  0  0  0  0  0
  1  2  1  0  0  0  0
  1 71  1  0  0  0  0
  1 72  1  0  0  0  0
  1 73  1  0  0  0  0
  2  3  1  0  0  0  0
  2 74  1  0  0  0  0
  2 75  1  0  0  0  0
  3  4  1  0  0  0  0
  3 76  1  0  0  0  0
  3 77  1  0  0  0  0
  4  5  1  0  0  0  0
  4 78  1  0  0  0  0
  4 79  1  0  0  0  0
  5 80  1  0  0  0  0
  5 81  1  0  0  0  0
  6  8  1  0  0  0  0
  6 12  1  0  0  0  0
  6  7  1  1  0  0  0
  6  5  1  0  0  0  0
  8  9  1  0  0  0  0
  9 10  1  0  0  0  0
  9 82  1  0  0  0  0
  9 83  1  0  0  0  0
 10 11  2  0  0  0  0
 10 84  1  0  0  0  0
 12 13  1  0  0  0  0
 12 85  1  0  0  0  0
 12 86  1  0  0  0  0
 13 14  2  0  0  0  0
 13 87  1  0  0  0  0
 14 15  1  0  0  0  0
 14 88  1  0  0  0  0
 15 16  2  0  0  0  0
 15 17  1  0  0  0  0
 17 18  1  0  0  0  0
 18 19  1  0  0  0  0
 18 89  1  0  0  0  0
 18 90  1  0  0  0  0
 19 20  1  0  0  0  0
 19 91  1  0  0  0  0
 19 92  1  0  0  0  0
 20 21  1  0  0  0  0
 20 93  1  0  0  0  0
 21 22  2  0  0  0  0
 21 23  1  0  0  0  0
 23 24  1  0  0  0  0
 23 94  1  0  0  0  0
 23 95  1  0  0  0  0
 24 25  1  0  0  0  0
 24 96  1  0  0  0  0
 24 97  1  0  0  0  0
 25 26  1  0  0  0  0
 25 98  1  0  0  0  0
 26 27  1  1  0  0  0
 26 28  1  0  0  0  0
 26 70  1  0  0  0  0
 28 29  2  0  0  0  0
 28 30  1  0  0  0  0
 30 31  1  0  0  0  0
 30 68  1  0  0  0  0
 30 69  1  0  0  0  0
 31 32  1  0  0  0  0
 31 99  1  0  0  0  0
 31100  1  0  0  0  0
 33 35  1  1  0  0  0
 33 67  1  0  0  0  0
 33 34  2  0  0  0  0
 33 32  1  0  0  0  0
 36 38  1  6  0  0  0
 36 66  1  0  0  0  0
 36 37  2  0  0  0  0
 36 35  1  0  0  0  0
 38 39  1  0  0  0  0
 39 40  1  0  0  0  0
 39101  1  0  0  0  0
 39102  1  0  0  0  0
 40 41  1  6  0  0  0
 40 42  1  0  0  0  0
 40 47  1  0  0  0  0
 42 43  1  0  0  0  0
 43 45  1  0  0  0  0
 43 55  1  0  0  0  0
 43 44  1  6  0  0  0
 45 46  1  1  0  0  0
 45 47  1  0  0  0  0
 45 54  1  0  0  0  0
 47 48  1  1  0  0  0
 47 49  1  0  0  0  0
 49 50  1  0  0  0  0
 50 51  2  0  0  0  0
 50 52  1  0  0  0  0
 50 53  1  0  0  0  0
 52103  1  0  0  0  0
 53104  1  0  0  0  0
 54105  1  0  0  0  0
 55 56  2  0  0  0  0
 55 60  1  0  0  0  0
 56 57  1  0  0  0  0
 56106  1  0  0  0  0
 57 58  1  0  0  0  0
 57 59  1  0  0  0  0
 59 60  2  0  0  0  0
 59 64  1  0  0  0  0
 60 61  1  0  0  0  0
 61 62  2  0  0  0  0
 62 63  1  0  0  0  0
 62107  1  0  0  0  0
 63 64  2  0  0  0  0
 64 65  1  0  0  0  0
 65108  1  0  0  0  0
 65109  1  0  0  0  0
 66110  1  0  0  0  0
 67111  1  0  0  0  0
 68112  1  0  0  0  0
 68113  1  0  0  0  0
 68114  1  0  0  0  0
 69115  1  0  0  0  0
 69116  1  0  0  0  0
 69117  1  0  0  0  0
 70118  1  0  0  0  0
M  CHG  1  55   1
M  END
$$$$
