MDX
 OpenBabel04121316153D

 36 35  0  0  0  0  0  0  0  0999 V2000
    0.9469   -0.0495   -0.0781 S   0  0  0  0  0  0  0  0  0  0  0  0
    2.7635   -0.0913   -0.0506 C   0  0  0  0  0  0  0  0  0  0  0  0
    3.3024    1.0989   -0.8325 C   0  0  0  0  0  0  0  0  0  0  0  0
    4.8273    1.1066   -0.8375 C   0  0  0  0  0  0  0  0  0  0  0  0
    5.3478    2.3032   -1.6235 C   0  0  0  0  0  0  0  0  0  0  0  0
    6.8687    2.3138   -1.6305 C   0  0  0  0  0  0  0  0  0  0  0  0
    7.3818    3.5102   -2.4164 C   0  0  0  0  0  0  0  0  0  0  0  0
    8.9016    3.5244   -2.4257 C   0  0  0  0  0  0  0  0  0  0  0  0
    9.4116    4.7243   -3.2139 C   0  0  0  0  0  0  0  0  0  0  0  0
   10.9312    4.7351   -3.2210 C   0  0  0  0  0  0  0  0  0  0  0  0
   11.4910    5.9218   -4.0006 C   0  0  0  0  0  0  0  0  0  0  0  0
   13.0007    5.8801   -3.9732 C   0  0  0  0  0  0  0  0  0  0  0  0
   13.6647    5.0208   -3.4087 O   0  0  0  0  0  0  0  0  0  0  0  0
   13.5790    6.8997   -4.6429 O   0  0  0  0  0  0  0  0  0  0  0  0
    0.7391   -1.1559    0.6487 H   0  0  0  0  0  0  0  0  0  0  0  0
    3.1091   -1.0316   -0.4930 H   0  0  0  0  0  0  0  0  0  0  0  0
    3.1091   -0.0587    0.9880 H   0  0  0  0  0  0  0  0  0  0  0  0
    2.9428    2.0369   -0.3902 H   0  0  0  0  0  0  0  0  0  0  0  0
    2.9428    1.0655   -1.8689 H   0  0  0  0  0  0  0  0  0  0  0  0
    5.2052    0.1794   -1.2852 H   0  0  0  0  0  0  0  0  0  0  0  0
    5.2052    1.1492    0.1912 H   0  0  0  0  0  0  0  0  0  0  0  0
    4.9738    3.2337   -1.1788 H   0  0  0  0  0  0  0  0  0  0  0  0
    4.9738    2.2646   -2.6542 H   0  0  0  0  0  0  0  0  0  0  0  0
    7.2459    1.3858   -2.0775 H   0  0  0  0  0  0  0  0  0  0  0  0
    7.2459    2.3555   -0.6014 H   0  0  0  0  0  0  0  0  0  0  0  0
    7.0051    4.4384   -1.9695 H   0  0  0  0  0  0  0  0  0  0  0  0
    7.0051    3.4687   -3.4457 H   0  0  0  0  0  0  0  0  0  0  0  0
    9.2788    2.5952   -2.8711 H   0  0  0  0  0  0  0  0  0  0  0  0
    9.2788    3.5641   -1.3960 H   0  0  0  0  0  0  0  0  0  0  0  0
    9.0329    5.6499   -2.7644 H   0  0  0  0  0  0  0  0  0  0  0  0
    9.0329    4.6794   -4.2419 H   0  0  0  0  0  0  0  0  0  0  0  0
   11.3003    3.7988   -3.6591 H   0  0  0  0  0  0  0  0  0  0  0  0
   11.3003    4.7653   -2.1877 H   0  0  0  0  0  0  0  0  0  0  0  0
   11.1482    6.8590   -3.5480 H   0  0  0  0  0  0  0  0  0  0  0  0
   11.1482    5.8787   -5.0404 H   0  0  0  0  0  0  0  0  0  0  0  0
   12.9539    7.5249   -5.0536 H   0  0  0  0  0  0  0  0  0  0  0  0
  1  2  1  0  0  0  0
  1 15  1  0  0  0  0
  2  3  1  0  0  0  0
  2 16  1  0  0  0  0
  2 17  1  0  0  0  0
  3  4  1  0  0  0  0
  3 18  1  0  0  0  0
  3 19  1  0  0  0  0
  4  5  1  0  0  0  0
  4 20  1  0  0  0  0
  4 21  1  0  0  0  0
  5  6  1  0  0  0  0
  5 22  1  0  0  0  0
  5 23  1  0  0  0  0
  6  7  1  0  0  0  0
  6 24  1  0  0  0  0
  6 25  1  0  0  0  0
  7  8  1  0  0  0  0
  7 26  1  0  0  0  0
  7 27  1  0  0  0  0
  8  9  1  0  0  0  0
  8 28  1  0  0  0  0
  8 29  1  0  0  0  0
  9 10  1  0  0  0  0
  9 30  1  0  0  0  0
  9 31  1  0  0  0  0
 10 11  1  0  0  0  0
 10 32  1  0  0  0  0
 10 33  1  0  0  0  0
 11 12  1  0  0  0  0
 11 34  1  0  0  0  0
 11 35  1  0  0  0  0
 12 13  2  0  0  0  0
 12 14  1  0  0  0  0
 14 36  1  0  0  0  0
M  END
$$$$
