ME4
 OpenBabel04121316153D

 60 64  0  0  1  0  0  0  0  0999 V2000
    1.0116    0.0087   -0.0077 O   0  0  0  0  0  0  0  0  0  0  0  0
    2.2346    0.0795   -0.0087 C   0  0  0  0  0  0  0  0  0  0  0  0
    2.8896    1.1845   -0.7202 C   0  0  0  0  0  0  0  0  0  0  0  0
    2.7574    2.4948   -0.3299 C   0  0  0  0  0  0  0  0  0  0  0  0
    3.2032    3.4900   -1.2069 C   0  0  0  0  0  0  0  0  0  0  0  0
    3.9650    3.1851   -2.3553 C   0  0  0  0  0  0  0  0  0  0  0  0
    4.2616    1.8650   -2.5988 C   0  0  0  0  0  0  0  0  0  0  0  0
    3.5175    0.9187   -1.9164 C   0  0  0  0  0  0  0  0  0  0  0  0
    4.2478    4.1778   -3.3475 N   0  0  0  0  0  0  0  0  0  0  0  0
    4.3170    5.5100   -2.9782 C   0  0  0  0  0  0  0  0  0  0  0  0
    4.2215    6.4962   -3.8725 C   0  0  0  0  0  0  0  0  0  0  0  0
    4.1767    6.1943   -5.2752 C   0  0  0  0  0  0  0  0  0  0  0  0
    4.2751    4.9313   -5.6969 C   0  0  0  0  0  0  0  0  0  0  0  0
    4.2126    3.8192   -4.7169 C   0  0  0  0  0  0  0  0  0  0  0  0
    4.0672    2.6933   -5.1935 O   0  0  0  0  0  0  0  0  0  0  0  0
    3.0075   -0.8481    0.6391 N   0  0  0  0  0  0  0  0  0  0  0  0
    4.4727   -1.0074    0.6510 C   0  0  1  0  0  0  0  0  0  0  0  0
    4.9115   -0.0413    0.3773 H   0  0  0  0  0  0  0  0  0  0  0  0
    4.9448   -1.3433    2.0760 C   0  0  0  0  0  0  0  0  0  0  0  0
    4.5138   -2.7467    2.4980 C   0  0  0  0  0  0  0  0  0  0  0  0
    5.0267   -3.7855    1.5223 C   0  0  0  0  0  0  0  0  0  0  0  0
    4.5341   -3.4958    0.1271 C   0  0  0  0  0  0  0  0  0  0  0  0
    4.9712   -2.1155   -0.3500 C   0  0  1  0  0  0  0  0  0  0  0  0
    6.0675   -2.0615   -0.3718 H   0  0  0  0  0  0  0  0  0  0  0  0
    4.5592   -1.8561   -1.7253 N   0  0  0  0  0  0  0  0  0  0  0  0
    4.3249   -2.7923   -2.7080 C   0  0  0  0  0  0  0  0  0  0  0  0
    4.4775   -4.0076   -2.5533 O   0  0  0  0  0  0  0  0  0  0  0  0
    3.8243   -2.3493   -4.0379 C   0  0  0  0  0  0  0  0  0  0  0  0
    3.2511   -3.3271   -4.8513 C   0  0  0  0  0  0  0  0  0  0  0  0
    2.7740   -3.0255   -6.1308 C   0  0  0  0  0  0  0  0  0  0  0  0
    2.8094   -1.6967   -6.5909 C   0  0  0  0  0  0  0  0  0  0  0  0
    3.3642   -0.7295   -5.7606 C   0  0  0  0  0  0  0  0  0  0  0  0
    3.9290   -1.0462   -4.5221 C   0  0  0  0  0  0  0  0  0  0  0  0
    3.2631    0.4805   -6.4079 N   0  0  0  0  0  0  0  0  0  0  0  0
    3.5547    1.3726   -6.0133 H   0  0  0  0  0  0  0  0  0  0  0  0
    2.7180    0.3027   -7.6500 C   0  0  0  0  0  0  0  0  0  0  0  0
    2.4359   -1.0352   -7.7908 C   0  0  0  0  0  0  0  0  0  0  0  0
    1.7720   -1.7870   -9.1598 Cl  0  0  0  0  0  0  0  0  0  0  0  0
    2.2003    2.7339    0.5670 H   0  0  0  0  0  0  0  0  0  0  0  0
    2.8357    4.4956   -1.0377 H   0  0  0  0  0  0  0  0  0  0  0  0
    4.9220    1.5908   -3.4160 H   0  0  0  0  0  0  0  0  0  0  0  0
    3.2847   -0.0311   -2.3623 H   0  0  0  0  0  0  0  0  0  0  0  0
    4.4390    5.7201   -1.9208 H   0  0  0  0  0  0  0  0  0  0  0  0
    4.2202    7.5306   -3.5535 H   0  0  0  0  0  0  0  0  0  0  0  0
    4.1289    7.0138   -5.9810 H   0  0  0  0  0  0  0  0  0  0  0  0
    4.3270    4.6523   -6.7418 H   0  0  0  0  0  0  0  0  0  0  0  0
    2.4473   -1.5852    1.0530 H   0  0  0  0  0  0  0  0  0  0  0  0
    4.5595   -0.6130    2.7971 H   0  0  0  0  0  0  0  0  0  0  0  0
    6.0406   -1.2790    2.1085 H   0  0  0  0  0  0  0  0  0  0  0  0
    3.4199   -2.8036    2.5391 H   0  0  0  0  0  0  0  0  0  0  0  0
    4.8889   -2.9741    3.4984 H   0  0  0  0  0  0  0  0  0  0  0  0
    4.6935   -4.7866    1.8091 H   0  0  0  0  0  0  0  0  0  0  0  0
    6.1236   -3.7884    1.5114 H   0  0  0  0  0  0  0  0  0  0  0  0
    3.4412   -3.5801    0.0631 H   0  0  0  0  0  0  0  0  0  0  0  0
    4.9636   -4.2770   -0.4991 H   0  0  0  0  0  0  0  0  0  0  0  0
    4.7964   -0.9305   -2.0228 H   0  0  0  0  0  0  0  0  0  0  0  0
    3.2022   -4.3564   -4.5004 H   0  0  0  0  0  0  0  0  0  0  0  0
    2.3867   -3.8197   -6.7586 H   0  0  0  0  0  0  0  0  0  0  0  0
    4.4673   -0.2891   -3.9927 H   0  0  0  0  0  0  0  0  0  0  0  0
    2.5843    1.1397   -8.3200 H   0  0  0  0  0  0  0  0  0  0  0  0
  1  2  2  0  0  0  0
  2  3  1  0  0  0  0
  2 16  1  0  0  0  0
  3  4  2  0  0  0  0
  3  8  1  0  0  0  0
  4  5  1  0  0  0  0
  4 39  1  0  0  0  0
  5  6  2  0  0  0  0
  5 40  1  0  0  0  0
  6  7  1  0  0  0  0
  6  9  1  0  0  0  0
  7  8  2  0  0  0  0
  7 41  1  0  0  0  0
  8 42  1  0  0  0  0
  9 10  1  0  0  0  0
  9 14  1  0  0  0  0
 10 11  2  0  0  0  0
 10 43  1  0  0  0  0
 11 12  1  0  0  0  0
 11 44  1  0  0  0  0
 12 13  2  0  0  0  0
 12 45  1  0  0  0  0
 13 14  1  0  0  0  0
 13 46  1  0  0  0  0
 14 15  2  0  0  0  0
 16 17  1  0  0  0  0
 16 47  1  0  0  0  0
 17 18  1  6  0  0  0
 17 19  1  0  0  0  0
 17 23  1  0  0  0  0
 19 20  1  0  0  0  0
 19 48  1  0  0  0  0
 19 49  1  0  0  0  0
 20 21  1  0  0  0  0
 20 50  1  0  0  0  0
 20 51  1  0  0  0  0
 21 22  1  0  0  0  0
 21 52  1  0  0  0  0
 21 53  1  0  0  0  0
 22 23  1  0  0  0  0
 22 54  1  0  0  0  0
 22 55  1  0  0  0  0
 23 25  1  0  0  0  0
 23 24  1  1  0  0  0
 25 26  1  0  0  0  0
 25 56  1  0  0  0  0
 26 27  2  0  0  0  0
 26 28  1  0  0  0  0
 28 29  2  0  0  0  0
 28 33  1  0  0  0  0
 29 30  1  0  0  0  0
 29 57  1  0  0  0  0
 30 31  2  0  0  0  0
 30 58  1  0  0  0  0
 31 32  1  0  0  0  0
 31 37  1  0  0  0  0
 32 33  2  0  0  0  0
 32 34  1  0  0  0  0
 33 59  1  0  0  0  0
 34 35  1  0  0  0  0
 34 36  1  0  0  0  0
 36 37  2  0  0  0  0
 36 60  1  0  0  0  0
 37 38  1  0  0  0  0
M  END
$$$$
