ME7
 OpenBabel04121316153D

 24 25  0  0  0  0  0  0  0  0999 V2000
    1.1272    0.2277   -0.2195 O   0  0  0  0  0  0  0  0  0  0  0  0
    2.3346    0.1963   -0.1095 C   0  0  0  0  0  0  0  0  0  0  0  0
    3.1039   -1.0457    0.0618 C   0  0  0  0  0  0  0  0  0  0  0  0
    4.3432   -0.6990    0.4027 C   0  0  0  0  0  0  0  0  0  0  0  0
    4.3823    0.7659    0.4637 C   0  0  0  0  0  0  0  0  0  0  0  0
    5.3068    1.3847    0.9509 O   0  0  0  0  0  0  0  0  0  0  0  0
    3.2293    1.2210   -0.0904 N   0  0  0  0  0  0  0  0  0  0  0  0
    2.9294    2.5947   -0.5249 C   0  0  0  0  0  0  0  0  0  0  0  0
    4.1167    3.5622   -0.4496 C   0  0  0  0  0  0  0  0  0  0  0  0
    3.9092    4.9066   -0.9699 N   0  0  0  0  0  0  0  0  0  0  0  0
    3.2205    5.8932   -0.3459 C   0  0  0  0  0  0  0  0  0  0  0  0
    2.3790    5.8021    0.5225 O   0  0  0  0  0  0  0  0  0  0  0  0
    3.6597    7.1633   -0.9426 C   0  0  0  0  0  0  0  0  0  0  0  0
    4.4114    6.8670   -2.0026 C   0  0  0  0  0  0  0  0  0  0  0  0
    4.4655    5.4012   -2.1054 C   0  0  0  0  0  0  0  0  0  0  0  0
    4.9159    4.8041   -3.0601 O   0  0  0  0  0  0  0  0  0  0  0  0
    2.7111   -2.0323   -0.1106 H   0  0  0  0  0  0  0  0  0  0  0  0
    5.1981   -1.3297    0.5724 H   0  0  0  0  0  0  0  0  0  0  0  0
    2.0606    2.9673    0.0277 H   0  0  0  0  0  0  0  0  0  0  0  0
    2.6114    2.5086   -1.5723 H   0  0  0  0  0  0  0  0  0  0  0  0
    4.9756    3.1324   -0.9800 H   0  0  0  0  0  0  0  0  0  0  0  0
    4.4014    3.6842    0.6022 H   0  0  0  0  0  0  0  0  0  0  0  0
    3.4292    8.1325   -0.5361 H   0  0  0  0  0  0  0  0  0  0  0  0
    4.9360    7.5381   -2.6605 H   0  0  0  0  0  0  0  0  0  0  0  0
  1  2  2  0  0  0  0
  2  3  1  0  0  0  0
  2  7  1  0  0  0  0
  3  4  2  0  0  0  0
  3 17  1  0  0  0  0
  4  5  1  0  0  0  0
  4 18  1  0  0  0  0
  5  6  2  0  0  0  0
  5  7  1  0  0  0  0
  7  8  1  0  0  0  0
  8  9  1  0  0  0  0
  8 19  1  0  0  0  0
  8 20  1  0  0  0  0
  9 10  1  0  0  0  0
  9 21  1  0  0  0  0
  9 22  1  0  0  0  0
 10 11  1  0  0  0  0
 10 15  1  0  0  0  0
 11 12  2  0  0  0  0
 11 13  1  0  0  0  0
 13 14  2  0  0  0  0
 13 23  1  0  0  0  0
 14 15  1  0  0  0  0
 14 24  1  0  0  0  0
 15 16  2  0  0  0  0
M  END
$$$$
