ME8
 OpenBabel04121316153D

 54 56  0  0  1  0  0  0  0  0999 V2000
    3.1807   -0.4893    2.7609 C   0  0  0  0  0  0  0  0  0  0  0  0
    3.0034    1.1446    1.3333 S   0  0  0  0  0  0  0  0  0  0  0  0
    2.1269    3.0131    2.1405 C   0  0  0  0  0  0  0  0  0  0  0  0
    2.8244    4.2671    1.9562 C   0  0  0  0  0  0  0  0  0  0  0  0
    2.4097    5.0743    3.2183 C   0  0  1  0  0  0  0  0  0  0  0  0
    1.3689    4.9496    3.5692 H   0  0  0  0  0  0  0  0  0  0  0  0
    3.2920    4.8168    4.5224 C   0  0  0  0  0  0  0  0  0  0  0  0
    4.0840    5.5990    4.9220 O   0  0  0  0  0  0  0  0  0  0  0  0
    2.8603    3.7292    5.3042 O   0  0  0  0  0  0  0  0  0  0  0  0
    3.0114    2.0723    5.0466 P   0  0  2  0  0  0  0  0  0  0  0  0
    3.5262    2.2390    3.6003 O   0  0  0  0  0  0  0  0  0  0  0  0
    1.2887    1.7152    4.6192 O   0  0  0  0  0  0  0  0  0  0  0  0
    0.8715    1.1093    3.3826 C   0  0  0  0  0  0  0  0  0  0  0  0
   -0.4074    0.9746    2.6699 C   0  0  1  0  0  0  0  0  0  0  0  0
   -0.2933    0.8447    1.5617 H   0  0  0  0  0  0  0  0  0  0  0  0
   -0.8932   -0.2369    3.1419 O   0  0  0  0  0  0  0  0  0  0  0  0
   -2.2607   -0.0281    3.0014 C   0  0  2  0  0  0  0  0  0  0  0  0
   -2.5246   -0.3434    1.9851 H   0  0  0  0  0  0  0  0  0  0  0  0
   -2.5563    1.4749    3.2100 C   0  0  1  0  0  0  0  0  0  0  0  0
   -2.7982    1.7635    4.2249 H   0  0  0  0  0  0  0  0  0  0  0  0
   -1.2613    2.1699    2.9545 C   0  0  2  0  0  0  0  0  0  0  0  0
   -0.8887    2.6944    3.8399 H   0  0  0  0  0  0  0  0  0  0  0  0
   -1.2740    3.1208    1.8964 O   0  0  0  0  0  0  0  0  0  0  0  0
   -3.5881    1.9362    2.3615 O   0  0  0  0  0  0  0  0  0  0  0  0
   -2.8124   -0.9315    3.9364 N   0  0  0  0  0  0  0  0  0  0  0  0
   -3.0999   -2.2321    3.6514 C   0  0  0  0  0  0  0  0  0  0  0  0
   -3.7966   -2.7680    4.6250 N   0  0  0  0  0  0  0  0  0  0  0  0
   -3.8354   -1.7864    5.6016 C   0  0  0  0  0  0  0  0  0  0  0  0
   -3.1240   -0.6712    5.2292 C   0  0  0  0  0  0  0  0  0  0  0  0
   -2.9098    0.4469    5.9404 N   0  0  0  0  0  0  0  0  0  0  0  0
   -3.5689    0.4152    7.1073 C   0  0  0  0  0  0  0  0  0  0  0  0
   -4.3366   -0.5833    7.5830 N   0  0  0  0  0  0  0  0  0  0  0  0
   -4.4692   -1.7070    6.8393 C   0  0  0  0  0  0  0  0  0  0  0  0
   -5.2573   -2.7303    7.2935 N   0  0  0  0  0  0  0  0  0  0  0  0
    2.4348    1.8855    6.6670 O   0  0  0  0  0  0  0  0  0  0  0  0
    2.4557    6.4417    2.6728 N   0  0  0  0  0  0  0  0  0  0  0  0
    3.4998   -1.3577    2.1766 H   0  0  0  0  0  0  0  0  0  0  0  0
    2.2926   -0.9808    3.2281 H   0  0  0  0  0  0  0  0  0  0  0  0
    3.8655   -0.3147    3.6028 H   0  0  0  0  0  0  0  0  0  0  0  0
    1.9897    3.0180    3.2151 H   0  0  0  0  0  0  0  0  0  0  0  0
    1.0470    3.2460    2.0546 H   0  0  0  0  0  0  0  0  0  0  0  0
    2.3563    4.5877    1.0205 H   0  0  0  0  0  0  0  0  0  0  0  0
    3.8967    4.1210    1.8699 H   0  0  0  0  0  0  0  0  0  0  0  0
    1.3839    0.2580    3.1513 H   0  0  0  0  0  0  0  0  0  0  0  0
    1.0681    1.6646    2.5454 H   0  0  0  0  0  0  0  0  0  0  0  0
   -1.9811    3.7575    2.1155 H   0  0  0  0  0  0  0  0  0  0  0  0
   -4.3640    1.3951    2.5837 H   0  0  0  0  0  0  0  0  0  0  0  0
   -2.8111   -2.6978    2.7147 H   0  0  0  0  0  0  0  0  0  0  0  0
   -3.4930    1.3076    7.7233 H   0  0  0  0  0  0  0  0  0  0  0  0
   -5.6619   -2.6505    8.2087 H   0  0  0  0  0  0  0  0  0  0  0  0
   -5.3163   -3.5658    6.7271 H   0  0  0  0  0  0  0  0  0  0  0  0
    2.1073    0.9778    6.8013 H   0  0  0  0  0  0  0  0  0  0  0  0
    1.8213    6.4224    1.8624 H   0  0  0  0  0  0  0  0  0  0  0  0
    3.3825    6.5462    2.2553 H   0  0  0  0  0  0  0  0  0  0  0  0
  1  2  1  0  0  0  0
  1 37  1  0  0  0  0
  1 38  1  0  0  0  0
  1 39  1  0  0  0  0
  2  3  1  0  0  0  0
  3  4  1  0  0  0  0
  3 40  1  0  0  0  0
  3 41  1  0  0  0  0
  4  5  1  0  0  0  0
  4 42  1  0  0  0  0
  4 43  1  0  0  0  0
  5  6  1  1  0  0  0
  5  7  1  0  0  0  0
  5 36  1  0  0  0  0
  7  8  2  0  0  0  0
  7  9  1  0  0  0  0
 10 12  1  6  0  0  0
 10 35  1  0  0  0  0
 10 11  2  0  0  0  0
 10  9  1  0  0  0  0
 12 13  1  0  0  0  0
 13 14  1  0  0  0  0
 13 44  1  0  0  0  0
 13 45  1  0  0  0  0
 14 15  1  6  0  0  0
 14 16  1  0  0  0  0
 14 21  1  0  0  0  0
 16 17  1  0  0  0  0
 17 19  1  0  0  0  0
 17 25  1  0  0  0  0
 17 18  1  6  0  0  0
 19 20  1  1  0  0  0
 19 21  1  0  0  0  0
 19 24  1  0  0  0  0
 21 22  1  1  0  0  0
 21 23  1  0  0  0  0
 23 46  1  0  0  0  0
 24 47  1  0  0  0  0
 25 26  1  0  0  0  0
 25 29  1  0  0  0  0
 26 27  2  0  0  0  0
 26 48  1  0  0  0  0
 27 28  1  0  0  0  0
 28 29  2  0  0  0  0
 28 33  1  0  0  0  0
 29 30  1  0  0  0  0
 30 31  2  0  0  0  0
 31 32  1  0  0  0  0
 31 49  1  0  0  0  0
 32 33  2  0  0  0  0
 33 34  1  0  0  0  0
 34 50  1  0  0  0  0
 34 51  1  0  0  0  0
 35 52  1  0  0  0  0
 36 53  1  0  0  0  0
 36 54  1  0  0  0  0
M  END
$$$$
