MEE
 OpenBabel04121316153D

  6  5  0  0  0  0  0  0  0  0999 V2000
    1.1194   -0.0411    0.0664 C   0  0  0  0  0  0  0  0  0  0  0  0
    2.9221    0.0324    0.0588 S   0  0  0  0  0  0  0  0  0  0  0  0
    0.7684   -0.4753    1.0060 H   0  0  0  0  0  0  0  0  0  0  0  0
    0.7684   -0.6583   -0.7645 H   0  0  0  0  0  0  0  0  0  0  0  0
    0.7075    0.9655   -0.0376 H   0  0  0  0  0  0  0  0  0  0  0  0
    3.1314   -1.2852    0.1950 H   0  0  0  0  0  0  0  0  0  0  0  0
  1  2  1  0  0  0  0
  1  3  1  0  0  0  0
  1  4  1  0  0  0  0
  1  5  1  0  0  0  0
  2  6  1  0  0  0  0
M  END
$$$$
