MES
 OpenBabel04121316153D

 25 25  0  0  0  0  0  0  0  0999 V2000
    1.3669    0.0125   -0.1767 O   0  5  0  0  0  0  0  0  0  0  0  0
    2.8168   -0.0591   -0.0083 S   0  0  0  0  0  0  0  0  0  0  0  0
    3.3826    0.8394    0.9877 O   0  0  0  0  0  0  0  0  0  0  0  0
    3.3968   -1.3939   -0.0566 O   0  0  0  0  0  0  0  0  0  0  0  0
    3.4063    0.6521   -1.5147 C   0  0  0  0  0  0  0  0  0  0  0  0
    4.9263    0.6834   -1.5041 C   0  0  0  0  0  0  0  0  0  0  0  0
    5.4887    1.3705   -2.7916 N   0  3  0  0  0  0  0  0  0  0  0  0
    4.9674    0.9679   -3.5796 H   0  0  0  0  0  0  0  0  0  0  0  0
    5.2688    2.8854   -2.7738 C   0  0  0  0  0  0  0  0  0  0  0  0
    5.8699    3.5274   -4.0331 C   0  0  0  0  0  0  0  0  0  0  0  0
    7.2663    3.2352   -4.1440 O   0  0  0  0  0  0  0  0  0  0  0  0
    7.4747    1.8257   -4.2816 C   0  0  0  0  0  0  0  0  0  0  0  0
    6.9767    1.0666   -3.0344 C   0  0  0  0  0  0  0  0  0  0  0  0
    2.9697    1.6521   -1.5798 H   0  0  0  0  0  0  0  0  0  0  0  0
    3.0211    0.0454   -2.3403 H   0  0  0  0  0  0  0  0  0  0  0  0
    5.3378   -0.3317   -1.5007 H   0  0  0  0  0  0  0  0  0  0  0  0
    5.3401    1.2351   -0.6538 H   0  0  0  0  0  0  0  0  0  0  0  0
    5.7617    3.2647   -1.8727 H   0  0  0  0  0  0  0  0  0  0  0  0
    4.1937    3.0705   -2.7335 H   0  0  0  0  0  0  0  0  0  0  0  0
    5.7617    4.6159   -3.9895 H   0  0  0  0  0  0  0  0  0  0  0  0
    5.3602    3.1817   -4.9403 H   0  0  0  0  0  0  0  0  0  0  0  0
    8.5486    1.6668   -4.4292 H   0  0  0  0  0  0  0  0  0  0  0  0
    6.9677    1.4808   -5.1909 H   0  0  0  0  0  0  0  0  0  0  0  0
    7.5217    1.3905   -2.1417 H   0  0  0  0  0  0  0  0  0  0  0  0
    7.0803   -0.0131   -3.1788 H   0  0  0  0  0  0  0  0  0  0  0  0
  1  2  1  0  0  0  0
  2  3  2  0  0  0  0
  2  4  2  0  0  0  0
  2  5  1  0  0  0  0
  5  6  1  0  0  0  0
  5 14  1  0  0  0  0
  5 15  1  0  0  0  0
  6  7  1  0  0  0  0
  6 16  1  0  0  0  0
  6 17  1  0  0  0  0
  7  8  1  0  0  0  0
  7  9  1  0  0  0  0
  7 13  1  0  0  0  0
  9 10  1  0  0  0  0
  9 18  1  0  0  0  0
  9 19  1  0  0  0  0
 10 11  1  0  0  0  0
 10 20  1  0  0  0  0
 10 21  1  0  0  0  0
 11 12  1  0  0  0  0
 12 13  1  0  0  0  0
 12 22  1  0  0  0  0
 12 23  1  0  0  0  0
 13 24  1  0  0  0  0
 13 25  1  0  0  0  0
M  CHG  2   1  -1   7   1
M  END
$$$$
