MF3
 OpenBabel04121316153D

 20 19  0  0  1  0  0  0  0  0999 V2000
    3.5846   -0.3247    3.3788 O   0  0  0  0  0  0  0  0  0  0  0  0
    2.7135   -0.1185    2.3672 C   0  0  0  0  0  0  0  0  0  0  0  0
    1.6158    0.3968    2.5593 O   0  0  0  0  0  0  0  0  0  0  0  0
    3.1327   -0.7000    1.0086 C   0  0  2  0  0  0  0  0  0  0  0  0
    2.6236   -0.1081    0.2373 H   0  0  0  0  0  0  0  0  0  0  0  0
    2.7168   -2.1724    0.8953 C   0  0  0  0  0  0  0  0  0  0  0  0
    1.2050   -2.3988    1.0898 C   0  0  0  0  0  0  0  0  0  0  0  0
    0.8917   -4.1877    0.9337 S   0  0  0  0  0  0  0  0  0  0  0  0
   -0.8775   -4.2385    1.2285 C   0  0  0  0  0  0  0  0  0  0  0  0
   -1.2069   -3.7578    2.4482 F   0  0  0  0  0  0  0  0  0  0  0  0
   -1.5625   -3.5280    0.3042 F   0  0  0  0  0  0  0  0  0  0  0  0
   -1.3240   -5.5164    1.1657 F   0  0  0  0  0  0  0  0  0  0  0  0
    4.5909   -0.5492    0.7805 N   0  0  0  0  0  0  0  0  0  0  0  0
    4.3922   -0.7869    3.0944 H   0  0  0  0  0  0  0  0  0  0  0  0
    3.2752   -2.7592    1.6375 H   0  0  0  0  0  0  0  0  0  0  0  0
    3.0131   -2.5443   -0.0963 H   0  0  0  0  0  0  0  0  0  0  0  0
    0.6418   -1.8436    0.3322 H   0  0  0  0  0  0  0  0  0  0  0  0
    0.8901   -2.0676    2.0832 H   0  0  0  0  0  0  0  0  0  0  0  0
    4.8001   -0.8519   -0.1758 H   0  0  0  0  0  0  0  0  0  0  0  0
    5.1487   -1.1659    1.3622 H   0  0  0  0  0  0  0  0  0  0  0  0
  1  2  1  0  0  0  0
  1 14  1  0  0  0  0
  2  3  2  0  0  0  0
  4  6  1  0  0  0  0
  4 13  1  0  0  0  0
  4  5  1  6  0  0  0
  4  2  1  0  0  0  0
  6  7  1  0  0  0  0
  6 15  1  0  0  0  0
  6 16  1  0  0  0  0
  7  8  1  0  0  0  0
  7 17  1  0  0  0  0
  7 18  1  0  0  0  0
  8  9  1  0  0  0  0
  9 10  1  0  0  0  0
  9 11  1  0  0  0  0
  9 12  1  0  0  0  0
 13 19  1  0  0  0  0
 13 20  1  0  0  0  0
M  END
$$$$
