MF4
 OpenBabel04121316153D

  5  4  0  0  0  0  0  0  0  0999 V2000
    1.0589   -0.0246    0.0770 F   0  0  0  0  0  0  0  0  0  0  0  0
    2.8979   -0.0246    0.0770 Mg  0  6  0  0  0  0  0  0  0  0  0  0
    2.3861   -1.4931   -0.9045 F   0  0  0  0  0  0  0  0  0  0  0  0
      -nan      -nan      -nan F   0  0  0  0  0  0  0  0  0  0  0  0
    4.7369   -0.0246    0.0770 F   0  0  0  0  0  0  0  0  0  0  0  0
  1  2  1  0  0  0  0
  2  3  1  0  0  0  0
  2  4  1  0  0  0  0
  2  5  1  0  0  0  0
M  CHG  1   2  -2
M  END
$$$$
