MGO
 OpenBabel04121316153D

 53 55  0  0  1  0  0  0  0  0999 V2000
    1.7939    0.4044    5.7446 O   0  0  0  0  0  0  0  0  0  0  0  0
    0.4930    0.2125    5.2115 C   0  0  2  0  0  0  0  0  0  0  0  0
    0.9028   -0.4115    4.4103 H   0  0  0  0  0  0  0  0  0  0  0  0
   -0.6745    1.4752    5.2519 C   0  0  1  0  0  0  0  0  0  0  0  0
   -0.3045    2.3869    5.7279 H   0  0  0  0  0  0  0  0  0  0  0  0
   -1.8336    2.0797    4.0221 C   0  0  0  0  0  0  0  0  0  0  0  0
   -1.3830    2.0649    2.3774 O   0  0  0  0  0  0  0  0  0  0  0  0
   -2.7797    2.1595    1.3610 P   0  0  1  0  0  0  0  0  0  0  0  0
   -2.5339    3.6271    1.0429 O   0  0  0  0  0  0  0  0  0  0  0  0
   -1.8813    1.1940    0.3230 O   0  0  0  0  0  0  0  0  0  0  0  0
   -0.7328    0.2405    1.1464 P   0  0  2  0  0  0  0  0  0  0  0  0
   -1.2078    0.7712    2.5166 O   0  0  0  0  0  0  0  0  0  0  0  0
    0.6725    1.2446    1.2446 O   0  0  0  0  0  0  0  0  0  0  0  0
    0.6393    2.1399    2.7246 P   0  0  0  0  0  0  0  0  0  0  0  0
    0.4184    3.3557    1.8758 O   0  0  0  0  0  0  0  0  0  0  0  0
    0.8211    0.6947    3.1489 O   0  0  0  0  0  0  0  0  0  0  0  0
    0.6061    3.0351    4.2045 O   0  0  0  0  0  0  0  0  0  0  0  0
   -0.2008   -0.3541   -0.3886 O   0  0  0  0  0  0  0  0  0  0  0  0
   -4.1764    2.2541    0.3446 O   0  0  0  0  0  0  0  0  0  0  0  0
   -1.4359    1.0181    6.3604 O   0  0  0  0  0  0  0  0  0  0  0  0
   -1.3299   -0.3845    6.3685 C   0  0  2  0  0  0  0  0  0  0  0  0
   -0.9916   -0.6767    7.3571 H   0  0  0  0  0  0  0  0  0  0  0  0
   -0.3546   -0.9885    5.4249 C   0  0  2  0  0  0  0  0  0  0  0  0
   -0.8633   -1.2600    4.4798 H   0  0  0  0  0  0  0  0  0  0  0  0
    0.4686   -2.0857    5.7807 O   0  0  0  0  0  0  0  0  0  0  0  0
   -2.6789   -0.7244    6.0509 N   0  0  0  0  0  0  0  0  0  0  0  0
   -3.3680   -0.5870    4.9124 C   0  0  0  0  0  0  0  0  0  0  0  0
   -4.6668   -0.5775    5.2200 N   0  3  0  0  0  0  0  0  0  0  0  0
   -4.7903   -0.9681    6.5535 C   0  0  0  0  0  0  0  0  0  0  0  0
   -3.5238   -0.9976    7.0623 C   0  0  0  0  0  0  0  0  0  0  0  0
   -3.2126   -1.3467    8.4343 C   0  0  0  0  0  0  0  0  0  0  0  0
   -4.2375   -1.7615    9.1742 C   0  0  0  0  0  0  0  0  0  0  0  0
   -4.0135   -2.2052   10.4272 N   0  0  0  0  0  0  0  0  0  0  0  0
   -5.5067   -1.7664    8.6208 N   0  0  0  0  0  0  0  0  0  0  0  0
   -6.2592   -2.1059    9.1989 H   0  0  0  0  0  0  0  0  0  0  0  0
   -5.8840   -1.3748    7.3442 C   0  0  0  0  0  0  0  0  0  0  0  0
   -7.0821   -1.4495    6.9720 O   0  0  0  0  0  0  0  0  0  0  0  0
   -5.7662   -0.3640    4.2882 C   0  0  0  0  0  0  0  0  0  0  0  0
    1.9179    1.2493    6.1851 H   0  0  0  0  0  0  0  0  0  0  0  0
   -2.3157    3.0441    4.2200 H   0  0  0  0  0  0  0  0  0  0  0  0
   -2.6807    1.4011    4.0128 H   0  0  0  0  0  0  0  0  0  0  0  0
   -0.1468    0.4961    3.2513 H   0  0  0  0  0  0  0  0  0  0  0  0
    1.3535    3.6669    4.1327 H   0  0  0  0  0  0  0  0  0  0  0  0
    0.7507   -0.5746   -0.3630 H   0  0  0  0  0  0  0  0  0  0  0  0
   -4.6360    3.0883    0.5642 H   0  0  0  0  0  0  0  0  0  0  0  0
   -0.0320   -2.8419    6.1068 H   0  0  0  0  0  0  0  0  0  0  0  0
   -2.9891   -0.4657    3.9060 H   0  0  0  0  0  0  0  0  0  0  0  0
   -2.1941   -1.3283    8.8086 H   0  0  0  0  0  0  0  0  0  0  0  0
   -3.0907   -2.1235   10.8465 H   0  0  0  0  0  0  0  0  0  0  0  0
   -4.7874   -2.4468   11.0272 H   0  0  0  0  0  0  0  0  0  0  0  0
   -5.3710    0.0338    3.3469 H   0  0  0  0  0  0  0  0  0  0  0  0
   -6.4789    0.3554    4.7001 H   0  0  0  0  0  0  0  0  0  0  0  0
   -6.2430   -1.3267    4.1007 H   0  0  0  0  0  0  0  0  0  0  0  0
  1 39  1  0  0  0  0
  2  4  1  0  0  0  0
  2 23  1  0  0  0  0
  2  3  1  6  0  0  0
  2  1  1  0  0  0  0
  4  5  1  1  0  0  0
  4  6  1  0  0  0  0
  4 20  1  0  0  0  0
  6  7  1  0  0  0  0
  6 40  1  0  0  0  0
  6 41  1  0  0  0  0
  8  7  1  1  0  0  0
  8  9  2  0  0  0  0
  8 10  1  0  0  0  0
  8 19  1  0  0  0  0
 11 13  1  6  0  0  0
 11 18  1  0  0  0  0
 11 12  2  0  0  0  0
 11 10  1  0  0  0  0
 13 14  1  0  0  0  0
 14 15  2  0  0  0  0
 14 16  1  0  0  0  0
 14 17  1  0  0  0  0
 16 42  1  0  0  0  0
 17 43  1  0  0  0  0
 18 44  1  0  0  0  0
 19 45  1  0  0  0  0
 20 21  1  0  0  0  0
 21 23  1  0  0  0  0
 21 26  1  0  0  0  0
 21 22  1  1  0  0  0
 23 24  1  6  0  0  0
 23 25  1  0  0  0  0
 25 46  1  0  0  0  0
 26 27  1  0  0  0  0
 26 30  1  0  0  0  0
 27 28  2  0  0  0  0
 27 47  1  0  0  0  0
 28 29  1  0  0  0  0
 28 38  1  0  0  0  0
 29 30  2  0  0  0  0
 29 36  1  0  0  0  0
 30 31  1  0  0  0  0
 31 32  2  0  0  0  0
 31 48  1  0  0  0  0
 32 33  1  0  0  0  0
 32 34  1  0  0  0  0
 33 49  1  0  0  0  0
 33 50  1  0  0  0  0
 34 35  1  0  0  0  0
 34 36  1  0  0  0  0
 36 37  2  0  0  0  0
 38 51  1  0  0  0  0
 38 52  1  0  0  0  0
 38 53  1  0  0  0  0
M  CHG  1  28   1
M  END
$$$$
