MGQ
 OpenBabel04121316153D

 52 55  0  0  1  0  0  0  0  0999 V2000
    2.8328    0.3074   -1.4269 O   0  0  0  0  0  0  0  0  0  0  0  0
    2.3601    0.1616   -0.0849 C   0  0  2  0  0  0  0  0  0  0  0  0
    1.2736    0.2380   -0.1210 H   0  0  0  0  0  0  0  0  0  0  0  0
    2.9074    1.2367    0.8206 C   0  0  2  0  0  0  0  0  0  0  0  0
    2.2467    1.3084    1.6937 H   0  0  0  0  0  0  0  0  0  0  0  0
    3.0104    2.5171    0.2293 O   0  0  0  0  0  0  0  0  0  0  0  0
    4.2440    0.6371    1.2055 C   0  0  2  0  0  0  0  0  0  0  0  0
    4.9702    0.7239    0.3844 H   0  0  0  0  0  0  0  0  0  0  0  0
    3.9897   -0.7606    1.4283 O   0  0  0  0  0  0  0  0  0  0  0  0
    2.8665   -1.1223    0.6074 C   0  0  1  0  0  0  0  0  0  0  0  0
    3.2122   -1.8784   -0.1077 H   0  0  0  0  0  0  0  0  0  0  0  0
    1.8565   -1.7337    1.4521 N   0  0  0  0  0  0  0  0  0  0  0  0
    2.0344   -2.1356    2.7215 C   0  0  0  0  0  0  0  0  0  0  0  0
    0.8875   -2.7015    3.1742 N   0  3  0  0  0  0  0  0  0  0  0  0
    0.0086   -2.7665    2.0093 C   0  0  0  0  0  0  0  0  0  0  0  0
    0.5938   -2.0543    0.9975 C   0  0  0  0  0  0  0  0  0  0  0  0
    0.0468   -1.8465   -0.2396 N   0  0  0  0  0  0  0  0  0  0  0  0
   -1.2346   -2.0938   -0.2823 C   0  0  0  0  0  0  0  0  0  0  0  0
   -2.0041   -2.0482   -1.3850 N   0  0  0  0  0  0  0  0  0  0  0  0
   -1.9457   -2.4789    0.8029 N   0  0  0  0  0  0  0  0  0  0  0  0
   -2.8804   -2.8256    0.6249 H   0  0  0  0  0  0  0  0  0  0  0  0
   -1.2779   -3.3199    1.6117 C   0  0  0  0  0  0  0  0  0  0  0  0
   -1.8674   -4.3833    1.8970 O   0  0  0  0  0  0  0  0  0  0  0  0
    0.7868   -3.1474    4.6807 C   0  0  0  0  0  0  0  0  0  0  0  0
   -0.5935   -3.4705    5.2371 C   0  0  0  0  0  0  0  0  0  0  0  0
   -1.6555   -3.1209    4.4523 C   0  0  0  0  0  0  0  0  0  0  0  0
   -3.0127   -3.3315    4.5307 C   0  0  0  0  0  0  0  0  0  0  0  0
   -3.3847   -4.1029    5.5782 C   0  0  0  0  0  0  0  0  0  0  0  0
   -2.3803   -4.5577    6.4575 C   0  0  0  0  0  0  0  0  0  0  0  0
   -0.9960   -4.2119    6.3223 C   0  0  0  0  0  0  0  0  0  0  0  0
    4.8527    1.3022    2.4172 C   0  0  0  0  0  0  0  0  0  0  0  0
    3.8337    1.7398    3.3420 O   0  0  0  0  0  0  0  0  0  0  0  0
    4.4572    2.5419    4.7423 P   0  0  0  0  0  0  0  0  0  0  0  0
    5.1008    1.2475    5.2317 O   0  0  0  0  0  0  0  0  0  0  0  0
    5.5192    3.3556    3.8172 O   0  0  0  0  0  0  0  0  0  0  0  0
    5.0808    3.3440    6.1425 O   0  0  0  0  0  0  0  0  0  0  0  0
    3.7924    0.1593   -1.4698 H   0  0  0  0  0  0  0  0  0  0  0  0
    3.3320    2.4122   -0.6855 H   0  0  0  0  0  0  0  0  0  0  0  0
    2.9507   -2.0282    3.2998 H   0  0  0  0  0  0  0  0  0  0  0  0
   -1.6322   -1.7262   -2.2675 H   0  0  0  0  0  0  0  0  0  0  0  0
   -2.9812   -2.3236   -1.3787 H   0  0  0  0  0  0  0  0  0  0  0  0
    1.1694   -2.2943    5.2626 H   0  0  0  0  0  0  0  0  0  0  0  0
    1.4860   -3.9834    4.7937 H   0  0  0  0  0  0  0  0  0  0  0  0
   -1.2921   -3.2683    3.5083 H   0  0  0  0  0  0  0  0  0  0  0  0
   -3.6515   -3.1291    3.6720 H   0  0  0  0  0  0  0  0  0  0  0  0
   -4.4239   -4.4052    5.6422 H   0  0  0  0  0  0  0  0  0  0  0  0
   -2.6895   -5.2418    7.2400 H   0  0  0  0  0  0  0  0  0  0  0  0
   -0.2757   -4.6088    7.0286 H   0  0  0  0  0  0  0  0  0  0  0  0
    5.5684    0.6444    2.9195 H   0  0  0  0  0  0  0  0  0  0  0  0
    5.3916    2.1701    2.0259 H   0  0  0  0  0  0  0  0  0  0  0  0
    5.0745    3.9131    3.1505 H   0  0  0  0  0  0  0  0  0  0  0  0
    4.9967    2.7307    6.8964 H   0  0  0  0  0  0  0  0  0  0  0  0
  1 37  1  0  0  0  0
  2  4  1  0  0  0  0
  2 10  1  0  0  0  0
  2  3  1  1  0  0  0
  2  1  1  0  0  0  0
  4  7  1  0  0  0  0
  4  6  1  0  0  0  0
  4  5  1  1  0  0  0
  6 38  1  0  0  0  0
  7  9  1  0  0  0  0
  7 31  1  0  0  0  0
  7  8  1  6  0  0  0
  9 10  1  0  0  0  0
 10 12  1  0  0  0  0
 10 11  1  6  0  0  0
 12 13  1  0  0  0  0
 12 16  1  0  0  0  0
 13 14  2  0  0  0  0
 13 39  1  0  0  0  0
 14 15  1  0  0  0  0
 14 24  1  0  0  0  0
 15 16  2  0  0  0  0
 15 22  1  0  0  0  0
 16 17  1  0  0  0  0
 17 18  2  0  0  0  0
 18 19  1  0  0  0  0
 18 20  1  0  0  0  0
 19 40  1  0  0  0  0
 19 41  1  0  0  0  0
 20 21  1  0  0  0  0
 20 22  1  0  0  0  0
 22 23  2  0  0  0  0
 24 25  1  0  0  0  0
 24 42  1  0  0  0  0
 24 43  1  0  0  0  0
 25 26  2  0  0  0  0
 25 30  1  0  0  0  0
 26 27  1  0  0  0  0
 26 44  1  0  0  0  0
 27 28  2  0  0  0  0
 27 45  1  0  0  0  0
 28 29  1  0  0  0  0
 28 46  1  0  0  0  0
 29 30  2  0  0  0  0
 29 47  1  0  0  0  0
 30 48  1  0  0  0  0
 31 32  1  0  0  0  0
 31 49  1  0  0  0  0
 31 50  1  0  0  0  0
 32 33  1  0  0  0  0
 33 34  2  0  0  0  0
 33 35  1  0  0  0  0
 33 36  1  0  0  0  0
 35 51  1  0  0  0  0
 36 52  1  0  0  0  0
M  CHG  1  14   1
M  END
$$$$
