MGR
 OpenBabel04121316153D

 50 52  0  0  0  0  0  0  0  0999 V2000
    0.9729    0.0379    0.0447 C   0  0  0  0  0  0  0  0  0  0  0  0
    2.4596   -0.0296    0.0314 N   0  3  0  0  0  0  0  0  0  0  0  0
    3.1452   -0.7946   -0.7650 C   0  0  0  0  0  0  0  0  0  0  0  0
    2.4994   -1.7414   -1.7128 C   0  0  0  0  0  0  0  0  0  0  0  0
    3.2072   -2.2350   -2.7328 C   0  0  0  0  0  0  0  0  0  0  0  0
    4.6066   -1.8935   -2.9173 C   0  0  0  0  0  0  0  0  0  0  0  0
    5.2460   -2.1817   -4.0759 C   0  0  0  0  0  0  0  0  0  0  0  0
    6.6468   -1.7818   -4.2546 C   0  0  0  0  0  0  0  0  0  0  0  0
    6.9488   -0.5252   -4.7602 C   0  0  0  0  0  0  0  0  0  0  0  0
    8.2431   -0.2635   -5.1919 C   0  0  0  0  0  0  0  0  0  0  0  0
    9.2940   -1.1799   -5.0192 C   0  0  0  0  0  0  0  0  0  0  0  0
    8.9729   -2.3500   -4.3069 C   0  0  0  0  0  0  0  0  0  0  0  0
    7.6618   -2.6877   -3.9893 C   0  0  0  0  0  0  0  0  0  0  0  0
   10.5637   -0.9407   -5.5133 N   0  0  0  0  0  0  0  0  0  0  0  0
   10.8749    0.1966   -6.3804 C   0  0  0  0  0  0  0  0  0  0  0  0
   11.6467   -1.9152   -5.3912 C   0  0  0  0  0  0  0  0  0  0  0  0
    4.5572   -2.8539   -5.1983 C   0  0  0  0  0  0  0  0  0  0  0  0
    4.1434   -4.1860   -5.0739 C   0  0  0  0  0  0  0  0  0  0  0  0
    3.6265   -4.8569   -6.1742 C   0  0  0  0  0  0  0  0  0  0  0  0
    3.4585   -4.1799   -7.3807 C   0  0  0  0  0  0  0  0  0  0  0  0
    3.7852   -2.8285   -7.4846 C   0  0  0  0  0  0  0  0  0  0  0  0
    4.3759   -2.1763   -6.4088 C   0  0  0  0  0  0  0  0  0  0  0  0
    5.3136   -1.2803   -1.8018 C   0  0  0  0  0  0  0  0  0  0  0  0
    4.6404   -0.7590   -0.7702 C   0  0  0  0  0  0  0  0  0  0  0  0
    3.1582    0.8805    0.9842 C   0  0  0  0  0  0  0  0  0  0  0  0
    0.5227   -0.5946   -0.7190 H   0  0  0  0  0  0  0  0  0  0  0  0
    0.6802    1.0700   -0.1584 H   0  0  0  0  0  0  0  0  0  0  0  0
    0.6383   -0.2948    1.0285 H   0  0  0  0  0  0  0  0  0  0  0  0
    1.4663   -2.0465   -1.6346 H   0  0  0  0  0  0  0  0  0  0  0  0
    2.6950   -2.8916   -3.4262 H   0  0  0  0  0  0  0  0  0  0  0  0
    6.1809    0.2316   -4.8901 H   0  0  0  0  0  0  0  0  0  0  0  0
    8.3773    0.6842   -5.6973 H   0  0  0  0  0  0  0  0  0  0  0  0
    9.7212   -3.0716   -4.0047 H   0  0  0  0  0  0  0  0  0  0  0  0
    7.4470   -3.6638   -3.5627 H   0  0  0  0  0  0  0  0  0  0  0  0
   10.0613    0.9023   -6.5515 H   0  0  0  0  0  0  0  0  0  0  0  0
   11.1859   -0.1494   -7.3724 H   0  0  0  0  0  0  0  0  0  0  0  0
   11.6907    0.7730   -5.9350 H   0  0  0  0  0  0  0  0  0  0  0  0
   11.4160   -2.8097   -4.8126 H   0  0  0  0  0  0  0  0  0  0  0  0
   12.4966   -1.4410   -4.8928 H   0  0  0  0  0  0  0  0  0  0  0  0
   11.9619   -2.2668   -6.3793 H   0  0  0  0  0  0  0  0  0  0  0  0
    4.2248   -4.7034   -4.1207 H   0  0  0  0  0  0  0  0  0  0  0  0
    3.3661   -5.9079   -6.0916 H   0  0  0  0  0  0  0  0  0  0  0  0
    3.0786   -4.7111   -8.2482 H   0  0  0  0  0  0  0  0  0  0  0  0
    3.6030   -2.2887   -8.4096 H   0  0  0  0  0  0  0  0  0  0  0  0
    4.7080   -1.1479   -6.5283 H   0  0  0  0  0  0  0  0  0  0  0  0
    6.3994   -1.2290   -1.7905 H   0  0  0  0  0  0  0  0  0  0  0  0
    5.2074   -0.2932    0.0247 H   0  0  0  0  0  0  0  0  0  0  0  0
    2.4226    1.4319    1.5702 H   0  0  0  0  0  0  0  0  0  0  0  0
    3.7768    1.5765    0.4082 H   0  0  0  0  0  0  0  0  0  0  0  0
    3.7708    0.2651    1.6500 H   0  0  0  0  0  0  0  0  0  0  0  0
  1  2  1  0  0  0  0
  1 26  1  0  0  0  0
  1 27  1  0  0  0  0
  1 28  1  0  0  0  0
  2  3  2  0  0  0  0
  2 25  1  0  0  0  0
  3  4  1  0  0  0  0
  3 24  1  0  0  0  0
  4  5  2  0  0  0  0
  4 29  1  0  0  0  0
  5  6  1  0  0  0  0
  5 30  1  0  0  0  0
  6  7  2  0  0  0  0
  6 23  1  0  0  0  0
  7  8  1  0  0  0  0
  7 17  1  0  0  0  0
  8  9  2  0  0  0  0
  8 13  1  0  0  0  0
  9 10  1  0  0  0  0
  9 31  1  0  0  0  0
 10 11  2  0  0  0  0
 10 32  1  0  0  0  0
 11 12  1  0  0  0  0
 11 14  1  0  0  0  0
 12 13  2  0  0  0  0
 12 33  1  0  0  0  0
 13 34  1  0  0  0  0
 14 15  1  0  0  0  0
 14 16  1  0  0  0  0
 15 35  1  0  0  0  0
 15 36  1  0  0  0  0
 15 37  1  0  0  0  0
 16 38  1  0  0  0  0
 16 39  1  0  0  0  0
 16 40  1  0  0  0  0
 17 18  2  0  0  0  0
 17 22  1  0  0  0  0
 18 19  1  0  0  0  0
 18 41  1  0  0  0  0
 19 20  2  0  0  0  0
 19 42  1  0  0  0  0
 20 21  1  0  0  0  0
 20 43  1  0  0  0  0
 21 22  2  0  0  0  0
 21 44  1  0  0  0  0
 22 45  1  0  0  0  0
 23 24  2  0  0  0  0
 23 46  1  0  0  0  0
 24 47  1  0  0  0  0
 25 48  1  0  0  0  0
 25 49  1  0  0  0  0
 25 50  1  0  0  0  0
M  CHG  1   2   1
M  END
$$$$
