MGX
 OpenBabel04121316153D

 12 11  0  0  0  0  0  0  0  0999 V2000
    0.9665    0.0167    0.0757 C   0  0  0  0  0  0  0  0  0  0  0  0
    2.4026    0.1326    0.0786 N   0  0  0  0  0  0  0  0  0  0  0  0
    3.0709    1.3030    0.1071 C   0  0  0  0  0  0  0  0  0  0  0  0
    2.5509    2.4745    0.1358 N   0  0  0  0  0  0  0  0  0  0  0  0
    4.4034    1.1920    0.1044 N   0  0  0  0  0  0  0  0  0  0  0  0
    0.6581   -1.0319    0.0501 H   0  0  0  0  0  0  0  0  0  0  0  0
    0.5463    0.5181   -0.8022 H   0  0  0  0  0  0  0  0  0  0  0  0
    0.5463    0.4747    0.9770 H   0  0  0  0  0  0  0  0  0  0  0  0
    2.9283   -0.7293    0.0575 H   0  0  0  0  0  0  0  0  0  0  0  0
    1.5350    2.3861    0.1336 H   0  0  0  0  0  0  0  0  0  0  0  0
    4.9132    0.3277    0.0833 H   0  0  0  0  0  0  0  0  0  0  0  0
    4.9162    2.0639    0.1257 H   0  0  0  0  0  0  0  0  0  0  0  0
  1  2  1  0  0  0  0
  1  6  1  0  0  0  0
  1  7  1  0  0  0  0
  1  8  1  0  0  0  0
  2  3  1  0  0  0  0
  2  9  1  0  0  0  0
  3  4  2  0  0  0  0
  3  5  1  0  0  0  0
  4 10  1  0  0  0  0
  5 11  1  0  0  0  0
  5 12  1  0  0  0  0
M  END
$$$$
