MHF
 OpenBabel04121316153D

 56 59  0  0  1  0  0  0  0  0999 V2000
    1.0190    0.0420    0.1013 O   0  0  0  0  0  0  0  0  0  0  0  0
    2.3647    0.1289    0.1851 C   0  0  0  0  0  0  0  0  0  0  0  0
    2.9395    1.1393    0.5570 O   0  0  0  0  0  0  0  0  0  0  0  0
    3.0544   -1.1279   -0.2656 C   0  0  0  0  0  0  0  0  0  0  0  0
    4.5735   -0.9842   -0.2448 C   0  0  0  0  0  0  0  0  0  0  0  0
    5.3138   -2.2488   -0.6937 C   0  0  1  0  0  0  0  0  0  0  0  0
    5.0567   -3.1094   -0.0654 H   0  0  0  0  0  0  0  0  0  0  0  0
    5.0427   -2.5820   -2.1884 C   0  0  0  0  0  0  0  0  0  0  0  0
    5.8445   -2.4286   -3.1002 O   0  0  0  0  0  0  0  0  0  0  0  0
    3.7874   -3.0244   -2.4476 O   0  0  0  0  0  0  0  0  0  0  0  0
    6.7385   -2.0252   -0.5174 N   0  0  0  0  0  0  0  0  0  0  0  0
    7.6288   -3.0410   -0.7794 C   0  0  0  0  0  0  0  0  0  0  0  0
    7.2655   -4.1796   -1.0532 O   0  0  0  0  0  0  0  0  0  0  0  0
    9.0640   -2.6914   -0.7252 C   0  0  0  0  0  0  0  0  0  0  0  0
    9.5114   -1.3716   -0.6538 C   0  0  0  0  0  0  0  0  0  0  0  0
   10.8654   -1.0919   -0.7478 C   0  0  0  0  0  0  0  0  0  0  0  0
   11.8017   -2.1139   -0.8777 C   0  0  0  0  0  0  0  0  0  0  0  0
   11.3431   -3.4363   -0.7183 C   0  0  0  0  0  0  0  0  0  0  0  0
    9.9875   -3.7309   -0.7511 C   0  0  0  0  0  0  0  0  0  0  0  0
   13.1328   -1.8552   -1.2084 N   0  0  0  0  0  0  0  0  0  0  0  0
   13.5227   -0.5369   -1.7479 C   0  0  0  0  0  0  0  0  0  0  0  0
   14.1504   -0.8167   -3.1066 C   0  0  2  0  0  0  0  0  0  0  0  0
   13.4524   -0.5282   -3.9058 H   0  0  0  0  0  0  0  0  0  0  0  0
   14.3544   -2.2588   -3.1368 N   0  0  0  0  0  0  0  0  0  0  0  0
   13.7147   -2.9193   -2.0422 C   0  0  0  0  0  0  0  0  0  0  0  0
   15.2764   -2.8411   -4.0039 C   0  0  0  0  0  0  0  0  0  0  0  0
   16.1262   -2.0834   -4.7471 C   0  0  0  0  0  0  0  0  0  0  0  0
   16.1249   -0.7018   -4.5430 N   0  0  0  0  0  0  0  0  0  0  0  0
   15.5089   -0.1363   -3.3252 C   0  0  0  0  0  0  0  0  0  0  0  0
   16.9626   -2.7251   -5.6210 N   0  0  0  0  0  0  0  0  0  0  0  0
   17.5910   -2.1519   -6.1551 H   0  0  0  0  0  0  0  0  0  0  0  0
   16.9039   -4.0700   -5.8031 C   0  0  0  0  0  0  0  0  0  0  0  0
   16.1714   -4.8784   -5.1074 N   0  0  0  0  0  0  0  0  0  0  0  0
   15.5042   -4.3423   -4.0362 C   0  0  0  0  0  0  0  0  0  0  0  0
   15.1376   -5.0437   -3.0854 O   0  0  0  0  0  0  0  0  0  0  0  0
   17.6588   -4.5700   -6.8063 N   0  0  0  0  0  0  0  0  0  0  0  0
    0.6677   -0.7894   -0.2710 H   0  0  0  0  0  0  0  0  0  0  0  0
    2.7105   -1.2872   -1.2888 H   0  0  0  0  0  0  0  0  0  0  0  0
    2.7532   -1.9683    0.3699 H   0  0  0  0  0  0  0  0  0  0  0  0
    4.8963   -0.7135    0.7720 H   0  0  0  0  0  0  0  0  0  0  0  0
    4.8697   -0.1395   -0.8820 H   0  0  0  0  0  0  0  0  0  0  0  0
    3.2305   -3.1972   -1.6706 H   0  0  0  0  0  0  0  0  0  0  0  0
    7.0592   -1.0994   -0.2798 H   0  0  0  0  0  0  0  0  0  0  0  0
    8.8508   -0.5192   -0.5809 H   0  0  0  0  0  0  0  0  0  0  0  0
   11.1461   -0.0463   -0.7707 H   0  0  0  0  0  0  0  0  0  0  0  0
   12.0386   -4.2732   -0.6635 H   0  0  0  0  0  0  0  0  0  0  0  0
    9.6650   -4.7675   -0.8201 H   0  0  0  0  0  0  0  0  0  0  0  0
   14.2103   -0.0401   -1.0549 H   0  0  0  0  0  0  0  0  0  0  0  0
   12.6989    0.1600   -1.9216 H   0  0  0  0  0  0  0  0  0  0  0  0
   14.4174   -3.4902   -1.4292 H   0  0  0  0  0  0  0  0  0  0  0  0
   12.9699   -3.5889   -2.4872 H   0  0  0  0  0  0  0  0  0  0  0  0
   16.5938   -0.0933   -5.1966 H   0  0  0  0  0  0  0  0  0  0  0  0
   15.4028    0.9500   -3.3880 H   0  0  0  0  0  0  0  0  0  0  0  0
   16.1632   -0.3601   -2.4704 H   0  0  0  0  0  0  0  0  0  0  0  0
   18.4711   -4.0776   -7.1424 H   0  0  0  0  0  0  0  0  0  0  0  0
   17.7478   -5.5832   -6.7787 H   0  0  0  0  0  0  0  0  0  0  0  0
  1  2  1  0  0  0  0
  1 37  1  0  0  0  0
  2  3  2  0  0  0  0
  2  4  1  0  0  0  0
  4  5  1  0  0  0  0
  4 38  1  0  0  0  0
  4 39  1  0  0  0  0
  5  6  1  0  0  0  0
  5 40  1  0  0  0  0
  5 41  1  0  0  0  0
  6  7  1  1  0  0  0
  6  8  1  0  0  0  0
  6 11  1  0  0  0  0
  8  9  2  0  0  0  0
  8 10  1  0  0  0  0
 10 42  1  0  0  0  0
 11 12  1  0  0  0  0
 11 43  1  0  0  0  0
 12 13  2  0  0  0  0
 12 14  1  0  0  0  0
 14 15  2  0  0  0  0
 14 19  1  0  0  0  0
 15 16  1  0  0  0  0
 15 44  1  0  0  0  0
 16 17  2  0  0  0  0
 16 45  1  0  0  0  0
 17 18  1  0  0  0  0
 17 20  1  0  0  0  0
 18 19  2  0  0  0  0
 18 46  1  0  0  0  0
 19 47  1  0  0  0  0
 20 21  1  0  0  0  0
 20 25  1  0  0  0  0
 21 22  1  0  0  0  0
 21 48  1  0  0  0  0
 21 49  1  0  0  0  0
 22 24  1  0  0  0  0
 22 29  1  0  0  0  0
 22 23  1  6  0  0  0
 24 25  1  0  0  0  0
 24 26  1  0  0  0  0
 25 50  1  0  0  0  0
 25 51  1  0  0  0  0
 26 27  2  0  0  0  0
 26 34  1  0  0  0  0
 27 28  1  0  0  0  0
 27 30  1  0  0  0  0
 28 29  1  0  0  0  0
 28 52  1  0  0  0  0
 29 53  1  0  0  0  0
 29 54  1  0  0  0  0
 30 32  1  0  0  0  0
 30 31  1  0  0  0  0
 32 33  2  0  0  0  0
 32 36  1  0  0  0  0
 33 34  1  0  0  0  0
 34 35  2  0  0  0  0
 36 55  1  0  0  0  0
 36 56  1  0  0  0  0
M  END
$$$$
