MHR
 OpenBabel04121316153D

 35 37  0  0  0  0  0  0  0  0999 V2000
    1.0610    0.0521    0.0388 C   0  0  0  0  0  0  0  0  0  0  0  0
    2.5752    0.0266    0.0163 C   0  0  0  0  0  0  0  0  0  0  0  0
    3.0815   -0.9685   -1.0176 C   0  0  0  0  0  0  0  0  0  0  0  0
    4.5033   -0.9979   -0.9056 O   0  0  0  0  0  0  0  0  0  0  0  0
    5.0733   -1.7787   -1.8771 C   0  0  0  0  0  0  0  0  0  0  0  0
    4.8867   -3.1562   -1.8607 C   0  0  0  0  0  0  0  0  0  0  0  0
    5.5233   -3.9151   -2.8262 C   0  0  0  0  0  0  0  0  0  0  0  0
    6.3446   -3.4414   -3.7928 N   0  0  0  0  0  0  0  0  0  0  0  0
    6.5073   -2.1043   -3.7424 C   0  0  0  0  0  0  0  0  0  0  0  0
    5.9303   -1.2157   -2.8407 C   0  0  0  0  0  0  0  0  0  0  0  0
    6.4159    0.0934   -3.1662 C   0  0  0  0  0  0  0  0  0  0  0  0
    7.2647   -0.0554   -4.2524 C   0  0  0  0  0  0  0  0  0  0  0  0
    7.3051   -1.3854   -4.5905 N   0  0  0  0  0  0  0  0  0  0  0  0
    7.8511   -1.7984   -5.3326 H   0  0  0  0  0  0  0  0  0  0  0  0
    6.2358    1.3593   -2.4630 C   0  0  0  0  0  0  0  0  0  0  0  0
    6.2621    1.3800   -1.0881 C   0  0  0  0  0  0  0  0  0  0  0  0
    6.3407    2.6120   -0.5072 C   0  0  0  0  0  0  0  0  0  0  0  0
    6.2603    3.7578   -1.2043 N   0  0  0  0  0  0  0  0  0  0  0  0
    6.1446    3.6393   -2.5288 C   0  0  0  0  0  0  0  0  0  0  0  0
    6.1680    2.4889   -3.2073 N   0  0  0  0  0  0  0  0  0  0  0  0
    5.9954    4.8120   -3.2349 N   0  0  0  0  0  0  0  0  0  0  0  0
    0.7014    0.7580    0.7921 H   0  0  0  0  0  0  0  0  0  0  0  0
    0.6632   -0.9392    0.2793 H   0  0  0  0  0  0  0  0  0  0  0  0
    0.6651    0.3532   -0.9360 H   0  0  0  0  0  0  0  0  0  0  0  0
    2.9634   -0.2421    1.0066 H   0  0  0  0  0  0  0  0  0  0  0  0
    2.9714    1.0259   -0.2017 H   0  0  0  0  0  0  0  0  0  0  0  0
    2.7771   -0.6576   -2.0254 H   0  0  0  0  0  0  0  0  0  0  0  0
    2.6670   -1.9594   -0.8011 H   0  0  0  0  0  0  0  0  0  0  0  0
    4.2692   -3.6247   -1.1041 H   0  0  0  0  0  0  0  0  0  0  0  0
    5.3770   -4.9928   -2.8380 H   0  0  0  0  0  0  0  0  0  0  0  0
    7.8637    0.6688   -4.7912 H   0  0  0  0  0  0  0  0  0  0  0  0
    6.2852    0.4858   -0.4811 H   0  0  0  0  0  0  0  0  0  0  0  0
    6.5063    2.7102    0.5600 H   0  0  0  0  0  0  0  0  0  0  0  0
    5.7112    5.5988   -2.6739 H   0  0  0  0  0  0  0  0  0  0  0  0
    5.6926    4.7078   -4.1870 H   0  0  0  0  0  0  0  0  0  0  0  0
  1  2  1  0  0  0  0
  1 22  1  0  0  0  0
  1 23  1  0  0  0  0
  1 24  1  0  0  0  0
  2  3  1  0  0  0  0
  2 25  1  0  0  0  0
  2 26  1  0  0  0  0
  3  4  1  0  0  0  0
  3 27  1  0  0  0  0
  3 28  1  0  0  0  0
  4  5  1  0  0  0  0
  5  6  2  0  0  0  0
  5 10  1  0  0  0  0
  6  7  1  0  0  0  0
  6 29  1  0  0  0  0
  7  8  2  0  0  0  0
  7 30  1  0  0  0  0
  8  9  1  0  0  0  0
  9 10  2  0  0  0  0
  9 13  1  0  0  0  0
 10 11  1  0  0  0  0
 11 12  2  0  0  0  0
 11 15  1  0  0  0  0
 12 13  1  0  0  0  0
 12 31  1  0  0  0  0
 13 14  1  0  0  0  0
 15 16  2  0  0  0  0
 15 20  1  0  0  0  0
 16 17  1  0  0  0  0
 16 32  1  0  0  0  0
 17 18  2  0  0  0  0
 17 33  1  0  0  0  0
 18 19  1  0  0  0  0
 19 20  2  0  0  0  0
 19 21  1  0  0  0  0
 21 34  1  0  0  0  0
 21 35  1  0  0  0  0
M  END
$$$$
