MHZ
 OpenBabel04121316153D

 49 51  0  0  1  0  0  0  0  0999 V2000
    0.9408   -0.0853    0.0414 N   0  0  0  0  0  0  0  0  0  0  0  0
    2.3495   -0.1750   -0.1477 N   0  0  0  0  0  0  0  0  0  0  0  0
    2.6642   -1.2902   -1.0729 C   0  0  0  0  0  0  0  0  0  0  0  0
    4.1581   -1.3825   -1.2284 C   0  0  0  0  0  0  0  0  0  0  0  0
    4.9044   -2.4863   -1.9184 C   0  0  0  0  0  0  0  0  0  0  0  0
    6.3844   -2.2973   -1.8184 N   0  0  0  0  0  0  0  0  0  0  0  0
    6.9691   -2.3495   -0.4461 C   0  0  0  0  0  0  0  0  0  0  0  0
    6.6088   -1.1768    0.5360 C   0  0  1  0  0  0  0  0  0  0  0  0
    5.7351   -1.5051    1.1125 H   0  0  0  0  0  0  0  0  0  0  0  0
    7.5891   -0.9464    1.5550 O   0  0  0  0  0  0  0  0  0  0  0  0
    7.2840    0.3749    2.0564 C   0  0  2  0  0  0  0  0  0  0  0  0
    6.4368    0.3123    2.7527 H   0  0  0  0  0  0  0  0  0  0  0  0
    6.9919    1.2335    0.8372 C   0  0  1  0  0  0  0  0  0  0  0  0
    7.8829    1.6805    0.3891 H   0  0  0  0  0  0  0  0  0  0  0  0
    6.4268    0.2164   -0.1186 C   0  0  2  0  0  0  0  0  0  0  0  0
    6.9086    0.2546   -1.1006 H   0  0  0  0  0  0  0  0  0  0  0  0
    5.0749    0.6317   -0.2178 O   0  0  0  0  0  0  0  0  0  0  0  0
    6.0347    2.2924    1.0531 O   0  0  0  0  0  0  0  0  0  0  0  0
    8.4013    0.9383    2.7721 N   0  0  0  0  0  0  0  0  0  0  0  0
    8.4775    2.2477    3.1799 C   0  0  0  0  0  0  0  0  0  0  0  0
    9.6446    2.5449    3.6831 N   0  0  0  0  0  0  0  0  0  0  0  0
   10.3428    1.3551    3.6241 C   0  0  0  0  0  0  0  0  0  0  0  0
    9.5933    0.3533    3.0617 C   0  0  0  0  0  0  0  0  0  0  0  0
    9.9728   -0.9231    2.8462 N   0  0  0  0  0  0  0  0  0  0  0  0
   11.2234   -1.1299    3.2749 C   0  0  0  0  0  0  0  0  0  0  0  0
   12.0670   -0.2492    3.8495 N   0  0  0  0  0  0  0  0  0  0  0  0
   11.6381    1.0223    4.0323 C   0  0  0  0  0  0  0  0  0  0  0  0
   12.4719    1.9417    4.6090 N   0  0  0  0  0  0  0  0  0  0  0  0
    7.0082   -3.2928   -2.6970 C   0  0  0  0  0  0  0  0  0  0  0  0
    0.6949    0.6890    0.6636 H   0  0  0  0  0  0  0  0  0  0  0  0
    0.5549   -0.9344    0.4537 H   0  0  0  0  0  0  0  0  0  0  0  0
    2.8993   -0.2402    0.7216 H   0  0  0  0  0  0  0  0  0  0  0  0
    2.2278   -1.0772   -2.0473 H   0  0  0  0  0  0  0  0  0  0  0  0
    2.2979   -2.2292   -0.6563 H   0  0  0  0  0  0  0  0  0  0  0  0
    4.4651   -1.4389   -0.1967 H   0  0  0  0  0  0  0  0  0  0  0  0
    4.4633   -0.4909   -1.7845 H   0  0  0  0  0  0  0  0  0  0  0  0
    4.6279   -2.4122   -2.9760 H   0  0  0  0  0  0  0  0  0  0  0  0
    4.6016   -3.4617   -1.5341 H   0  0  0  0  0  0  0  0  0  0  0  0
    8.0673   -2.3885   -0.5136 H   0  0  0  0  0  0  0  0  0  0  0  0
    6.6938   -3.3076    0.0222 H   0  0  0  0  0  0  0  0  0  0  0  0
    5.0398    1.3498   -0.8757 H   0  0  0  0  0  0  0  0  0  0  0  0
    6.2841    2.8977    1.7584 H   0  0  0  0  0  0  0  0  0  0  0  0
    7.6665    2.9568    3.0673 H   0  0  0  0  0  0  0  0  0  0  0  0
   11.6007   -2.1416    3.1411 H   0  0  0  0  0  0  0  0  0  0  0  0
   13.3832    1.6422    4.9086 H   0  0  0  0  0  0  0  0  0  0  0  0
   12.1270    2.8840    4.7457 H   0  0  0  0  0  0  0  0  0  0  0  0
    6.6899   -3.1163   -3.7320 H   0  0  0  0  0  0  0  0  0  0  0  0
    6.7158   -4.3108   -2.4177 H   0  0  0  0  0  0  0  0  0  0  0  0
    8.1007   -3.2248   -2.6943 H   0  0  0  0  0  0  0  0  0  0  0  0
  1  2  1  0  0  0  0
  1 30  1  0  0  0  0
  1 31  1  0  0  0  0
  2  3  1  0  0  0  0
  2 32  1  0  0  0  0
  3  4  1  0  0  0  0
  3 33  1  0  0  0  0
  3 34  1  0  0  0  0
  4  5  1  0  0  0  0
  4 35  1  0  0  0  0
  4 36  1  0  0  0  0
  5  6  1  0  0  0  0
  5 37  1  0  0  0  0
  5 38  1  0  0  0  0
  6  7  1  0  0  0  0
  6 29  1  0  0  0  0
  7  8  1  0  0  0  0
  7 39  1  0  0  0  0
  7 40  1  0  0  0  0
  8  9  1  1  0  0  0
  8 10  1  0  0  0  0
  8 15  1  0  0  0  0
 10 11  1  0  0  0  0
 11 13  1  0  0  0  0
 11 19  1  0  0  0  0
 11 12  1  1  0  0  0
 13 14  1  6  0  0  0
 13 15  1  0  0  0  0
 13 18  1  0  0  0  0
 15 16  1  6  0  0  0
 15 17  1  0  0  0  0
 17 41  1  0  0  0  0
 18 42  1  0  0  0  0
 19 20  1  0  0  0  0
 19 23  1  0  0  0  0
 20 21  2  0  0  0  0
 20 43  1  0  0  0  0
 21 22  1  0  0  0  0
 22 23  2  0  0  0  0
 22 27  1  0  0  0  0
 23 24  1  0  0  0  0
 24 25  2  0  0  0  0
 25 26  1  0  0  0  0
 25 44  1  0  0  0  0
 26 27  2  0  0  0  0
 27 28  1  0  0  0  0
 28 45  1  0  0  0  0
 28 46  1  0  0  0  0
 29 47  1  0  0  0  0
 29 48  1  0  0  0  0
 29 49  1  0  0  0  0
M  END
$$$$
