MI1
 OpenBabel04121316153D

 43 45  0  0  1  0  0  0  0  0999 V2000
    1.0524   -0.0509    0.0683 N   0  0  0  0  0  0  0  0  0  0  0  0
    2.2034   -0.0509    0.0683 C   0  0  0  0  0  0  0  0  0  0  0  0
    3.6474   -0.0509    0.0683 C   0  0  0  0  0  0  0  0  0  0  0  0
    4.1912    0.7346    1.2747 C   0  0  0  0  0  0  0  0  0  0  0  0
    3.4727    1.4080    2.0235 O   0  0  0  0  0  0  0  0  0  0  0  0
    5.5737    0.7897    1.3792 N   0  0  0  0  0  0  0  0  0  0  0  0
    6.4142   -0.3559    1.7087 C   0  0  0  0  0  0  0  0  0  0  0  0
    7.6558   -0.4083    0.8208 C   0  0  0  0  0  0  0  0  0  0  0  0
    8.3741    0.9722    0.7165 C   0  0  2  0  0  0  0  0  0  0  0  0
    8.8132    1.1450    1.7094 H   0  0  0  0  0  0  0  0  0  0  0  0
    7.3833    2.1529    0.4489 C   0  0  2  0  0  0  0  0  0  0  0  0
    7.9386    3.0902    0.6019 H   0  0  0  0  0  0  0  0  0  0  0  0
    6.2326    2.0929    1.4935 C   0  0  0  0  0  0  0  0  0  0  0  0
    6.8615    2.1013   -0.9385 N   0  0  0  0  0  0  0  0  0  0  0  0
    6.2034    3.2056   -1.4727 C   0  0  0  0  0  0  0  0  0  0  0  0
    6.3411    4.4263   -0.8861 N   0  0  0  0  0  0  0  0  0  0  0  0
    5.8249    5.5124   -1.5039 C   0  0  0  0  0  0  0  0  0  0  0  0
    5.1761    5.5769   -2.6816 N   0  0  0  0  0  0  0  0  0  0  0  0
    5.0479    4.3606   -3.2271 C   0  0  0  0  0  0  0  0  0  0  0  0
    5.4644    3.1586   -2.6841 C   0  0  0  0  0  0  0  0  0  0  0  0
    5.0071    2.1544   -3.5973 C   0  0  0  0  0  0  0  0  0  0  0  0
    4.6915    2.7791   -4.7745 C   0  0  0  0  0  0  0  0  0  0  0  0
    4.4919    4.0919   -4.4525 N   0  0  0  0  0  0  0  0  0  0  0  0
    4.0383    4.7754   -5.0361 H   0  0  0  0  0  0  0  0  0  0  0  0
    6.7674    0.8609   -1.6759 C   0  0  0  0  0  0  0  0  0  0  0  0
    9.5621    0.9782   -0.2665 C   0  0  0  0  0  0  0  0  0  0  0  0
    3.9865    0.4464   -0.8410 H   0  0  0  0  0  0  0  0  0  0  0  0
    4.0406   -1.0705    0.0964 H   0  0  0  0  0  0  0  0  0  0  0  0
    5.8352   -1.2792    1.6268 H   0  0  0  0  0  0  0  0  0  0  0  0
    6.7342   -0.2535    2.7525 H   0  0  0  0  0  0  0  0  0  0  0  0
    7.3182   -0.8066   -0.1333 H   0  0  0  0  0  0  0  0  0  0  0  0
    8.3595   -1.1720    1.1625 H   0  0  0  0  0  0  0  0  0  0  0  0
    5.5074    2.9020    1.3439 H   0  0  0  0  0  0  0  0  0  0  0  0
    6.6257    2.2017    2.5150 H   0  0  0  0  0  0  0  0  0  0  0  0
    5.9674    6.4605   -0.9918 H   0  0  0  0  0  0  0  0  0  0  0  0
    5.0403    1.0790   -3.5003 H   0  0  0  0  0  0  0  0  0  0  0  0
    4.5140    2.3717   -5.7601 H   0  0  0  0  0  0  0  0  0  0  0  0
    6.7787    0.9957   -2.7477 H   0  0  0  0  0  0  0  0  0  0  0  0
    5.9131    0.2711   -1.3511 H   0  0  0  0  0  0  0  0  0  0  0  0
    7.6389    0.2249   -1.6285 H   0  0  0  0  0  0  0  0  0  0  0  0
    9.2954    0.9741   -1.3253 H   0  0  0  0  0  0  0  0  0  0  0  0
   10.1974    0.1041   -0.1077 H   0  0  0  0  0  0  0  0  0  0  0  0
   10.1563    1.8879   -0.1433 H   0  0  0  0  0  0  0  0  0  0  0  0
  1  2  3  0  0  0  0
  2  3  1  0  0  0  0
  3  4  1  0  0  0  0
  3 27  1  0  0  0  0
  3 28  1  0  0  0  0
  4  5  2  0  0  0  0
  4  6  1  0  0  0  0
  6  7  1  0  0  0  0
  6 13  1  0  0  0  0
  7  8  1  0  0  0  0
  7 29  1  0  0  0  0
  7 30  1  0  0  0  0
  8  9  1  0  0  0  0
  8 31  1  0  0  0  0
  8 32  1  0  0  0  0
  9 11  1  0  0  0  0
  9 26  1  0  0  0  0
  9 10  1  1  0  0  0
 11 13  1  0  0  0  0
 11 14  1  0  0  0  0
 11 12  1  1  0  0  0
 13 33  1  0  0  0  0
 13 34  1  0  0  0  0
 14 15  1  0  0  0  0
 14 25  1  0  0  0  0
 15 16  2  0  0  0  0
 15 20  1  0  0  0  0
 16 17  1  0  0  0  0
 17 18  2  0  0  0  0
 17 35  1  0  0  0  0
 18 19  1  0  0  0  0
 19 20  2  0  0  0  0
 19 23  1  0  0  0  0
 20 21  1  0  0  0  0
 21 22  2  0  0  0  0
 21 36  1  0  0  0  0
 22 23  1  0  0  0  0
 22 37  1  0  0  0  0
 23 24  1  0  0  0  0
 25 38  1  0  0  0  0
 25 39  1  0  0  0  0
 25 40  1  0  0  0  0
 26 41  1  0  0  0  0
 26 42  1  0  0  0  0
 26 43  1  0  0  0  0
M  END
$$$$
