MI2
 OpenBabel04121316153D

 34 36  0  0  0  0  0  0  0  0999 V2000
    0.9879    0.0164    0.0771 C   0  0  0  0  0  0  0  0  0  0  0  0
    2.4821   -0.0878    0.0381 C   0  0  0  0  0  0  0  0  0  0  0  0
    3.2172    1.1196    0.0331 C   0  0  0  0  0  0  0  0  0  0  0  0
    4.5937    1.1232   -0.1556 C   0  0  0  0  0  0  0  0  0  0  0  0
    5.2650   -0.0890   -0.2233 C   0  0  0  0  0  0  0  0  0  0  0  0
    4.5564   -1.2987   -0.1021 C   0  0  0  0  0  0  0  0  0  0  0  0
    3.1459   -1.3313   -0.0304 C   0  0  0  0  0  0  0  0  0  0  0  0
    2.4384   -2.6407   -0.1051 C   0  0  0  0  0  0  0  0  0  0  0  0
    2.7469   -3.8752    0.4517 C   0  0  0  0  0  0  0  0  0  0  0  0
    1.9927   -4.8800   -0.2256 C   0  0  0  0  0  0  0  0  0  0  0  0
    1.0877   -4.2282   -1.0482 C   0  0  0  0  0  0  0  0  0  0  0  0
    1.2954   -2.8806   -0.8552 N   0  0  0  0  0  0  0  0  0  0  0  0
    0.7336   -2.1822   -1.3114 H   0  0  0  0  0  0  0  0  0  0  0  0
    0.1916   -4.9072   -1.8831 C   0  0  0  0  0  0  0  0  0  0  0  0
    0.2715   -6.3068   -1.9104 C   0  0  0  0  0  0  0  0  0  0  0  0
    1.1814   -7.0078   -1.1071 C   0  0  0  0  0  0  0  0  0  0  0  0
    2.0280   -6.2895   -0.2413 C   0  0  0  0  0  0  0  0  0  0  0  0
    1.2628   -8.5073   -1.1837 C   0  0  0  0  0  0  0  0  0  0  0  0
    2.0856   -9.2247   -0.4916 N   0  0  0  0  0  0  0  0  0  0  0  0
    0.4542   -9.2219   -2.0126 N   0  0  0  0  0  0  0  0  0  0  0  0
    0.6523    1.0489    0.2018 H   0  0  0  0  0  0  0  0  0  0  0  0
    0.5874   -0.5797    0.9008 H   0  0  0  0  0  0  0  0  0  0  0  0
    0.5796   -0.3153   -0.8798 H   0  0  0  0  0  0  0  0  0  0  0  0
    2.7076    2.0738    0.1565 H   0  0  0  0  0  0  0  0  0  0  0  0
    5.1319    2.0646   -0.2476 H   0  0  0  0  0  0  0  0  0  0  0  0
    6.3425   -0.0917   -0.3754 H   0  0  0  0  0  0  0  0  0  0  0  0
    5.1332   -2.2214   -0.1044 H   0  0  0  0  0  0  0  0  0  0  0  0
    3.5226   -4.0643    1.1810 H   0  0  0  0  0  0  0  0  0  0  0  0
   -0.5170   -4.3844   -2.5189 H   0  0  0  0  0  0  0  0  0  0  0  0
   -0.3957   -6.8273   -2.5910 H   0  0  0  0  0  0  0  0  0  0  0  0
    2.7567   -6.7742    0.3926 H   0  0  0  0  0  0  0  0  0  0  0  0
    2.6822   -8.6644    0.1181 H   0  0  0  0  0  0  0  0  0  0  0  0
   -0.2348   -8.8348   -2.6308 H   0  0  0  0  0  0  0  0  0  0  0  0
    0.5764  -10.2263   -1.9983 H   0  0  0  0  0  0  0  0  0  0  0  0
  1  2  1  0  0  0  0
  1 21  1  0  0  0  0
  1 22  1  0  0  0  0
  1 23  1  0  0  0  0
  2  3  2  0  0  0  0
  2  7  1  0  0  0  0
  3  4  1  0  0  0  0
  3 24  1  0  0  0  0
  4  5  2  0  0  0  0
  4 25  1  0  0  0  0
  5  6  1  0  0  0  0
  5 26  1  0  0  0  0
  6  7  2  0  0  0  0
  6 27  1  0  0  0  0
  7  8  1  0  0  0  0
  8  9  2  0  0  0  0
  8 12  1  0  0  0  0
  9 10  1  0  0  0  0
  9 28  1  0  0  0  0
 10 11  2  0  0  0  0
 10 17  1  0  0  0  0
 11 12  1  0  0  0  0
 11 14  1  0  0  0  0
 12 13  1  0  0  0  0
 14 15  2  0  0  0  0
 14 29  1  0  0  0  0
 15 16  1  0  0  0  0
 15 30  1  0  0  0  0
 16 17  2  0  0  0  0
 16 18  1  0  0  0  0
 17 31  1  0  0  0  0
 18 19  2  0  0  0  0
 18 20  1  0  0  0  0
 19 32  1  0  0  0  0
 20 33  1  0  0  0  0
 20 34  1  0  0  0  0
M  END
$$$$
