MI5
 OpenBabel04121316153D

 50 54  0  0  1  0  0  0  0  0999 V2000
   -1.0999   -7.6159   -3.2307 C   0  0  0  0  0  0  0  0  0  0  0  0
   -0.7144   -8.7189   -2.3120 C   0  0  0  0  0  0  0  0  0  0  0  0
   -1.0667   -9.9840   -2.5100 N   0  0  0  0  0  0  0  0  0  0  0  0
   -0.3974  -10.9190   -1.2985 S   0  0  0  0  0  0  0  0  0  0  0  0
    0.4334   -9.6450   -0.4965 C   0  0  0  0  0  0  0  0  0  0  0  0
    0.0417   -8.4841   -1.1454 C   0  0  0  0  0  0  0  0  0  0  0  0
    1.2734   -9.8229    0.5739 N   0  0  0  0  0  0  0  0  0  0  0  0
    2.0538   -8.8329    1.1737 C   0  0  0  0  0  0  0  0  0  0  0  0
    2.2970   -7.6751    0.5726 C   0  0  0  0  0  0  0  0  0  0  0  0
    2.9839   -6.5693    1.2296 C   0  0  0  0  0  0  0  0  0  0  0  0
    3.5424   -6.7221    2.3902 N   0  0  0  0  0  0  0  0  0  0  0  0
    3.4412   -7.9773    2.9628 C   0  0  0  0  0  0  0  0  0  0  0  0
    2.6950   -9.0306    2.4109 N   0  0  0  0  0  0  0  0  0  0  0  0
    2.7695  -10.1651    3.1699 N   0  0  0  0  0  0  0  0  0  0  0  0
    3.5654   -9.8232    4.1898 C   0  0  0  0  0  0  0  0  0  0  0  0
    3.9933   -8.4932    4.1105 C   0  0  0  0  0  0  0  0  0  0  0  0
    4.8399   -7.7615    5.0135 C   0  0  0  0  0  0  0  0  0  0  0  0
    5.4590   -8.1913    6.1946 C   0  0  0  0  0  0  0  0  0  0  0  0
    6.1740   -7.2115    6.7664 N   0  0  0  0  0  0  0  0  0  0  0  0
    5.9941   -6.1683    5.9319 N   0  0  0  0  0  0  0  0  0  0  0  0
    5.2029   -6.4477    4.8724 C   0  0  0  0  0  0  0  0  0  0  0  0
    6.5951   -4.8811    6.1585 C   0  0  0  0  0  0  0  0  0  0  0  0
    3.0421   -5.2424    0.4619 C   0  0  2  0  0  0  0  0  0  0  0  0
    4.1100   -5.0041    0.3816 H   0  0  0  0  0  0  0  0  0  0  0  0
    2.3335   -4.1137    1.2118 C   0  0  0  0  0  0  0  0  0  0  0  0
    2.5552   -2.8176    0.4323 C   0  0  0  0  0  0  0  0  0  0  0  0
    2.0140   -2.9329   -0.9929 C   0  0  0  0  0  0  0  0  0  0  0  0
    2.6335   -4.0435   -1.7158 N   0  0  0  0  0  0  0  0  0  0  0  0
    2.4612   -5.2896   -0.9775 C   0  0  0  0  0  0  0  0  0  0  0  0
   -1.7826   -7.9534   -4.0088 H   0  0  0  0  0  0  0  0  0  0  0  0
   -0.2055   -7.1850   -3.7007 H   0  0  0  0  0  0  0  0  0  0  0  0
   -1.5773   -6.8080   -2.6614 H   0  0  0  0  0  0  0  0  0  0  0  0
    0.2820   -7.4666   -0.8918 H   0  0  0  0  0  0  0  0  0  0  0  0
    1.3525  -10.7346    1.0259 H   0  0  0  0  0  0  0  0  0  0  0  0
    2.0471   -7.5217   -0.4465 H   0  0  0  0  0  0  0  0  0  0  0  0
    3.7969  -10.5593    4.9504 H   0  0  0  0  0  0  0  0  0  0  0  0
    5.4216   -9.1668    6.6612 H   0  0  0  0  0  0  0  0  0  0  0  0
    4.9676   -5.7063    4.1212 H   0  0  0  0  0  0  0  0  0  0  0  0
    7.1857   -4.9054    7.0725 H   0  0  0  0  0  0  0  0  0  0  0  0
    5.7876   -4.1469    6.2335 H   0  0  0  0  0  0  0  0  0  0  0  0
    7.2236   -4.6519    5.2927 H   0  0  0  0  0  0  0  0  0  0  0  0
    2.7172   -4.0143    2.2317 H   0  0  0  0  0  0  0  0  0  0  0  0
    1.2563   -4.3191    1.2957 H   0  0  0  0  0  0  0  0  0  0  0  0
    3.6321   -2.6082    0.3932 H   0  0  0  0  0  0  0  0  0  0  0  0
    2.0765   -1.9804    0.9470 H   0  0  0  0  0  0  0  0  0  0  0  0
    2.2112   -2.0071   -1.5412 H   0  0  0  0  0  0  0  0  0  0  0  0
    0.9251   -3.0679   -0.9750 H   0  0  0  0  0  0  0  0  0  0  0  0
    3.6319   -3.8642   -1.8242 H   0  0  0  0  0  0  0  0  0  0  0  0
    2.9383   -6.0838   -1.5637 H   0  0  0  0  0  0  0  0  0  0  0  0
    1.3847   -5.5136   -0.9560 H   0  0  0  0  0  0  0  0  0  0  0  0
  1  2  1  0  0  0  0
  1 30  1  0  0  0  0
  1 31  1  0  0  0  0
  1 32  1  0  0  0  0
  2  3  2  0  0  0  0
  2  6  1  0  0  0  0
  3  4  1  0  0  0  0
  4  5  1  0  0  0  0
  5  6  2  0  0  0  0
  5  7  1  0  0  0  0
  6 33  1  0  0  0  0
  7  8  1  0  0  0  0
  7 34  1  0  0  0  0
  8  9  2  0  0  0  0
  8 13  1  0  0  0  0
  9 10  1  0  0  0  0
  9 35  1  0  0  0  0
 10 11  2  0  0  0  0
 11 12  1  0  0  0  0
 12 13  1  0  0  0  0
 12 16  2  0  0  0  0
 13 14  1  0  0  0  0
 14 15  2  0  0  0  0
 15 16  1  0  0  0  0
 15 36  1  0  0  0  0
 16 17  1  0  0  0  0
 17 18  1  0  0  0  0
 17 21  2  0  0  0  0
 18 19  2  0  0  0  0
 18 37  1  0  0  0  0
 19 20  1  0  0  0  0
 20 21  1  0  0  0  0
 20 22  1  0  0  0  0
 21 38  1  0  0  0  0
 22 39  1  0  0  0  0
 22 40  1  0  0  0  0
 22 41  1  0  0  0  0
 23 25  1  0  0  0  0
 23 29  1  0  0  0  0
 23 24  1  6  0  0  0
 23 10  1  0  0  0  0
 25 26  1  0  0  0  0
 25 42  1  0  0  0  0
 25 43  1  0  0  0  0
 26 27  1  0  0  0  0
 26 44  1  0  0  0  0
 26 45  1  0  0  0  0
 27 28  1  0  0  0  0
 27 46  1  0  0  0  0
 27 47  1  0  0  0  0
 28 29  1  0  0  0  0
 28 48  1  0  0  0  0
 29 49  1  0  0  0  0
 29 50  1  0  0  0  0
M  END
$$$$
