MJZ
 OpenBabel04121316153D

 66 68  0  0  1  0  0  0  0  0999 V2000
    1.0231    4.8585    3.5003 C   0  0  0  0  0  0  0  0  0  0  0  0
    1.2841    3.3983    3.4828 C   0  0  0  0  0  0  0  0  0  0  0  0
    0.4723    2.6993    4.0800 O   0  0  0  0  0  0  0  0  0  0  0  0
    2.2314    2.9264    2.6164 N   0  0  0  0  0  0  0  0  0  0  0  0
    2.3924    1.4990    2.2318 C   0  0  1  0  0  0  0  0  0  0  0  0
    3.3147    1.5542    1.6658 H   0  0  0  0  0  0  0  0  0  0  0  0
    2.4884    0.5222    3.4289 C   0  0  2  0  0  0  0  0  0  0  0  0
    2.7601   -0.4828    3.1152 H   0  0  0  0  0  0  0  0  0  0  0  0
    1.2352    0.4286    4.1105 O   0  0  0  0  0  0  0  0  0  0  0  0
    0.1209    0.0455    3.2639 C   0  0  1  0  0  0  0  0  0  0  0  0
   -0.7870    0.2153    3.8542 H   0  0  0  0  0  0  0  0  0  0  0  0
    0.0048    0.7839    1.8863 C   0  0  2  0  0  0  0  0  0  0  0  0
   -0.6361    0.2075    1.2190 H   0  0  0  0  0  0  0  0  0  0  0  0
    1.3701    0.9291    1.2263 C   0  0  2  0  0  0  0  0  0  0  0  0
    1.3202    1.6240    0.3819 H   0  0  0  0  0  0  0  0  0  0  0  0
    1.7765   -0.3819    0.6557 N   0  0  0  0  0  0  0  0  0  0  0  0
   -0.6942    2.0297    1.8581 O   0  0  0  0  0  0  0  0  0  0  0  0
    0.2729   -1.4632    3.0177 C   0  0  0  0  0  0  0  0  0  0  0  0
    1.2274   -2.1313    3.3971 O   0  0  0  0  0  0  0  0  0  0  0  0
   -0.6633   -2.0218    2.2229 O   0  0  0  0  0  0  0  0  0  0  0  0
    3.5534    0.8922    4.2686 O   0  0  0  0  0  0  0  0  0  0  0  0
    4.9818    0.8046    3.5318 P   0  0  2  0  0  0  0  0  0  0  0  0
    5.0484    0.5477    2.0692 O   0  0  0  0  0  0  0  0  0  0  0  0
    5.6840   -0.3274    4.3218 O   0  0  0  0  0  0  0  0  0  0  0  0
    6.5744   -1.5270    3.8288 P   0  0  1  0  0  0  0  0  0  0  0  0
    7.7187   -1.2123    2.9265 O   0  0  0  0  0  0  0  0  0  0  0  0
    7.0030   -2.1192    5.2529 O   0  0  0  0  0  0  0  0  0  0  0  0
    6.9400   -1.1548    6.3105 C   0  0  0  0  0  0  0  0  0  0  0  0
    7.1587   -1.7522    7.6743 C   0  0  1  0  0  0  0  0  0  0  0  0
    7.9970   -1.2165    8.1345 H   0  0  0  0  0  0  0  0  0  0  0  0
    5.9942   -1.5596    8.5136 O   0  0  0  0  0  0  0  0  0  0  0  0
    6.1310   -2.5117    9.5838 C   0  0  2  0  0  0  0  0  0  0  0  0
    6.8219   -2.0942   10.3280 H   0  0  0  0  0  0  0  0  0  0  0  0
    6.7263   -3.7520    8.8783 C   0  0  1  0  0  0  0  0  0  0  0  0
    5.9238   -4.4083    8.5235 H   0  0  0  0  0  0  0  0  0  0  0  0
    7.3795   -3.2411    7.6143 C   0  0  2  0  0  0  0  0  0  0  0  0
    6.8437   -3.7086    6.7786 H   0  0  0  0  0  0  0  0  0  0  0  0
    8.7542   -3.5546    7.4825 O   0  0  0  0  0  0  0  0  0  0  0  0
    7.6166   -4.5278    9.6676 O   0  0  0  0  0  0  0  0  0  0  0  0
    4.8353   -2.7486   10.2586 N   0  0  0  0  0  0  0  0  0  0  0  0
    4.3655   -4.0382   10.4691 C   0  0  0  0  0  0  0  0  0  0  0  0
    3.1511   -4.3014   10.9390 C   0  0  0  0  0  0  0  0  0  0  0  0
    2.3151   -3.1862   11.4013 C   0  0  0  0  0  0  0  0  0  0  0  0
    1.1755   -3.3641   11.7541 O   0  0  0  0  0  0  0  0  0  0  0  0
    2.9574   -1.9743   11.4323 N   0  0  0  0  0  0  0  0  0  0  0  0
    2.4250   -1.2016   11.7976 H   0  0  0  0  0  0  0  0  0  0  0  0
    4.1322   -1.6602   10.7850 C   0  0  0  0  0  0  0  0  0  0  0  0
    4.4901   -0.4855   10.7198 O   0  0  0  0  0  0  0  0  0  0  0  0
    5.5959   -2.6491    3.2441 O   0  0  0  0  0  0  0  0  0  0  0  0
    5.6174    2.1733    4.0601 O   0  0  0  0  0  0  0  0  0  0  0  0
   -0.0356    4.9607    3.7840 H   0  0  0  0  0  0  0  0  0  0  0  0
    1.1279    5.2902    2.5054 H   0  0  0  0  0  0  0  0  0  0  0  0
    1.6395    5.3338    4.2575 H   0  0  0  0  0  0  0  0  0  0  0  0
    2.9927    3.5495    2.3650 H   0  0  0  0  0  0  0  0  0  0  0  0
    1.0088   -0.7811    0.1112 H   0  0  0  0  0  0  0  0  0  0  0  0
    1.9726   -1.0938    1.3681 H   0  0  0  0  0  0  0  0  0  0  0  0
   -0.3763    2.5544    2.6129 H   0  0  0  0  0  0  0  0  0  0  0  0
   -1.4008   -1.4423    1.9585 H   0  0  0  0  0  0  0  0  0  0  0  0
    5.9547   -0.6762    6.3470 H   0  0  0  0  0  0  0  0  0  0  0  0
    7.6881   -0.3895    6.0804 H   0  0  0  0  0  0  0  0  0  0  0  0
    8.8147   -4.5134    7.6423 H   0  0  0  0  0  0  0  0  0  0  0  0
    7.1928   -4.6898   10.5266 H   0  0  0  0  0  0  0  0  0  0  0  0
    4.9955   -4.8820   10.2181 H   0  0  0  0  0  0  0  0  0  0  0  0
    2.7516   -5.3033   11.0174 H   0  0  0  0  0  0  0  0  0  0  0  0
    5.9783   -3.0751    2.4502 H   0  0  0  0  0  0  0  0  0  0  0  0
    6.5808    2.2739    4.0188 H   0  0  0  0  0  0  0  0  0  0  0  0
  1  2  1  0  0  0  0
  1 51  1  0  0  0  0
  1 52  1  0  0  0  0
  1 53  1  0  0  0  0
  2  3  2  0  0  0  0
  2  4  1  0  0  0  0
  4  5  1  0  0  0  0
  4 54  1  0  0  0  0
  5  6  1  6  0  0  0
  5  7  1  0  0  0  0
  5 14  1  0  0  0  0
  7  8  1  6  0  0  0
  7  9  1  0  0  0  0
  7 21  1  0  0  0  0
  9 10  1  0  0  0  0
 10 11  1  1  0  0  0
 10 12  1  0  0  0  0
 10 18  1  0  0  0  0
 12 14  1  0  0  0  0
 12 17  1  0  0  0  0
 12 13  1  6  0  0  0
 14 15  1  6  0  0  0
 14 16  1  0  0  0  0
 16 55  1  0  0  0  0
 16 56  1  0  0  0  0
 17 57  1  0  0  0  0
 18 19  2  0  0  0  0
 18 20  1  0  0  0  0
 20 58  1  0  0  0  0
 22 24  1  1  0  0  0
 22 50  1  0  0  0  0
 22 23  2  0  0  0  0
 22 21  1  0  0  0  0
 25 24  1  1  0  0  0
 25 26  2  0  0  0  0
 25 27  1  0  0  0  0
 25 49  1  0  0  0  0
 27 28  1  0  0  0  0
 28 29  1  0  0  0  0
 28 59  1  0  0  0  0
 28 60  1  0  0  0  0
 29 30  1  1  0  0  0
 29 31  1  0  0  0  0
 29 36  1  0  0  0  0
 31 32  1  0  0  0  0
 32 34  1  0  0  0  0
 32 40  1  0  0  0  0
 32 33  1  1  0  0  0
 34 35  1  6  0  0  0
 34 36  1  0  0  0  0
 34 39  1  0  0  0  0
 36 37  1  6  0  0  0
 36 38  1  0  0  0  0
 38 61  1  0  0  0  0
 39 62  1  0  0  0  0
 40 41  1  0  0  0  0
 40 47  1  0  0  0  0
 41 42  2  0  0  0  0
 41 63  1  0  0  0  0
 42 43  1  0  0  0  0
 42 64  1  0  0  0  0
 43 44  2  0  0  0  0
 43 45  1  0  0  0  0
 45 46  1  0  0  0  0
 45 47  1  0  0  0  0
 47 48  2  0  0  0  0
 49 65  1  0  0  0  0
 50 66  1  0  0  0  0
M  END
$$$$
