ML0
 OpenBabel04121316153D

 60 63  0  0  1  0  0  0  0  0999 V2000
    1.0270    0.0355   -0.0899 N   0  0  0  0  0  0  0  0  0  0  0  0
    2.3920    0.0577   -0.0978 C   0  0  0  0  0  0  0  0  0  0  0  0
    2.9780    1.2629   -0.1013 N   0  0  0  0  0  0  0  0  0  0  0  0
    4.3063    1.2707    0.0314 C   0  0  0  0  0  0  0  0  0  0  0  0
    5.0156    0.1365    0.2437 C   0  0  0  0  0  0  0  0  0  0  0  0
    4.3883   -1.0526    0.0563 C   0  0  0  0  0  0  0  0  0  0  0  0
    3.0488   -1.1160   -0.0802 N   0  0  0  0  0  0  0  0  0  0  0  0
    5.2248   -2.2611    0.0219 C   0  0  0  0  0  0  0  0  0  0  0  0
    6.6234   -2.2274   -0.2410 C   0  0  0  0  0  0  0  0  0  0  0  0
    7.3697   -3.3823   -0.4252 C   0  0  0  0  0  0  0  0  0  0  0  0
    6.7654   -4.5992   -0.1723 C   0  0  0  0  0  0  0  0  0  0  0  0
    5.4980   -4.6003    0.4201 C   0  0  0  0  0  0  0  0  0  0  0  0
    4.6752   -3.4893    0.3222 C   0  0  0  0  0  0  0  0  0  0  0  0
    7.4418   -5.8646   -0.6280 C   0  0  0  0  0  0  0  0  0  0  0  0
    6.5445   -7.1110   -0.5491 C   0  0  1  0  0  0  0  0  0  0  0  0
    6.1331   -7.2188    0.4600 H   0  0  0  0  0  0  0  0  0  0  0  0
    5.3840   -7.1859   -1.6102 C   0  0  0  0  0  0  0  0  0  0  0  0
    5.2939   -8.1243   -2.4108 O   0  0  0  0  0  0  0  0  0  0  0  0
    4.4240   -6.2492   -1.6648 O   0  0  0  0  0  0  0  0  0  0  0  0
    7.3959   -8.3131   -0.7396 N   0  0  0  0  0  0  0  0  0  0  0  0
    4.9328    2.4808   -0.1029 O   0  0  0  0  0  0  0  0  0  0  0  0
    6.3900    2.4594   -0.1638 C   0  0  1  0  0  0  0  0  0  0  0  0
    6.7856    1.9749    0.7421 H   0  0  0  0  0  0  0  0  0  0  0  0
    6.9496    1.7984   -1.4756 C   0  0  0  0  0  0  0  0  0  0  0  0
    6.6067    2.4884   -2.5823 F   0  0  0  0  0  0  0  0  0  0  0  0
    8.3044    1.6990   -1.4446 F   0  0  0  0  0  0  0  0  0  0  0  0
    6.5454    0.5250   -1.6772 F   0  0  0  0  0  0  0  0  0  0  0  0
    6.8787    3.8947   -0.0549 C   0  0  0  0  0  0  0  0  0  0  0  0
    6.0225    4.9140    0.3661 C   0  0  0  0  0  0  0  0  0  0  0  0
    6.3942    6.2363    0.1728 C   0  0  0  0  0  0  0  0  0  0  0  0
    7.6745    6.5672   -0.3005 C   0  0  0  0  0  0  0  0  0  0  0  0
    8.5943    5.5448   -0.5105 C   0  0  0  0  0  0  0  0  0  0  0  0
    8.1924    4.2263   -0.4186 C   0  0  0  0  0  0  0  0  0  0  0  0
    8.0135    7.9459   -0.6365 C   0  0  0  0  0  0  0  0  0  0  0  0
    7.5916    8.9986    0.1859 C   0  0  0  0  0  0  0  0  0  0  0  0
    7.8120   10.3203   -0.1839 C   0  0  0  0  0  0  0  0  0  0  0  0
    8.3725   10.6027   -1.4263 C   0  0  0  0  0  0  0  0  0  0  0  0
    8.8138    9.5647   -2.2356 C   0  0  0  0  0  0  0  0  0  0  0  0
    8.6950    8.2468   -1.8268 C   0  0  0  0  0  0  0  0  0  0  0  0
    9.3370    9.8340   -3.4384 F   0  0  0  0  0  0  0  0  0  0  0  0
    0.5477    0.9203   -0.0853 H   0  0  0  0  0  0  0  0  0  0  0  0
    0.5496   -0.8477   -0.0854 H   0  0  0  0  0  0  0  0  0  0  0  0
    6.0676    0.1409    0.4411 H   0  0  0  0  0  0  0  0  0  0  0  0
    7.1798   -1.3028   -0.3578 H   0  0  0  0  0  0  0  0  0  0  0  0
    8.3976   -3.3130   -0.7789 H   0  0  0  0  0  0  0  0  0  0  0  0
    5.0381   -5.5089    0.7958 H   0  0  0  0  0  0  0  0  0  0  0  0
    3.6034   -3.5903    0.4809 H   0  0  0  0  0  0  0  0  0  0  0  0
    8.3485   -5.9868   -0.0175 H   0  0  0  0  0  0  0  0  0  0  0  0
    7.7778   -5.7358   -1.6686 H   0  0  0  0  0  0  0  0  0  0  0  0
    4.4760   -5.4058   -1.1915 H   0  0  0  0  0  0  0  0  0  0  0  0
    8.2419   -8.2788   -0.1812 H   0  0  0  0  0  0  0  0  0  0  0  0
    7.6619   -8.3574   -1.7260 H   0  0  0  0  0  0  0  0  0  0  0  0
    5.0334    4.7026    0.7695 H   0  0  0  0  0  0  0  0  0  0  0  0
    5.6463    7.0083    0.3416 H   0  0  0  0  0  0  0  0  0  0  0  0
    9.6184    5.7586   -0.8062 H   0  0  0  0  0  0  0  0  0  0  0  0
    8.9343    3.4864   -0.6988 H   0  0  0  0  0  0  0  0  0  0  0  0
    7.0721    8.7854    1.1184 H   0  0  0  0  0  0  0  0  0  0  0  0
    7.5210   11.1192    0.4901 H   0  0  0  0  0  0  0  0  0  0  0  0
    8.4665   11.6255   -1.7700 H   0  0  0  0  0  0  0  0  0  0  0  0
    9.0910    7.4655   -2.4708 H   0  0  0  0  0  0  0  0  0  0  0  0
  1  2  1  0  0  0  0
  1 41  1  0  0  0  0
  1 42  1  0  0  0  0
  2  3  2  0  0  0  0
  2  7  1  0  0  0  0
  3  4  1  0  0  0  0
  4  5  2  0  0  0  0
  4 21  1  0  0  0  0
  5  6  1  0  0  0  0
  5 43  1  0  0  0  0
  6  7  2  0  0  0  0
  6  8  1  0  0  0  0
  8  9  2  0  0  0  0
  8 13  1  0  0  0  0
  9 10  1  0  0  0  0
  9 44  1  0  0  0  0
 10 11  2  0  0  0  0
 10 45  1  0  0  0  0
 11 12  1  0  0  0  0
 11 14  1  0  0  0  0
 12 13  2  0  0  0  0
 12 46  1  0  0  0  0
 13 47  1  0  0  0  0
 14 15  1  0  0  0  0
 14 48  1  0  0  0  0
 14 49  1  0  0  0  0
 15 16  1  1  0  0  0
 15 17  1  0  0  0  0
 15 20  1  0  0  0  0
 17 18  2  0  0  0  0
 17 19  1  0  0  0  0
 19 50  1  0  0  0  0
 20 51  1  0  0  0  0
 20 52  1  0  0  0  0
 21 22  1  0  0  0  0
 22 23  1  1  0  0  0
 22 24  1  0  0  0  0
 22 28  1  0  0  0  0
 24 25  1  0  0  0  0
 24 26  1  0  0  0  0
 24 27  1  0  0  0  0
 28 29  2  0  0  0  0
 28 33  1  0  0  0  0
 29 30  1  0  0  0  0
 29 53  1  0  0  0  0
 30 31  2  0  0  0  0
 30 54  1  0  0  0  0
 31 32  1  0  0  0  0
 31 34  1  0  0  0  0
 32 33  2  0  0  0  0
 32 55  1  0  0  0  0
 33 56  1  0  0  0  0
 34 35  2  0  0  0  0
 34 39  1  0  0  0  0
 35 36  1  0  0  0  0
 35 57  1  0  0  0  0
 36 37  2  0  0  0  0
 36 58  1  0  0  0  0
 37 38  1  0  0  0  0
 37 59  1  0  0  0  0
 38 39  2  0  0  0  0
 38 40  1  0  0  0  0
 39 60  1  0  0  0  0
M  END
$$$$
