MLD
 OpenBabel04121316153D

123125  0  0  1  0  0  0  0  0999 V2000
  -10.2382   -5.4923   13.7962 O   0  0  0  0  0  0  0  0  0  0  0  0
  -10.3978   -4.1971   14.4091 C   0  0  0  0  0  0  0  0  0  0  0  0
  -10.4435   -2.7377   13.3040 C   0  0  1  0  0  0  0  0  0  0  0  0
   -9.9743   -2.5060   12.4075 H   0  0  0  0  0  0  0  0  0  0  0  0
  -10.9026   -3.0839   11.1951 O   0  0  0  0  0  0  0  0  0  0  0  0
  -12.5355   -4.0778   10.7850 C   0  0  1  0  0  0  0  0  0  0  0  0
  -12.7372   -4.0067    9.7017 H   0  0  0  0  0  0  0  0  0  0  0  0
  -12.7910   -5.2815   11.4587 O   0  0  0  0  0  0  0  0  0  0  0  0
  -12.8285   -4.6702   12.6976 C   0  0  2  0  0  0  0  0  0  0  0  0
  -12.0797   -4.9643   13.3673 H   0  0  0  0  0  0  0  0  0  0  0  0
  -14.4353   -3.6363   13.6579 C   0  0  1  0  0  0  0  0  0  0  0  0
  -15.1678   -4.4431   13.5151 H   0  0  0  0  0  0  0  0  0  0  0  0
  -14.0395   -2.4567   15.2200 C   0  0  0  0  0  0  0  0  0  0  0  0
  -13.5054   -0.7877   14.5887 O   0  0  0  0  0  0  0  0  0  0  0  0
  -13.0993   -0.8703   12.9889 C   0  0  2  0  0  0  0  0  0  0  0  0
  -13.1631    0.0221   12.3044 H   0  0  0  0  0  0  0  0  0  0  0  0
  -14.6370   -1.9813   13.0280 O   0  0  0  0  0  0  0  0  0  0  0  0
  -11.3679   -1.7028   12.1546 C   0  0  1  0  0  0  0  0  0  0  0  0
  -10.6983   -1.0742   12.7470 H   0  0  0  0  0  0  0  0  0  0  0  0
  -11.2127   -3.9643   12.4535 C   0  0  1  0  0  0  0  0  0  0  0  0
  -10.7444   -4.6948   11.5081 H   0  0  0  0  0  0  0  0  0  0  0  0
   -9.2333   -3.8829   12.5391 O   0  0  0  0  0  0  0  0  0  0  0  0
   -8.5514   -2.0870   12.2947 C   0  0  1  0  0  0  0  0  0  0  0  0
   -8.1766   -2.4389   11.4136 H   0  0  0  0  0  0  0  0  0  0  0  0
   -9.3592   -0.2556   12.0333 C   0  0  0  0  0  0  0  0  0  0  0  0
   -8.9827    0.6237   12.8297 O   0  0  0  0  0  0  0  0  0  0  0  0
  -10.9478    0.1643   11.2320 N   0  0  0  0  0  0  0  0  0  0  0  0
  -12.0634   -1.0136   10.2300 C   0  0  2  0  0  0  0  0  0  0  0  0
  -11.6419   -2.0787    9.6925 H   0  0  0  0  0  0  0  0  0  0  0  0
  -12.7309   -0.8177    9.0549 C   0  0  0  0  0  0  0  0  0  0  0  0
  -13.8377   -1.2286    8.7444 O   0  0  0  0  0  0  0  0  0  0  0  0
  -11.8967    0.0325    8.5009 N   0  0  0  0  0  0  0  0  0  0  0  0
  -12.4842    0.3259    7.3216 C   0  0  1  0  0  0  0  0  0  0  0  0
  -12.9475   -0.5812    6.9024 H   0  0  0  0  0  0  0  0  0  0  0  0
  -13.4415    1.3877    7.8843 C   0  0  0  0  0  0  0  0  0  0  0  0
  -13.2683    2.5704    7.6468 O   0  0  0  0  0  0  0  0  0  0  0  0
  -14.4027    1.0328    8.7696 O   0  0  0  0  0  0  0  0  0  0  0  0
  -11.3688    0.8073    6.4888 C   0  0  0  0  0  0  0  0  0  0  0  0
  -12.0728    1.3252    5.3002 C   0  0  0  0  0  0  0  0  0  0  0  0
  -11.0819    1.9156    4.3716 C   0  0  0  0  0  0  0  0  0  0  0  0
   -9.8781    1.9247    4.5868 O   0  0  0  0  0  0  0  0  0  0  0  0
  -11.6200    2.4057    3.2251 N   0  0  0  0  0  0  0  0  0  0  0  0
  -13.0421    2.6523    3.0578 C   0  0  2  0  0  0  0  0  0  0  0  0
  -13.6116    1.8765    3.5736 H   0  0  0  0  0  0  0  0  0  0  0  0
  -13.4331    2.5487    1.6060 C   0  0  0  0  0  0  0  0  0  0  0  0
  -14.0938    3.4201    1.0413 O   0  0  0  0  0  0  0  0  0  0  0  0
  -13.0513    1.4312    0.9275 N   0  0  0  0  0  0  0  0  0  0  0  0
  -13.3793    1.3301   -0.4872 C   0  0  1  0  0  0  0  0  0  0  0  0
  -14.4625    1.4569   -0.6170 H   0  0  0  0  0  0  0  0  0  0  0  0
  -12.6271    2.4064   -1.3043 C   0  0  0  0  0  0  0  0  0  0  0  0
  -11.8374    2.1256   -2.1966 O   0  0  0  0  0  0  0  0  0  0  0  0
  -12.8745    3.7019   -1.0025 O   0  0  0  0  0  0  0  0  0  0  0  0
  -12.9686   -0.0395   -1.0112 C   0  0  0  0  0  0  0  0  0  0  0  0
  -13.4471    4.0160    3.6060 C   0  0  0  0  0  0  0  0  0  0  0  0
  -12.7229    5.1442    2.8679 C   0  0  0  0  0  0  0  0  0  0  0  0
  -13.1828    6.4844    3.3967 C   0  0  0  0  0  0  0  0  0  0  0  0
  -12.6614    7.6417    2.5538 C   0  0  2  0  0  0  0  0  0  0  0  0
  -12.3426    7.3264    1.5549 H   0  0  0  0  0  0  0  0  0  0  0  0
  -11.4943    8.3383    3.2699 C   0  0  0  0  0  0  0  0  0  0  0  0
  -11.5451    9.5101    3.6245 O   0  0  0  0  0  0  0  0  0  0  0  0
  -10.3970    7.5842    3.4968 O   0  0  0  0  0  0  0  0  0  0  0  0
  -13.7809    8.6038    2.3862 N   0  0  0  0  0  0  0  0  0  0  0  0
  -12.7905   -1.9699   10.8218 C   0  0  0  0  0  0  0  0  0  0  0  0
   -7.5727   -2.0822   13.3755 C   0  0  0  0  0  0  0  0  0  0  0  0
  -10.1852   -1.4060   10.5170 N   0  0  0  0  0  0  0  0  0  0  0  0
   -9.5037   -2.0228    9.5167 C   0  0  0  0  0  0  0  0  0  0  0  0
   -8.6902   -2.8973    9.7234 O   0  0  0  0  0  0  0  0  0  0  0  0
   -9.8334   -1.8218    8.0819 C   0  0  0  0  0  0  0  0  0  0  0  0
  -14.0419   -3.2109   11.7282 C   0  0  1  0  0  0  0  0  0  0  0  0
  -14.9507   -3.8614   11.6199 H   0  0  0  0  0  0  0  0  0  0  0  0
  -12.7585   -2.9646   13.4414 C   0  0  2  0  0  0  0  0  0  0  0  0
  -13.2984   -2.2807   13.8208 H   0  0  0  0  0  0  0  0  0  0  0  0
  -11.4894   -2.0327   14.1906 C   0  0  2  0  0  0  0  0  0  0  0  0
  -11.2851   -2.2256   15.2160 H   0  0  0  0  0  0  0  0  0  0  0  0
  -11.3255   -0.5290   14.2834 O   0  0  0  0  0  0  0  0  0  0  0  0
  -13.0396   -4.3213   14.7213 O   0  0  0  0  0  0  0  0  0  0  0  0
  -14.8660   -1.5225   11.0755 N   0  0  0  0  0  0  0  0  0  0  0  0
  -15.3704   -0.3268   11.9256 C   0  0  0  0  0  0  0  0  0  0  0  0
  -15.9175   -0.3118   13.0333 O   0  0  0  0  0  0  0  0  0  0  0  0
  -14.8265    1.0519   11.5656 C   0  0  0  0  0  0  0  0  0  0  0  0
  -10.7128   -6.2183   14.2111 H   0  0  0  0  0  0  0  0  0  0  0  0
   -9.7171   -3.9315   15.1853 H   0  0  0  0  0  0  0  0  0  0  0  0
  -11.3038   -4.1982   14.9972 H   0  0  0  0  0  0  0  0  0  0  0  0
  -13.0465   -2.7050   15.7393 H   0  0  0  0  0  0  0  0  0  0  0  0
  -14.9360   -2.1635   15.6690 H   0  0  0  0  0  0  0  0  0  0  0  0
  -11.3730    1.0258   11.5522 H   0  0  0  0  0  0  0  0  0  0  0  0
  -10.8873    0.0452    8.6185 H   0  0  0  0  0  0  0  0  0  0  0  0
  -14.5250    0.0787    8.9952 H   0  0  0  0  0  0  0  0  0  0  0  0
  -10.6658    0.0052    6.2176 H   0  0  0  0  0  0  0  0  0  0  0  0
  -10.7840    1.5687    7.0219 H   0  0  0  0  0  0  0  0  0  0  0  0
  -12.7889    2.0917    5.5947 H   0  0  0  0  0  0  0  0  0  0  0  0
  -12.6358    0.5064    4.8356 H   0  0  0  0  0  0  0  0  0  0  0  0
  -10.9549    2.8106    2.5756 H   0  0  0  0  0  0  0  0  0  0  0  0
  -12.5960    0.6559    1.3985 H   0  0  0  0  0  0  0  0  0  0  0  0
  -13.5285    3.8482   -0.2737 H   0  0  0  0  0  0  0  0  0  0  0  0
  -13.4764   -0.8437   -0.4724 H   0  0  0  0  0  0  0  0  0  0  0  0
  -11.8873   -0.1840   -0.8940 H   0  0  0  0  0  0  0  0  0  0  0  0
  -13.2040   -0.1278   -2.0769 H   0  0  0  0  0  0  0  0  0  0  0  0
  -13.2237    4.0856    4.6758 H   0  0  0  0  0  0  0  0  0  0  0  0
  -14.5341    4.1336    3.4947 H   0  0  0  0  0  0  0  0  0  0  0  0
  -12.9324    5.1178    1.7969 H   0  0  0  0  0  0  0  0  0  0  0  0
  -11.6428    5.0230    2.9726 H   0  0  0  0  0  0  0  0  0  0  0  0
  -12.8479    6.5759    4.4343 H   0  0  0  0  0  0  0  0  0  0  0  0
  -14.2793    6.4793    3.3853 H   0  0  0  0  0  0  0  0  0  0  0  0
  -10.4037    6.6586    3.1952 H   0  0  0  0  0  0  0  0  0  0  0  0
  -13.4198    9.4272    1.8975 H   0  0  0  0  0  0  0  0  0  0  0  0
  -14.0263    8.9686    3.3127 H   0  0  0  0  0  0  0  0  0  0  0  0
  -13.3829   -2.4931   10.1422 H   0  0  0  0  0  0  0  0  0  0  0  0
  -13.2166   -1.7246   11.6708 H   0  0  0  0  0  0  0  0  0  0  0  0
  -12.4948   -2.6326   11.5806 H   0  0  0  0  0  0  0  0  0  0  0  0
   -7.2723   -3.1256   13.4350 H   0  0  0  0  0  0  0  0  0  0  0  0
   -8.0560   -1.7499   14.3014 H   0  0  0  0  0  0  0  0  0  0  0  0
   -6.8651   -1.4042   12.9227 H   0  0  0  0  0  0  0  0  0  0  0  0
  -10.4394   -0.4547   10.1285 H   0  0  0  0  0  0  0  0  0  0  0  0
  -10.8357   -1.6031    7.7473 H   0  0  0  0  0  0  0  0  0  0  0  0
   -9.8091   -2.8556    7.7418 H   0  0  0  0  0  0  0  0  0  0  0  0
   -9.1163   -1.0859    7.7293 H   0  0  0  0  0  0  0  0  0  0  0  0
  -12.1745   -0.0300   14.4015 H   0  0  0  0  0  0  0  0  0  0  0  0
  -13.1495   -5.2591   14.3509 H   0  0  0  0  0  0  0  0  0  0  0  0
  -14.2080   -0.9122   10.5757 H   0  0  0  0  0  0  0  0  0  0  0  0
  -13.9783    1.1163   10.8849 H   0  0  0  0  0  0  0  0  0  0  0  0
  -14.4733    1.5830   12.4850 H   0  0  0  0  0  0  0  0  0  0  0  0
  -15.7456    1.4377   11.1757 H   0  0  0  0  0  0  0  0  0  0  0  0
  1  2  1  0  0  0  0
  1 81  1  0  0  0  0
  2  3  1  0  0  0  0
  2 82  1  0  0  0  0
  2 83  1  0  0  0  0
  3  4  1  1  0  0  0
  3  5  1  0  0  0  0
  3 73  1  0  0  0  0
  5  6  1  0  0  0  0
  6 69  1  0  0  0  0
  6  8  1  0  0  0  0
  6  7  1  6  0  0  0
  9 11  1  0  0  0  0
  9 20  1  0  0  0  0
  9 10  1  1  0  0  0
  9  8  1  0  0  0  0
 11 12  1  1  0  0  0
 11 13  1  0  0  0  0
 11 17  1  0  0  0  0
 13 14  1  0  0  0  0
 13 84  1  0  0  0  0
 13 85  1  0  0  0  0
 14 15  1  0  0  0  0
 15 16  1  6  0  0  0
 15 17  1  0  0  0  0
 15 18  1  0  0  0  0
 18 19  1  1  0  0  0
 18 20  1  0  0  0  0
 18 65  1  0  0  0  0
 20 21  1  6  0  0  0
 20 22  1  0  0  0  0
 22 23  1  0  0  0  0
 23 24  1  6  0  0  0
 23 25  1  0  0  0  0
 23 64  1  0  0  0  0
 25 26  2  0  0  0  0
 25 27  1  0  0  0  0
 27 86  1  0  0  0  0
 28 30  1  0  0  0  0
 28 63  1  0  0  0  0
 28 29  1  6  0  0  0
 28 27  1  0  0  0  0
 30 31  2  0  0  0  0
 30 32  1  0  0  0  0
 32 33  1  0  0  0  0
 32 87  1  0  0  0  0
 33 34  1  6  0  0  0
 33 35  1  0  0  0  0
 33 38  1  0  0  0  0
 35 36  2  0  0  0  0
 35 37  1  0  0  0  0
 37 88  1  0  0  0  0
 38 39  1  0  0  0  0
 38 89  1  0  0  0  0
 38 90  1  0  0  0  0
 39 40  1  0  0  0  0
 39 91  1  0  0  0  0
 39 92  1  0  0  0  0
 40 41  2  0  0  0  0
 40 42  1  0  0  0  0
 42 93  1  0  0  0  0
 43 45  1  0  0  0  0
 43 54  1  0  0  0  0
 43 44  1  1  0  0  0
 43 42  1  0  0  0  0
 45 46  2  0  0  0  0
 45 47  1  0  0  0  0
 47 48  1  0  0  0  0
 47 94  1  0  0  0  0
 48 49  1  6  0  0  0
 48 50  1  0  0  0  0
 48 53  1  0  0  0  0
 50 51  2  0  0  0  0
 50 52  1  0  0  0  0
 52 95  1  0  0  0  0
 53 96  1  0  0  0  0
 53 97  1  0  0  0  0
 53 98  1  0  0  0  0
 54 55  1  0  0  0  0
 54 99  1  0  0  0  0
 54100  1  0  0  0  0
 55 56  1  0  0  0  0
 55101  1  0  0  0  0
 55102  1  0  0  0  0
 56103  1  0  0  0  0
 56104  1  0  0  0  0
 57 59  1  0  0  0  0
 57 62  1  0  0  0  0
 57 58  1  6  0  0  0
 57 56  1  0  0  0  0
 59 60  2  0  0  0  0
 59 61  1  0  0  0  0
 61105  1  0  0  0  0
 62106  1  0  0  0  0
 62107  1  0  0  0  0
 63108  1  0  0  0  0
 63109  1  0  0  0  0
 63110  1  0  0  0  0
 64111  1  0  0  0  0
 64112  1  0  0  0  0
 64113  1  0  0  0  0
 65 66  1  0  0  0  0
 65114  1  0  0  0  0
 66 67  2  0  0  0  0
 66 68  1  0  0  0  0
 68115  1  0  0  0  0
 68116  1  0  0  0  0
 68117  1  0  0  0  0
 69 70  1  1  0  0  0
 69 71  1  0  0  0  0
 69 77  1  0  0  0  0
 71 73  1  0  0  0  0
 71 76  1  0  0  0  0
 71 72  1  1  0  0  0
 73 74  1  1  0  0  0
 73 75  1  0  0  0  0
 75118  1  0  0  0  0
 76119  1  0  0  0  0
 77 78  1  0  0  0  0
 77120  1  0  0  0  0
 78 79  2  0  0  0  0
 78 80  1  0  0  0  0
 80121  1  0  0  0  0
 80122  1  0  0  0  0
 80123  1  0  0  0  0
M  END
$$$$
