MLR
 OpenBabel04121316153D

 66 68  0  0  1  0  0  0  0  0999 V2000
   10.3059    5.4747   -0.9870 O   0  0  0  0  0  0  0  0  0  0  0  0
    9.6722    4.1905   -1.0282 C   0  0  0  0  0  0  0  0  0  0  0  0
    9.9151    3.3504    0.2464 C   0  0  1  0  0  0  0  0  0  0  0  0
    9.4005    4.0054    0.9096 H   0  0  0  0  0  0  0  0  0  0  0  0
    9.1788    2.1658    0.4388 O   0  0  0  0  0  0  0  0  0  0  0  0
    9.4853    1.1797   -0.4986 C   0  0  2  0  0  0  0  0  0  0  0  0
    9.4533    1.5755   -1.5163 H   0  0  0  0  0  0  0  0  0  0  0  0
    8.4742    0.2058   -0.3556 O   0  0  0  0  0  0  0  0  0  0  0  0
    7.1243    0.6586   -0.6568 C   0  0  2  0  0  0  0  0  0  0  0  0
    6.5170    0.3074    0.1850 H   0  0  0  0  0  0  0  0  0  0  0  0
    6.6631   -0.0472   -1.9478 C   0  0  1  0  0  0  0  0  0  0  0  0
    7.3640    0.2040   -2.7561 H   0  0  0  0  0  0  0  0  0  0  0  0
    6.6731   -1.5813   -1.8137 C   0  0  0  0  0  0  0  0  0  0  0  0
    7.9613   -2.1445   -1.6019 O   0  0  0  0  0  0  0  0  0  0  0  0
    5.3318    0.3492   -2.3214 O   0  0  0  0  0  0  0  0  0  0  0  0
    5.2086    1.7417   -2.5743 C   0  0  1  0  0  0  0  0  0  0  0  0
    4.1862    1.9664   -2.8937 H   0  0  0  0  0  0  0  0  0  0  0  0
    5.4933    2.5549   -1.3199 C   0  0  1  0  0  0  0  0  0  0  0  0
    4.7662    2.3531   -0.5231 H   0  0  0  0  0  0  0  0  0  0  0  0
    6.8649    2.1964   -0.7971 C   0  0  1  0  0  0  0  0  0  0  0  0
    7.5939    2.6137   -1.4972 H   0  0  0  0  0  0  0  0  0  0  0  0
    6.9482    2.9313    0.4373 O   0  0  0  0  0  0  0  0  0  0  0  0
    5.4765    3.9707   -1.5952 O   0  0  0  0  0  0  0  0  0  0  0  0
    6.0924    2.1013   -3.6270 O   0  0  0  0  0  0  0  0  0  0  0  0
   10.9081    0.6534   -0.2156 C   0  0  1  0  0  0  0  0  0  0  0  0
   11.2065   -0.0107   -1.0322 H   0  0  0  0  0  0  0  0  0  0  0  0
   11.8753    1.8572   -0.1070 C   0  0  2  0  0  0  0  0  0  0  0  0
   12.8285    1.5216    0.3208 H   0  0  0  0  0  0  0  0  0  0  0  0
   11.3152    3.0001    0.7817 C   0  0  2  0  0  0  0  0  0  0  0  0
   12.0279    3.8133    0.6791 H   0  0  0  0  0  0  0  0  0  0  0  0
   11.2459    2.5602    2.1671 O   0  0  0  0  0  0  0  0  0  0  0  0
   10.9492    3.4335    3.2830 C   0  0  1  0  0  0  0  0  0  0  0  0
   10.5150    2.7593    4.0352 H   0  0  0  0  0  0  0  0  0  0  0  0
   12.1318    3.9677    3.8904 O   0  0  0  0  0  0  0  0  0  0  0  0
   12.8357    4.8531    3.0268 C   0  0  2  0  0  0  0  0  0  0  0  0
   13.2044    4.2561    2.1886 H   0  0  0  0  0  0  0  0  0  0  0  0
   14.1014    5.3683    3.7116 C   0  0  0  0  0  0  0  0  0  0  0  0
   14.9538    6.0659    2.8087 O   0  0  0  0  0  0  0  0  0  0  0  0
   11.9753    6.0427    2.5379 C   0  0  2  0  0  0  0  0  0  0  0  0
   11.8653    6.8032    3.3133 H   0  0  0  0  0  0  0  0  0  0  0  0
   10.5740    5.6018    2.1210 C   0  0  1  0  0  0  0  0  0  0  0  0
   10.7941    5.1603    1.1798 H   0  0  0  0  0  0  0  0  0  0  0  0
    9.9288    4.5808    3.0986 C   0  0  1  0  0  0  0  0  0  0  0  0
    9.7703    5.1200    4.0349 H   0  0  0  0  0  0  0  0  0  0  0  0
    8.6193    4.0575    2.7987 O   0  0  0  0  0  0  0  0  0  0  0  0
    9.7439    6.6867    1.7220 O   0  0  0  0  0  0  0  0  0  0  0  0
   12.5991    6.6743    1.4001 O   0  0  0  0  0  0  0  0  0  0  0  0
   12.1979    2.4005   -1.3958 O   0  0  0  0  0  0  0  0  0  0  0  0
   10.9582   -0.1185    0.9882 O   0  0  0  0  0  0  0  0  0  0  0  0
    9.8230    6.0390   -1.5962 H   0  0  0  0  0  0  0  0  0  0  0  0
    9.9665    3.7108   -1.9544 H   0  0  0  0  0  0  0  0  0  0  0  0
    8.5971    4.3919   -1.1043 H   0  0  0  0  0  0  0  0  0  0  0  0
    6.2606   -2.0325   -2.7218 H   0  0  0  0  0  0  0  0  0  0  0  0
    6.0263   -1.8904   -0.9862 H   0  0  0  0  0  0  0  0  0  0  0  0
    8.5733   -1.7715   -2.2578 H   0  0  0  0  0  0  0  0  0  0  0  0
    6.9598    2.3188    1.1799 H   0  0  0  0  0  0  0  0  0  0  0  0
    4.5606    4.2690   -1.6105 H   0  0  0  0  0  0  0  0  0  0  0  0
    5.6707    1.7721   -4.4352 H   0  0  0  0  0  0  0  0  0  0  0  0
   14.6696    4.5370    4.1372 H   0  0  0  0  0  0  0  0  0  0  0  0
   13.8368    6.0422    4.5314 H   0  0  0  0  0  0  0  0  0  0  0  0
   14.9972    5.5698    1.9736 H   0  0  0  0  0  0  0  0  0  0  0  0
    8.7004    3.1671    2.3957 H   0  0  0  0  0  0  0  0  0  0  0  0
   10.0613    6.9066    0.8178 H   0  0  0  0  0  0  0  0  0  0  0  0
   12.8759    5.9924    0.7608 H   0  0  0  0  0  0  0  0  0  0  0  0
   11.3979    2.4368   -1.9623 H   0  0  0  0  0  0  0  0  0  0  0  0
   10.0910   -0.5573    1.0752 H   0  0  0  0  0  0  0  0  0  0  0  0
  1  2  1  0  0  0  0
  1 50  1  0  0  0  0
  2  3  1  0  0  0  0
  2 51  1  0  0  0  0
  2 52  1  0  0  0  0
  3  4  1  1  0  0  0
  3  5  1  0  0  0  0
  3 29  1  0  0  0  0
  5  6  1  0  0  0  0
  6  7  1  6  0  0  0
  6  8  1  0  0  0  0
  6 25  1  0  0  0  0
  9 11  1  0  0  0  0
  9 20  1  0  0  0  0
  9 10  1  1  0  0  0
  9  8  1  0  0  0  0
 11 12  1  6  0  0  0
 11 13  1  0  0  0  0
 11 15  1  0  0  0  0
 13 14  1  0  0  0  0
 13 53  1  0  0  0  0
 13 54  1  0  0  0  0
 14 55  1  0  0  0  0
 15 16  1  0  0  0  0
 16 17  1  6  0  0  0
 16 18  1  0  0  0  0
 16 24  1  0  0  0  0
 18 19  1  1  0  0  0
 18 20  1  0  0  0  0
 18 23  1  0  0  0  0
 20 22  1  0  0  0  0
 20 21  1  6  0  0  0
 22 56  1  0  0  0  0
 23 57  1  0  0  0  0
 24 58  1  0  0  0  0
 25 26  1  6  0  0  0
 25 27  1  0  0  0  0
 25 49  1  0  0  0  0
 27 29  1  0  0  0  0
 27 48  1  0  0  0  0
 27 28  1  1  0  0  0
 29 30  1  6  0  0  0
 29 31  1  0  0  0  0
 31 32  1  0  0  0  0
 32 33  1  1  0  0  0
 32 34  1  0  0  0  0
 32 43  1  0  0  0  0
 34 35  1  0  0  0  0
 35 36  1  6  0  0  0
 35 37  1  0  0  0  0
 35 39  1  0  0  0  0
 37 38  1  0  0  0  0
 37 59  1  0  0  0  0
 37 60  1  0  0  0  0
 38 61  1  0  0  0  0
 39 41  1  0  0  0  0
 39 47  1  0  0  0  0
 39 40  1  1  0  0  0
 41 42  1  6  0  0  0
 41 43  1  0  0  0  0
 41 46  1  0  0  0  0
 43 45  1  0  0  0  0
 43 44  1  1  0  0  0
 45 62  1  0  0  0  0
 46 63  1  0  0  0  0
 47 64  1  0  0  0  0
 48 65  1  0  0  0  0
 49 66  1  0  0  0  0
M  END
$$$$
