MNA
 OpenBabel04121316153D

 43 43  0  0  1  0  0  0  0  0999 V2000
    5.4271    2.6747    5.8193 O   0  0  0  0  0  0  0  0  0  0  0  0
    4.8237    2.7144    4.5385 C   0  0  0  0  0  0  0  0  0  0  0  0
    3.5521    3.4416    4.7776 C   0  0  2  0  0  0  0  0  0  0  0  0
    2.8989    2.8459    5.4282 H   0  0  0  0  0  0  0  0  0  0  0  0
    2.8577    3.7423    3.5039 C   0  0  2  0  0  0  0  0  0  0  0  0
    1.9185    3.3077    3.8167 H   0  0  0  0  0  0  0  0  0  0  0  0
    3.0170    3.0804    2.1250 C   0  0  2  0  0  0  0  0  0  0  0  0
    2.2134    2.3423    2.0228 H   0  0  0  0  0  0  0  0  0  0  0  0
    4.2631    2.3768    1.9234 O   0  0  0  0  0  0  0  0  0  0  0  0
    4.3364    1.7175    0.6517 C   0  0  2  0  0  0  0  0  0  0  0  0
    5.5862    1.0347    0.4349 O   0  0  0  0  0  0  0  0  0  0  0  0
    6.1648    0.3770    1.5558 C   0  0  0  0  0  0  0  0  0  0  0  0
    4.3706    2.8606   -0.3691 C   0  0  0  0  0  0  0  0  0  0  0  0
    3.0801    3.6807   -0.3164 C   0  0  1  0  0  0  0  0  0  0  0  0
    2.2230    3.0866   -0.6364 H   0  0  0  0  0  0  0  0  0  0  0  0
    2.7776    4.1982    1.0893 C   0  0  1  0  0  0  0  0  0  0  0  0
    3.5281    4.9912    1.2571 H   0  0  0  0  0  0  0  0  0  0  0  0
    1.4067    4.8630    1.1387 N   0  0  0  0  0  0  0  0  0  0  0  0
    0.4735    4.8095    2.1780 C   0  0  0  0  0  0  0  0  0  0  0  0
    0.3694    3.9830    3.0537 O   0  0  0  0  0  0  0  0  0  0  0  0
   -0.5906    5.8431    2.2629 C   0  0  0  0  0  0  0  0  0  0  0  0
    3.1859    4.7802   -1.2190 O   0  0  0  0  0  0  0  0  0  0  0  0
    3.1302    0.7187    0.3969 C   0  0  0  0  0  0  0  0  0  0  0  0
    2.6011    0.0611    1.2850 O   0  0  0  0  0  0  0  0  0  0  0  0
    2.6378    0.6741   -0.8668 O   0  0  0  0  0  0  0  0  0  0  0  0
    2.8155    5.1786    3.3761 O   0  0  0  0  0  0  0  0  0  0  0  0
    3.7619    4.6714    5.5027 O   0  0  0  0  0  0  0  0  0  0  0  0
    6.3699    2.5384    5.6663 H   0  0  0  0  0  0  0  0  0  0  0  0
    4.6114    1.7021    4.1762 H   0  0  0  0  0  0  0  0  0  0  0  0
    5.4565    3.2608    3.8280 H   0  0  0  0  0  0  0  0  0  0  0  0
    7.0474   -0.1717    1.2016 H   0  0  0  0  0  0  0  0  0  0  0  0
    5.4865   -0.3431    2.0208 H   0  0  0  0  0  0  0  0  0  0  0  0
    6.5217    1.1049    2.2913 H   0  0  0  0  0  0  0  0  0  0  0  0
    4.5754    2.4989   -1.3842 H   0  0  0  0  0  0  0  0  0  0  0  0
    5.2352    3.5078   -0.1473 H   0  0  0  0  0  0  0  0  0  0  0  0
    1.3732    5.6768    0.5441 H   0  0  0  0  0  0  0  0  0  0  0  0
   -0.6817    6.4565    1.3785 H   0  0  0  0  0  0  0  0  0  0  0  0
   -0.4198    6.4389    3.1692 H   0  0  0  0  0  0  0  0  0  0  0  0
   -1.5034    5.2543    2.4273 H   0  0  0  0  0  0  0  0  0  0  0  0
    3.2901    4.4228   -2.1165 H   0  0  0  0  0  0  0  0  0  0  0  0
    3.0929    1.1976   -1.5489 H   0  0  0  0  0  0  0  0  0  0  0  0
    2.2601    5.4848    4.1142 H   0  0  0  0  0  0  0  0  0  0  0  0
    4.4988    4.4612    6.1008 H   0  0  0  0  0  0  0  0  0  0  0  0
  1  2  1  0  0  0  0
  1 28  1  0  0  0  0
  2 29  1  0  0  0  0
  2 30  1  0  0  0  0
  3 27  1  0  0  0  0
  3  4  1  1  0  0  0
  3  2  1  0  0  0  0
  5 26  1  0  0  0  0
  5  6  1  1  0  0  0
  5  3  1  0  0  0  0
  7  9  1  0  0  0  0
  7 16  1  0  0  0  0
  7  8  1  6  0  0  0
  7  5  1  0  0  0  0
  9 10  1  0  0  0  0
 10 13  1  0  0  0  0
 10 23  1  6  0  0  0
 10 11  1  0  0  0  0
 11 12  1  0  0  0  0
 12 31  1  0  0  0  0
 12 32  1  0  0  0  0
 12 33  1  0  0  0  0
 13 14  1  0  0  0  0
 13 34  1  0  0  0  0
 13 35  1  0  0  0  0
 14 15  1  6  0  0  0
 14 16  1  0  0  0  0
 14 22  1  0  0  0  0
 16 18  1  0  0  0  0
 16 17  1  1  0  0  0
 18 19  1  0  0  0  0
 18 36  1  0  0  0  0
 19 20  2  0  0  0  0
 19 21  1  0  0  0  0
 21 37  1  0  0  0  0
 21 38  1  0  0  0  0
 21 39  1  0  0  0  0
 22 40  1  0  0  0  0
 23 24  2  0  0  0  0
 23 25  1  0  0  0  0
 25 41  1  0  0  0  0
 26 42  1  0  0  0  0
 27 43  1  0  0  0  0
M  END
$$$$
