MNC
 OpenBabel04121316153D

  6  5  0  0  0  0  0  0  0  0999 V2000
    0.9250   -0.0929   -0.0251 C   0  5  0  0  0  0  0  0  0  0  0  0
    2.1196   -0.0929   -0.0251 N   0  3  0  0  0  0  0  0  0  0  0  0
    3.5282   -0.0929   -0.0251 C   0  0  0  0  0  0  0  0  0  0  0  0
    3.8947   -0.6255    0.8579 H   0  0  0  0  0  0  0  0  0  0  0  0
    3.8947    0.9381   -0.0052 H   0  0  0  0  0  0  0  0  0  0  0  0
    3.8947   -0.5912   -0.9278 H   0  0  0  0  0  0  0  0  0  0  0  0
  1  2  3  0  0  0  0
  2  3  1  0  0  0  0
  3  4  1  0  0  0  0
  3  5  1  0  0  0  0
  3  6  1  0  0  0  0
M  CHG  2   1  -1   2   1
M  END
$$$$
