MNO
 OpenBabel04121316153D

 70 72  0  0  1  0  0  0  0  0999 V2000
    0.0492   -1.5406   -3.8538 O   0  0  0  0  0  0  0  0  0  0  0  0
   -0.9961   -2.0398   -3.4423 C   0  0  0  0  0  0  0  0  0  0  0  0
   -1.1864   -2.7143   -2.0888 C   0  0  1  0  0  0  0  0  0  0  0  0
   -0.4993   -3.5594   -1.9746 H   0  0  0  0  0  0  0  0  0  0  0  0
   -0.7169   -1.6220   -1.2421 N   0  0  0  0  0  0  0  0  0  0  0  0
    0.6795   -1.5392   -0.9637 C   0  0  0  0  0  0  0  0  0  0  0  0
    1.5314   -2.1692   -1.5770 O   0  0  0  0  0  0  0  0  0  0  0  0
    1.0076   -0.6457    0.2641 C   0  0  2  0  0  0  0  0  0  0  0  0
    0.0301   -0.4266    0.5424 H   0  0  0  0  0  0  0  0  0  0  0  0
    1.6080    0.6507   -0.1997 C   0  0  0  0  0  0  0  0  0  0  0  0
    3.0690    0.2658   -0.0955 C   0  0  0  0  0  0  0  0  0  0  0  0
    3.1699   -0.4876    1.2363 C   0  0  0  0  0  0  0  0  0  0  0  0
    1.8463   -1.0398    1.4527 N   0  0  0  0  0  0  0  0  0  0  0  0
    1.5892   -1.5813    2.7380 C   0  0  0  0  0  0  0  0  0  0  0  0
    2.5244   -1.7805    3.5336 O   0  0  0  0  0  0  0  0  0  0  0  0
    0.1361   -1.9599    3.2664 C   0  0  2  0  0  0  0  0  0  0  0  0
    0.1912   -3.0311    3.5290 H   0  0  0  0  0  0  0  0  0  0  0  0
   -0.9787   -1.8096    2.2655 C   0  0  0  0  0  0  0  0  0  0  0  0
   -1.3315   -0.2941    1.9730 C   0  0  0  0  0  0  0  0  0  0  0  0
   -0.5159   -2.8671    1.2646 C   0  0  0  0  0  0  0  0  0  0  0  0
   -0.2274   -1.3564    4.5177 N   0  0  0  0  0  0  0  0  0  0  0  0
   -0.1367    0.0033    4.5961 C   0  0  0  0  0  0  0  0  0  0  0  0
    0.5039    0.6850    3.8018 O   0  0  0  0  0  0  0  0  0  0  0  0
   -0.8052    0.6923    5.6814 C   0  0  0  0  0  0  0  0  0  0  0  0
   -0.5791    2.0729    5.7110 C   0  0  0  0  0  0  0  0  0  0  0  0
   -0.8875    2.7897    6.8390 C   0  0  0  0  0  0  0  0  0  0  0  0
   -1.5078    2.1327    7.8939 C   0  0  0  0  0  0  0  0  0  0  0  0
   -1.8211    0.7487    7.8193 C   0  0  0  0  0  0  0  0  0  0  0  0
   -1.4902    0.0272    6.6884 C   0  0  0  0  0  0  0  0  0  0  0  0
   -2.4498    0.1137    8.8840 C   0  0  0  0  0  0  0  0  0  0  0  0
   -2.9408    0.8872    9.9252 C   0  0  0  0  0  0  0  0  0  0  0  0
   -2.7165    2.2642    9.9455 C   0  0  0  0  0  0  0  0  0  0  0  0
   -1.8814    2.8579    9.0092 C   0  0  0  0  0  0  0  0  0  0  0  0
   -2.6636   -3.1973   -1.8818 C   0  0  0  0  0  0  0  0  0  0  0  0
   -2.8705   -4.1641   -0.6983 C   0  0  0  0  0  0  0  0  0  0  0  0
   -1.9466   -4.6580   -0.1215 O   0  0  0  0  0  0  0  0  0  0  0  0
   -4.2047   -4.5187   -0.3334 N   0  0  0  0  0  0  0  0  0  0  0  0
   -4.4126   -5.4291    1.0788 S   0  0  0  0  0  0  0  0  0  0  0  0
   -3.6743   -6.6635    0.9454 O   0  0  0  0  0  0  0  0  0  0  0  0
   -4.2199   -4.5287    2.1973 O   0  0  0  0  0  0  0  0  0  0  0  0
   -6.1329   -5.8829    1.0691 C   0  0  0  0  0  0  0  0  0  0  0  0
   -1.9173   -1.8510   -4.0048 H   0  0  0  0  0  0  0  0  0  0  0  0
   -1.3831   -1.2170   -0.5956 H   0  0  0  0  0  0  0  0  0  0  0  0
    1.3440    1.4628    0.4928 H   0  0  0  0  0  0  0  0  0  0  0  0
    1.2647    0.9243   -1.2009 H   0  0  0  0  0  0  0  0  0  0  0  0
    3.7294    1.1263   -0.1699 H   0  0  0  0  0  0  0  0  0  0  0  0
    3.3042   -0.4279   -0.9105 H   0  0  0  0  0  0  0  0  0  0  0  0
    3.4292    0.1876    2.0606 H   0  0  0  0  0  0  0  0  0  0  0  0
    3.8909   -1.3090    1.2019 H   0  0  0  0  0  0  0  0  0  0  0  0
   -1.9414   -2.2004    2.6089 H   0  0  0  0  0  0  0  0  0  0  0  0
   -0.4565    0.3742    1.9627 H   0  0  0  0  0  0  0  0  0  0  0  0
   -1.9332    0.1637    2.7605 H   0  0  0  0  0  0  0  0  0  0  0  0
   -1.8551   -0.1062    1.0313 H   0  0  0  0  0  0  0  0  0  0  0  0
    0.5142   -2.8333    0.9045 H   0  0  0  0  0  0  0  0  0  0  0  0
   -1.1952   -2.8173    0.4563 H   0  0  0  0  0  0  0  0  0  0  0  0
   -0.5227   -3.8876    1.6602 H   0  0  0  0  0  0  0  0  0  0  0  0
   -0.6988   -1.9290    5.2025 H   0  0  0  0  0  0  0  0  0  0  0  0
   -0.1044    2.5759    4.8705 H   0  0  0  0  0  0  0  0  0  0  0  0
   -0.6416    3.8458    6.8678 H   0  0  0  0  0  0  0  0  0  0  0  0
   -1.7512   -1.0232    6.6199 H   0  0  0  0  0  0  0  0  0  0  0  0
   -2.5921   -0.9644    8.8898 H   0  0  0  0  0  0  0  0  0  0  0  0
   -3.5034    0.4155   10.7226 H   0  0  0  0  0  0  0  0  0  0  0  0
   -3.2009    2.8870   10.6880 H   0  0  0  0  0  0  0  0  0  0  0  0
   -1.5706    3.8920    9.1229 H   0  0  0  0  0  0  0  0  0  0  0  0
   -2.9530   -3.7810   -2.7637 H   0  0  0  0  0  0  0  0  0  0  0  0
   -3.3447   -2.3441   -1.8008 H   0  0  0  0  0  0  0  0  0  0  0  0
   -5.0083   -4.3302   -0.9161 H   0  0  0  0  0  0  0  0  0  0  0  0
   -6.3410   -6.4981    0.1932 H   0  0  0  0  0  0  0  0  0  0  0  0
   -6.7515   -4.9867    1.0971 H   0  0  0  0  0  0  0  0  0  0  0  0
   -6.3138   -6.4758    1.9734 H   0  0  0  0  0  0  0  0  0  0  0  0
  1  2  2  0  0  0  0
  2  3  1  0  0  0  0
  2 42  1  0  0  0  0
  3  4  1  1  0  0  0
  3  5  1  0  0  0  0
  3 34  1  0  0  0  0
  5  6  1  0  0  0  0
  5 43  1  0  0  0  0
  6  7  2  0  0  0  0
  8 10  1  0  0  0  0
  8 13  1  0  0  0  0
  8  9  1  1  0  0  0
  8  6  1  0  0  0  0
 10 11  1  0  0  0  0
 10 44  1  0  0  0  0
 10 45  1  0  0  0  0
 11 12  1  0  0  0  0
 11 46  1  0  0  0  0
 11 47  1  0  0  0  0
 12 13  1  0  0  0  0
 12 48  1  0  0  0  0
 12 49  1  0  0  0  0
 13 14  1  0  0  0  0
 14 15  2  0  0  0  0
 16 18  1  0  0  0  0
 16 21  1  0  0  0  0
 16 17  1  1  0  0  0
 16 14  1  0  0  0  0
 18 19  1  0  0  0  0
 18 20  1  0  0  0  0
 18 50  1  0  0  0  0
 19 51  1  0  0  0  0
 19 52  1  0  0  0  0
 19 53  1  0  0  0  0
 20 54  1  0  0  0  0
 20 55  1  0  0  0  0
 20 56  1  0  0  0  0
 21 22  1  0  0  0  0
 21 57  1  0  0  0  0
 22 23  2  0  0  0  0
 22 24  1  0  0  0  0
 24 25  2  0  0  0  0
 24 29  1  0  0  0  0
 25 26  1  0  0  0  0
 25 58  1  0  0  0  0
 26 27  2  0  0  0  0
 26 59  1  0  0  0  0
 27 28  1  0  0  0  0
 27 33  1  0  0  0  0
 28 29  2  0  0  0  0
 28 30  1  0  0  0  0
 29 60  1  0  0  0  0
 30 31  2  0  0  0  0
 30 61  1  0  0  0  0
 31 32  1  0  0  0  0
 31 62  1  0  0  0  0
 32 33  2  0  0  0  0
 32 63  1  0  0  0  0
 33 64  1  0  0  0  0
 34 35  1  0  0  0  0
 34 65  1  0  0  0  0
 34 66  1  0  0  0  0
 35 36  2  0  0  0  0
 35 37  1  0  0  0  0
 37 38  1  0  0  0  0
 37 67  1  0  0  0  0
 38 39  2  0  0  0  0
 38 40  2  0  0  0  0
 38 41  1  0  0  0  0
 41 68  1  0  0  0  0
 41 69  1  0  0  0  0
 41 70  1  0  0  0  0
M  END
$$$$
