MNP
 OpenBabel04121316153D

 20 20  0  0  0  0  0  0  0  0999 V2000
    0.9969   -0.1144   -0.1283 O   0  0  0  0  0  0  0  0  0  0  0  0
    2.3293   -0.0715    0.0557 C   0  0  0  0  0  0  0  0  0  0  0  0
    2.7870    0.4717    1.0526 O   0  0  0  0  0  0  0  0  0  0  0  0
    3.0875   -0.7077   -1.0796 C   0  0  0  0  0  0  0  0  0  0  0  0
    4.5845   -0.6168   -0.9054 C   0  0  0  0  0  0  0  0  0  0  0  0
    5.2110    0.6394   -0.8654 C   0  0  0  0  0  0  0  0  0  0  0  0
    6.5909    0.7438   -0.7041 C   0  0  0  0  0  0  0  0  0  0  0  0
    7.3769   -0.4057   -0.7158 C   0  0  0  0  0  0  0  0  0  0  0  0
    6.7585   -1.6613   -0.7671 C   0  0  0  0  0  0  0  0  0  0  0  0
    5.3627   -1.7733   -0.7855 C   0  0  0  0  0  0  0  0  0  0  0  0
    7.5797   -2.8723   -0.8642 N   0  3  0  0  0  0  0  0  0  0  0  0
    8.8089   -2.7313   -0.9330 O   0  0  0  0  0  0  0  0  0  0  0  0
    6.9944   -3.9644   -0.9044 O   0  5  0  0  0  0  0  0  0  0  0  0
    0.6466    0.3678    0.6511 H   0  0  0  0  0  0  0  0  0  0  0  0
    2.8186   -0.2026   -2.0162 H   0  0  0  0  0  0  0  0  0  0  0  0
    2.7780   -1.7561   -1.1663 H   0  0  0  0  0  0  0  0  0  0  0  0
    4.6159    1.5497   -0.9298 H   0  0  0  0  0  0  0  0  0  0  0  0
    7.0490    1.7226   -0.5848 H   0  0  0  0  0  0  0  0  0  0  0  0
    8.4593   -0.3071   -0.6881 H   0  0  0  0  0  0  0  0  0  0  0  0
    4.8824   -2.7484   -0.7251 H   0  0  0  0  0  0  0  0  0  0  0  0
  1  2  1  0  0  0  0
  1 14  1  0  0  0  0
  2  3  2  0  0  0  0
  2  4  1  0  0  0  0
  4  5  1  0  0  0  0
  4 15  1  0  0  0  0
  4 16  1  0  0  0  0
  5  6  2  0  0  0  0
  5 10  1  0  0  0  0
  6  7  1  0  0  0  0
  6 17  1  0  0  0  0
  7  8  2  0  0  0  0
  7 18  1  0  0  0  0
  8  9  1  0  0  0  0
  8 19  1  0  0  0  0
  9 10  2  0  0  0  0
  9 11  1  0  0  0  0
 10 20  1  0  0  0  0
 11 12  2  0  0  0  0
 11 13  1  0  0  0  0
M  CHG  2  11   1  13  -1
M  END
$$$$
