MO8
 OpenBabel04121316153D

 23 24  0  0  0  0  0  0  0  0999 V2000
    1.0774   -0.0977   -0.0084 N   0  0  0  0  0  0  0  0  0  0  0  0
    2.4463   -0.0944   -0.0120 C   0  0  0  0  0  0  0  0  0  0  0  0
    3.0759   -1.2708    0.0236 N   0  0  0  0  0  0  0  0  0  0  0  0
    4.4339   -1.2575    0.0275 C   0  0  0  0  0  0  0  0  0  0  0  0
    5.0951   -2.6173    0.0883 C   0  0  0  0  0  0  0  0  0  0  0  0
    6.5473   -2.6514   -0.3739 C   0  0  0  0  0  0  0  0  0  0  0  0
    7.5199   -1.4845    0.5950 S   0  0  0  0  0  0  0  0  0  0  0  0
    6.6650   -0.0131    0.0170 C   0  0  0  0  0  0  0  0  0  0  0  0
    5.1653   -0.0758    0.0269 C   0  0  0  0  0  0  0  0  0  0  0  0
    4.4129    1.0918   -0.0503 C   0  0  0  0  0  0  0  0  0  0  0  0
    3.0585    1.0889   -0.0610 N   0  0  0  0  0  0  0  0  0  0  0  0
    5.0563    2.4502   -0.1312 C   0  0  0  0  0  0  0  0  0  0  0  0
    0.6020   -0.9795    0.0427 H   0  0  0  0  0  0  0  0  0  0  0  0
    0.6042    0.7873   -0.0290 H   0  0  0  0  0  0  0  0  0  0  0  0
    4.5268   -3.3171   -0.5367 H   0  0  0  0  0  0  0  0  0  0  0  0
    5.0253   -2.9846    1.1203 H   0  0  0  0  0  0  0  0  0  0  0  0
    6.6358   -2.3840   -1.4329 H   0  0  0  0  0  0  0  0  0  0  0  0
    6.9799   -3.6462   -0.2418 H   0  0  0  0  0  0  0  0  0  0  0  0
    6.9977    0.2036   -1.0049 H   0  0  0  0  0  0  0  0  0  0  0  0
    7.0150    0.7850    0.6753 H   0  0  0  0  0  0  0  0  0  0  0  0
    6.1468    2.4141   -0.1840 H   0  0  0  0  0  0  0  0  0  0  0  0
    4.7957    3.0386    0.7525 H   0  0  0  0  0  0  0  0  0  0  0  0
    4.7276    2.9686   -1.0359 H   0  0  0  0  0  0  0  0  0  0  0  0
  1  2  1  0  0  0  0
  1 13  1  0  0  0  0
  1 14  1  0  0  0  0
  2  3  2  0  0  0  0
  2 11  1  0  0  0  0
  3  4  1  0  0  0  0
  4  5  1  0  0  0  0
  4  9  2  0  0  0  0
  5  6  1  0  0  0  0
  5 15  1  0  0  0  0
  5 16  1  0  0  0  0
  6  7  1  0  0  0  0
  6 17  1  0  0  0  0
  6 18  1  0  0  0  0
  7  8  1  0  0  0  0
  8  9  1  0  0  0  0
  8 19  1  0  0  0  0
  8 20  1  0  0  0  0
  9 10  1  0  0  0  0
 10 11  2  0  0  0  0
 10 12  1  0  0  0  0
 12 21  1  0  0  0  0
 12 22  1  0  0  0  0
 12 23  1  0  0  0  0
M  END
$$$$
