MO9
 OpenBabel04121316153D

 52 53  0  0  1  0  0  0  0  0999 V2000
    7.7424   -0.1906   -7.9024 N   0  0  0  0  0  0  0  0  0  0  0  0
    6.8623   -0.1794   -7.1547 C   0  0  0  0  0  0  0  0  0  0  0  0
    5.7961   -0.1294   -6.1380 C   0  0  0  0  0  0  0  0  0  0  0  0
    6.2890    0.4931   -4.9366 N   0  0  0  0  0  0  0  0  0  0  0  0
    5.4971    0.6399   -3.8339 C   0  0  0  0  0  0  0  0  0  0  0  0
    4.4161    0.0621   -3.7568 O   0  0  0  0  0  0  0  0  0  0  0  0
    6.0416    1.5489   -2.6973 C   0  0  2  0  0  0  0  0  0  0  0  0
    5.7283    1.0388   -1.7745 H   0  0  0  0  0  0  0  0  0  0  0  0
    5.4226    2.9493   -2.6834 C   0  0  0  0  0  0  0  0  0  0  0  0
    3.6576    2.8180   -2.6363 S   0  0  0  0  0  0  0  0  0  0  0  0
    3.2078    2.3133   -3.9187 O   0  0  0  0  0  0  0  0  0  0  0  0
    3.3174    2.2074   -1.3652 O   0  0  0  0  0  0  0  0  0  0  0  0
    3.0830    4.4715   -2.6015 C   0  0  0  0  0  0  0  0  0  0  0  0
    1.5744    4.6067   -2.6414 C   0  0  0  0  0  0  0  0  0  0  0  0
    0.7692    3.4407   -2.6284 C   0  0  0  0  0  0  0  0  0  0  0  0
   -0.5898    3.4559   -2.8856 C   0  0  0  0  0  0  0  0  0  0  0  0
   -1.2325    4.6697   -2.9699 C   0  0  0  0  0  0  0  0  0  0  0  0
   -0.4969    5.8505   -2.8181 C   0  0  0  0  0  0  0  0  0  0  0  0
    0.9139    5.8458   -2.7449 C   0  0  0  0  0  0  0  0  0  0  0  0
    1.4511    7.1103   -2.8089 O   0  0  0  0  0  0  0  0  0  0  0  0
    2.8579    7.2822   -2.8399 C   0  0  0  0  0  0  0  0  0  0  0  0
    3.3566    6.7793   -3.9955 F   0  0  0  0  0  0  0  0  0  0  0  0
    3.1532    8.6038   -2.8609 F   0  0  0  0  0  0  0  0  0  0  0  0
    7.4914    1.5979   -2.6200 O   0  0  0  0  0  0  0  0  0  0  0  0
    8.1400    2.2666   -3.6118 C   0  0  0  0  0  0  0  0  0  0  0  0
    7.5502    2.8122   -4.5376 O   0  0  0  0  0  0  0  0  0  0  0  0
    9.5017    2.1979   -3.5612 N   0  0  0  0  0  0  0  0  0  0  0  0
   10.2692    1.2580   -2.7520 C   0  0  0  0  0  0  0  0  0  0  0  0
   11.1890    0.4262   -3.6568 C   0  0  0  0  0  0  0  0  0  0  0  0
   12.0259    1.2706   -4.4648 O   0  0  0  0  0  0  0  0  0  0  0  0
   11.2334    2.1073   -5.3232 C   0  0  0  0  0  0  0  0  0  0  0  0
   10.2989    2.9916   -4.4965 C   0  0  0  0  0  0  0  0  0  0  0  0
    5.4582   -1.1322   -5.8692 H   0  0  0  0  0  0  0  0  0  0  0  0
    4.9385    0.4511   -6.4939 H   0  0  0  0  0  0  0  0  0  0  0  0
    7.1358    1.0325   -5.0311 H   0  0  0  0  0  0  0  0  0  0  0  0
    5.6701    3.5516   -3.5585 H   0  0  0  0  0  0  0  0  0  0  0  0
    5.7549    3.5043   -1.7969 H   0  0  0  0  0  0  0  0  0  0  0  0
    3.4997    4.8535   -3.5338 H   0  0  0  0  0  0  0  0  0  0  0  0
    3.5091    4.9300   -1.7109 H   0  0  0  0  0  0  0  0  0  0  0  0
    1.1778    2.4472   -2.4611 H   0  0  0  0  0  0  0  0  0  0  0  0
   -1.1151    2.5117   -3.0035 H   0  0  0  0  0  0  0  0  0  0  0  0
   -2.3035    4.6866   -3.1444 H   0  0  0  0  0  0  0  0  0  0  0  0
   -1.0449    6.7898   -2.7802 H   0  0  0  0  0  0  0  0  0  0  0  0
    3.3480    6.8602   -1.9607 H   0  0  0  0  0  0  0  0  0  0  0  0
    9.6204    0.5970   -2.1713 H   0  0  0  0  0  0  0  0  0  0  0  0
   10.8700    1.8644   -2.0668 H   0  0  0  0  0  0  0  0  0  0  0  0
   10.6060   -0.2272   -4.3171 H   0  0  0  0  0  0  0  0  0  0  0  0
   11.8408   -0.2012   -3.0426 H   0  0  0  0  0  0  0  0  0  0  0  0
   10.6738    1.4774   -6.0249 H   0  0  0  0  0  0  0  0  0  0  0  0
   11.9159    2.7343   -5.9065 H   0  0  0  0  0  0  0  0  0  0  0  0
    9.6682    3.5979   -5.1549 H   0  0  0  0  0  0  0  0  0  0  0  0
   10.8878    3.6737   -3.8749 H   0  0  0  0  0  0  0  0  0  0  0  0
  1  2  3  0  0  0  0
  2  3  1  0  0  0  0
  3  4  1  0  0  0  0
  3 33  1  0  0  0  0
  3 34  1  0  0  0  0
  4  5  1  0  0  0  0
  4 35  1  0  0  0  0
  5  6  2  0  0  0  0
  7  9  1  0  0  0  0
  7 24  1  0  0  0  0
  7  8  1  1  0  0  0
  7  5  1  0  0  0  0
  9 10  1  0  0  0  0
  9 36  1  0  0  0  0
  9 37  1  0  0  0  0
 10 11  2  0  0  0  0
 10 12  2  0  0  0  0
 10 13  1  0  0  0  0
 13 14  1  0  0  0  0
 13 38  1  0  0  0  0
 13 39  1  0  0  0  0
 14 15  2  0  0  0  0
 14 19  1  0  0  0  0
 15 16  1  0  0  0  0
 15 40  1  0  0  0  0
 16 17  2  0  0  0  0
 16 41  1  0  0  0  0
 17 18  1  0  0  0  0
 17 42  1  0  0  0  0
 18 19  2  0  0  0  0
 18 43  1  0  0  0  0
 19 20  1  0  0  0  0
 20 21  1  0  0  0  0
 21 22  1  0  0  0  0
 21 23  1  0  0  0  0
 21 44  1  0  0  0  0
 24 25  1  0  0  0  0
 25 26  2  0  0  0  0
 25 27  1  0  0  0  0
 27 28  1  0  0  0  0
 27 32  1  0  0  0  0
 28 29  1  0  0  0  0
 28 45  1  0  0  0  0
 28 46  1  0  0  0  0
 29 30  1  0  0  0  0
 29 47  1  0  0  0  0
 29 48  1  0  0  0  0
 30 31  1  0  0  0  0
 31 32  1  0  0  0  0
 31 49  1  0  0  0  0
 31 50  1  0  0  0  0
 32 51  1  0  0  0  0
 32 52  1  0  0  0  0
M  END
$$$$
