MOE
 OpenBabel04121316153D

 12 11  0  0  0  0  0  0  0  0999 V2000
    0.9741    0.0351    0.0460 O   0  5  0  0  0  0  0  0  0  0  0  0
    2.3019    0.0868    0.0737 C   0  0  0  0  0  0  0  0  0  0  0  0
    2.8324   -1.1954   -0.6145 C   0  0  0  0  0  0  0  0  0  0  0  0
    4.2725   -1.1968   -0.6153 O   0  0  0  0  0  0  0  0  0  0  0  0
    4.7669   -2.3683   -1.2441 C   0  0  0  0  0  0  0  0  0  0  0  0
    2.8062    0.1235    1.0525 H   0  0  0  0  0  0  0  0  0  0  0  0
    2.8062    0.9228   -0.4366 H   0  0  0  0  0  0  0  0  0  0  0  0
    2.4853   -1.2459   -1.6556 H   0  0  0  0  0  0  0  0  0  0  0  0
    2.4853   -2.0909   -0.0813 H   0  0  0  0  0  0  0  0  0  0  0  0
    5.8597   -2.3375   -1.2276 H   0  0  0  0  0  0  0  0  0  0  0  0
    4.4369   -2.4142   -2.2867 H   0  0  0  0  0  0  0  0  0  0  0  0
    4.4369   -3.2626   -0.7062 H   0  0  0  0  0  0  0  0  0  0  0  0
  1  2  1  0  0  0  0
  2  3  1  0  0  0  0
  2  6  1  0  0  0  0
  2  7  1  0  0  0  0
  3  4  1  0  0  0  0
  3  8  1  0  0  0  0
  3  9  1  0  0  0  0
  4  5  1  0  0  0  0
  5 10  1  0  0  0  0
  5 11  1  0  0  0  0
  5 12  1  0  0  0  0
M  CHG  1   1  -1
M  END
$$$$
