MP2
 OpenBabel04121316153D

 37 37  0  0  1  0  0  0  0  0999 V2000
    0.8875   -0.1790    0.2463 S   0  0  0  0  0  0  0  0  0  0  0  0
    2.7130   -0.0937    0.0517 C   0  0  0  0  0  0  0  0  0  0  0  0
    3.2508   -1.0225   -1.0560 C   0  0  1  0  0  0  0  0  0  0  0  0
    2.8861   -2.0464   -0.9027 H   0  0  0  0  0  0  0  0  0  0  0  0
    2.7999   -0.5268   -2.4618 C   0  0  0  0  0  0  0  0  0  0  0  0
    3.5737   -0.0969   -3.3174 O   0  0  0  0  0  0  0  0  0  0  0  0
    1.4509   -0.5854   -2.7026 N   0  0  0  0  0  0  0  0  0  0  0  0
    0.8912   -0.1034   -3.9456 C   0  0  0  0  0  0  0  0  0  0  0  0
   -0.6281   -0.1156   -3.8650 C   0  0  0  0  0  0  0  0  0  0  0  0
   -1.2568   -0.4314   -2.8629 O   0  0  0  0  0  0  0  0  0  0  0  0
   -1.2422    0.2752   -5.0047 O   0  0  0  0  0  0  0  0  0  0  0  0
    4.7134   -1.1039   -1.0469 N   0  0  0  0  0  0  0  0  0  0  0  0
    5.3538   -1.9428   -1.9153 C   0  0  0  0  0  0  0  0  0  0  0  0
    4.7857   -2.7255   -2.6729 O   0  0  0  0  0  0  0  0  0  0  0  0
    6.6928   -1.7863   -1.8295 O   0  0  0  0  0  0  0  0  0  0  0  0
    7.4030   -2.6062   -2.7664 C   0  0  0  0  0  0  0  0  0  0  0  0
    8.8881   -2.4167   -2.5857 C   0  0  0  0  0  0  0  0  0  0  0  0
    9.4347   -1.1282   -2.5141 C   0  0  0  0  0  0  0  0  0  0  0  0
   10.8163   -0.9451   -2.5364 C   0  0  0  0  0  0  0  0  0  0  0  0
   11.6642   -2.0497   -2.5146 C   0  0  0  0  0  0  0  0  0  0  0  0
   11.1303   -3.3358   -2.4666 C   0  0  0  0  0  0  0  0  0  0  0  0
    9.7510   -3.5212   -2.5657 C   0  0  0  0  0  0  0  0  0  0  0  0
    0.7077    0.8634    1.0697 H   0  0  0  0  0  0  0  0  0  0  0  0
    3.1356   -0.3746    1.0220 H   0  0  0  0  0  0  0  0  0  0  0  0
    3.0096    0.9440   -0.1439 H   0  0  0  0  0  0  0  0  0  0  0  0
    0.8011   -0.7587   -1.9329 H   0  0  0  0  0  0  0  0  0  0  0  0
    1.2355   -0.7697   -4.7408 H   0  0  0  0  0  0  0  0  0  0  0  0
    1.2470    0.9171   -4.1180 H   0  0  0  0  0  0  0  0  0  0  0  0
   -0.6393    0.5047   -5.7371 H   0  0  0  0  0  0  0  0  0  0  0  0
    5.2914   -0.4848   -0.4942 H   0  0  0  0  0  0  0  0  0  0  0  0
    7.1434   -2.3216   -3.7959 H   0  0  0  0  0  0  0  0  0  0  0  0
    7.1382   -3.6594   -2.6108 H   0  0  0  0  0  0  0  0  0  0  0  0
    8.7806   -0.2611   -2.4573 H   0  0  0  0  0  0  0  0  0  0  0  0
   11.2290    0.0593   -2.5695 H   0  0  0  0  0  0  0  0  0  0  0  0
   12.7410   -1.9072   -2.5307 H   0  0  0  0  0  0  0  0  0  0  0  0
   11.7888   -4.1945   -2.3674 H   0  0  0  0  0  0  0  0  0  0  0  0
    9.3557   -4.5329   -2.6288 H   0  0  0  0  0  0  0  0  0  0  0  0
  1  2  1  0  0  0  0
  1 23  1  0  0  0  0
  2  3  1  0  0  0  0
  2 24  1  0  0  0  0
  2 25  1  0  0  0  0
  3  4  1  1  0  0  0
  3  5  1  0  0  0  0
  3 12  1  0  0  0  0
  5  6  2  0  0  0  0
  5  7  1  0  0  0  0
  7  8  1  0  0  0  0
  7 26  1  0  0  0  0
  8  9  1  0  0  0  0
  8 27  1  0  0  0  0
  8 28  1  0  0  0  0
  9 10  2  0  0  0  0
  9 11  1  0  0  0  0
 11 29  1  0  0  0  0
 12 13  1  0  0  0  0
 12 30  1  0  0  0  0
 13 14  2  0  0  0  0
 13 15  1  0  0  0  0
 15 16  1  0  0  0  0
 16 17  1  0  0  0  0
 16 31  1  0  0  0  0
 16 32  1  0  0  0  0
 17 18  2  0  0  0  0
 17 22  1  0  0  0  0
 18 19  1  0  0  0  0
 18 33  1  0  0  0  0
 19 20  2  0  0  0  0
 19 34  1  0  0  0  0
 20 21  1  0  0  0  0
 20 35  1  0  0  0  0
 21 22  2  0  0  0  0
 21 36  1  0  0  0  0
 22 37  1  0  0  0  0
M  END
$$$$
