MPD
 OpenBabel04121316153D

 22 21  0  0  1  0  0  0  0  0999 V2000
    1.0664   -0.2886   -0.0172 C   0  0  0  0  0  0  0  0  0  0  0  0
    2.5675   -0.0423   -0.0424 C   0  0  1  0  0  0  0  0  0  0  0  0
    2.9526   -0.1865   -1.0570 H   0  0  0  0  0  0  0  0  0  0  0  0
    3.0122    1.3301    0.4972 C   0  0  0  0  0  0  0  0  0  0  0  0
    2.5630    2.5799   -0.2959 C   0  0  0  0  0  0  0  0  0  0  0  0
    3.0571    2.5020   -1.6328 O   0  0  0  0  0  0  0  0  0  0  0  0
    1.0495    2.7999   -0.3356 C   0  0  0  0  0  0  0  0  0  0  0  0
    3.1749    3.8436    0.3225 C   0  0  0  0  0  0  0  0  0  0  0  0
    3.1714   -1.0524    0.7715 O   0  0  0  0  0  0  0  0  0  0  0  0
    0.5500    0.2451   -0.8116 H   0  0  0  0  0  0  0  0  0  0  0  0
    0.6401   -0.0034    0.9505 H   0  0  0  0  0  0  0  0  0  0  0  0
    0.8341   -1.3457   -0.1749 H   0  0  0  0  0  0  0  0  0  0  0  0
    4.1137    1.3141    0.5192 H   0  0  0  0  0  0  0  0  0  0  0  0
    2.7150    1.4211    1.5509 H   0  0  0  0  0  0  0  0  0  0  0  0
    2.6952    1.7020   -2.0575 H   0  0  0  0  0  0  0  0  0  0  0  0
    0.5470    2.1326   -1.0335 H   0  0  0  0  0  0  0  0  0  0  0  0
    0.8085    3.7958   -0.7230 H   0  0  0  0  0  0  0  0  0  0  0  0
    0.6066    2.7045    0.6611 H   0  0  0  0  0  0  0  0  0  0  0  0
    4.2684    3.8156    0.3021 H   0  0  0  0  0  0  0  0  0  0  0  0
    2.8391    3.9844    1.3554 H   0  0  0  0  0  0  0  0  0  0  0  0
    2.8799    4.7292   -0.2546 H   0  0  0  0  0  0  0  0  0  0  0  0
    2.8715   -1.9147    0.4338 H   0  0  0  0  0  0  0  0  0  0  0  0
  1  2  1  0  0  0  0
  1 10  1  0  0  0  0
  1 11  1  0  0  0  0
  1 12  1  0  0  0  0
  2  3  1  6  0  0  0
  2  4  1  0  0  0  0
  2  9  1  0  0  0  0
  4  5  1  0  0  0  0
  4 13  1  0  0  0  0
  4 14  1  0  0  0  0
  5  6  1  0  0  0  0
  5  7  1  0  0  0  0
  5  8  1  0  0  0  0
  6 15  1  0  0  0  0
  7 16  1  0  0  0  0
  7 17  1  0  0  0  0
  7 18  1  0  0  0  0
  8 19  1  0  0  0  0
  8 20  1  0  0  0  0
  8 21  1  0  0  0  0
  9 22  1  0  0  0  0
M  END
$$$$
