MPE
 OpenBabel04121316153D

 32 33  0  0  1  0  0  0  0  0999 V2000
   10.6681    3.2537   -1.3769 S   0  0  0  0  0  0  0  0  0  0  0  0
   10.1216    1.5313   -1.1623 C   0  0  0  0  0  0  0  0  0  0  0  0
    8.8102    1.3292   -1.9062 C   0  0  0  0  0  0  0  0  0  0  0  0
    8.5042   -0.0710   -1.9701 O   0  0  0  0  0  0  0  0  0  0  0  0
    7.0980   -0.1957   -2.3370 N   0  0  0  0  0  0  0  0  0  0  0  0
    6.6440   -1.5964   -2.1158 C   0  0  2  0  0  0  0  0  0  0  0  0
    5.5467   -1.5871   -2.1440 H   0  0  0  0  0  0  0  0  0  0  0  0
    7.0616   -2.1438   -0.7750 C   0  0  0  0  0  0  0  0  0  0  0  0
    7.5321   -1.4464    0.3265 C   0  0  0  0  0  0  0  0  0  0  0  0
    7.7896   -2.3298    1.3330 N   0  0  0  0  0  0  0  0  0  0  0  0
    8.1512   -2.0824    2.2436 H   0  0  0  0  0  0  0  0  0  0  0  0
    7.4499   -3.6005    0.9402 C   0  0  0  0  0  0  0  0  0  0  0  0
    6.9958   -3.5214   -0.3764 C   0  0  0  0  0  0  0  0  0  0  0  0
    6.5823   -4.7096   -1.0158 C   0  0  0  0  0  0  0  0  0  0  0  0
    6.6291   -5.9202   -0.3212 C   0  0  0  0  0  0  0  0  0  0  0  0
    7.0758   -5.9618    0.9953 C   0  0  0  0  0  0  0  0  0  0  0  0
    7.5003   -4.8030    1.6513 C   0  0  0  0  0  0  0  0  0  0  0  0
    7.1068   -2.4775   -3.2913 C   0  0  0  0  0  0  0  0  0  0  0  0
    6.3368   -3.0310   -4.0744 O   0  0  0  0  0  0  0  0  0  0  0  0
    8.4522   -2.5667   -3.4366 O   0  0  0  0  0  0  0  0  0  0  0  0
   11.8222    3.1631   -0.7030 H   0  0  0  0  0  0  0  0  0  0  0  0
   10.0020    1.3089   -0.0953 H   0  0  0  0  0  0  0  0  0  0  0  0
   10.8849    0.8453   -1.5436 H   0  0  0  0  0  0  0  0  0  0  0  0
    8.8991    1.6614   -2.9452 H   0  0  0  0  0  0  0  0  0  0  0  0
    8.0042    1.8929   -1.4144 H   0  0  0  0  0  0  0  0  0  0  0  0
    7.1246   -0.0436   -3.3494 H   0  0  0  0  0  0  0  0  0  0  0  0
    7.7119   -0.3888    0.4663 H   0  0  0  0  0  0  0  0  0  0  0  0
    6.2192   -4.7071   -2.0405 H   0  0  0  0  0  0  0  0  0  0  0  0
    6.3062   -6.8311   -0.8190 H   0  0  0  0  0  0  0  0  0  0  0  0
    7.0910   -6.9114    1.5235 H   0  0  0  0  0  0  0  0  0  0  0  0
    7.8449   -4.8395    2.6789 H   0  0  0  0  0  0  0  0  0  0  0  0
    8.9055   -2.0779   -2.7171 H   0  0  0  0  0  0  0  0  0  0  0  0
  1  2  1  0  0  0  0
  1 21  1  0  0  0  0
  2  3  1  0  0  0  0
  2 22  1  0  0  0  0
  2 23  1  0  0  0  0
  3  4  1  0  0  0  0
  3 24  1  0  0  0  0
  3 25  1  0  0  0  0
  4  5  1  0  0  0  0
  5 26  1  0  0  0  0
  6  8  1  0  0  0  0
  6 18  1  0  0  0  0
  6  7  1  6  0  0  0
  6  5  1  0  0  0  0
  8  9  2  0  0  0  0
  8 13  1  0  0  0  0
  9 10  1  0  0  0  0
  9 27  1  0  0  0  0
 10 11  1  0  0  0  0
 10 12  1  0  0  0  0
 12 13  2  0  0  0  0
 12 17  1  0  0  0  0
 13 14  1  0  0  0  0
 14 15  2  0  0  0  0
 14 28  1  0  0  0  0
 15 16  1  0  0  0  0
 15 29  1  0  0  0  0
 16 17  2  0  0  0  0
 16 30  1  0  0  0  0
 17 31  1  0  0  0  0
 18 19  2  0  0  0  0
 18 20  1  0  0  0  0
 20 32  1  0  0  0  0
M  END
$$$$
