MPH
 OpenBabel04121316153D

 22 21  0  0  1  0  0  0  0  0999 V2000
    1.0993   -0.0296    0.0565 C   0  0  0  0  0  0  0  0  0  0  0  0
    2.8979    0.2000   -0.1388 S   0  0  0  0  0  0  0  0  0  0  0  0
    3.3940   -0.1253    1.5778 C   0  0  0  0  0  0  0  0  0  0  0  0
    4.9193   -0.2129    1.7502 C   0  0  0  0  0  0  0  0  0  0  0  0
    5.3471   -0.5495    3.2029 C   0  0  1  0  0  0  0  0  0  0  0  0
    4.9782    0.2005    3.9122 H   0  0  0  0  0  0  0  0  0  0  0  0
    4.6602   -2.2046    3.5879 P   0  0  0  0  0  0  0  0  0  0  0  0
    3.1856   -2.3808    3.3473 O   0  0  0  0  0  0  0  0  0  0  0  0
    5.5466   -3.1909    2.6915 O   0  0  0  0  0  0  0  0  0  0  0  0
    4.9278   -2.7529    5.0571 O   0  0  0  0  0  0  0  0  0  0  0  0
    6.8412   -0.5370    3.2808 N   0  0  0  0  0  0  0  0  0  0  0  0
    0.6272    0.0582   -0.9253 H   0  0  0  0  0  0  0  0  0  0  0  0
    0.6955    0.7513    0.7061 H   0  0  0  0  0  0  0  0  0  0  0  0
    0.8395   -1.0116    0.4689 H   0  0  0  0  0  0  0  0  0  0  0  0
    2.9133   -1.0746    1.7705 H   0  0  0  0  0  0  0  0  0  0  0  0
    2.9729    0.6240    2.2538 H   0  0  0  0  0  0  0  0  0  0  0  0
    5.3865    0.7228    1.4266 H   0  0  0  0  0  0  0  0  0  0  0  0
    5.3017   -1.0118    1.0998 H   0  0  0  0  0  0  0  0  0  0  0  0
    6.4064   -2.7990    2.4416 H   0  0  0  0  0  0  0  0  0  0  0  0
    4.2190   -3.4315    5.1753 H   0  0  0  0  0  0  0  0  0  0  0  0
    7.1616    0.4058    3.0210 H   0  0  0  0  0  0  0  0  0  0  0  0
    7.2972   -1.1179    2.5828 H   0  0  0  0  0  0  0  0  0  0  0  0
  1  2  1  0  0  0  0
  1 12  1  0  0  0  0
  1 13  1  0  0  0  0
  1 14  1  0  0  0  0
  2  3  1  0  0  0  0
  3  4  1  0  0  0  0
  3 15  1  0  0  0  0
  3 16  1  0  0  0  0
  4  5  1  0  0  0  0
  4 17  1  0  0  0  0
  4 18  1  0  0  0  0
  5  6  1  1  0  0  0
  5  7  1  0  0  0  0
  5 11  1  0  0  0  0
  7  8  2  0  0  0  0
  7  9  1  0  0  0  0
  7 10  1  0  0  0  0
  9 19  1  0  0  0  0
 10 20  1  0  0  0  0
 11 21  1  0  0  0  0
 11 22  1  0  0  0  0
M  END
$$$$
