MPN
 OpenBabel04121316153D

 36 38  0  0  1  0  0  0  0  0999 V2000
    1.0289    0.1270   -0.6810 S   0  0  0  0  0  0  0  0  0  0  0  0
    2.5215    0.0173    0.1039 C   0  0  0  0  0  0  0  0  0  0  0  0
    2.8261   -1.1101    1.0663 C   0  0  1  0  0  0  0  0  0  0  0  0
    2.1648   -1.9033    0.6933 H   0  0  0  0  0  0  0  0  0  0  0  0
    4.0274   -1.9628    1.3681 C   0  0  0  0  0  0  0  0  0  0  0  0
    5.0561   -1.1070    1.7340 O   0  0  0  0  0  0  0  0  0  0  0  0
    6.5393   -1.9130    2.1127 P   0  0  0  0  0  0  0  0  0  0  0  0
    6.7869   -2.2089    0.6417 O   0  0  0  0  0  0  0  0  0  0  0  0
    7.1381   -0.4529    2.4896 O   0  0  0  0  0  0  0  0  0  0  0  0
    8.0224   -2.7191    2.4914 O   0  0  0  0  0  0  0  0  0  0  0  0
    2.4815   -0.5509    2.3670 O   0  0  0  0  0  0  0  0  0  0  0  0
    3.0145    0.7705    2.7472 C   0  0  2  0  0  0  0  0  0  0  0  0
    2.4925    0.9758    3.6852 H   0  0  0  0  0  0  0  0  0  0  0  0
    2.6370    1.8850    1.7249 C   0  0  2  0  0  0  0  0  0  0  0  0
    1.5459    1.9639    1.6754 H   0  0  0  0  0  0  0  0  0  0  0  0
    3.1639    1.3184    0.4145 C   0  0  0  0  0  0  0  0  0  0  0  0
    4.5223    1.6520   -0.4983 S   0  0  0  0  0  0  0  0  0  0  0  0
    3.1829    3.1662    2.1702 N   0  0  0  0  0  0  0  0  0  0  0  0
    4.5322    3.2058    2.5239 C   0  0  0  0  0  0  0  0  0  0  0  0
    5.1927    2.0904    2.9412 C   0  0  0  0  0  0  0  0  0  0  0  0
    4.4638    0.8725    3.1121 N   0  0  0  0  0  0  0  0  0  0  0  0
    6.5645    2.2008    3.0957 N   0  0  0  0  0  0  0  0  0  0  0  0
    7.0525    1.3950    3.4687 H   0  0  0  0  0  0  0  0  0  0  0  0
    7.1891    3.4144    3.0774 C   0  0  0  0  0  0  0  0  0  0  0  0
    6.6334    4.5197    2.6880 N   0  0  0  0  0  0  0  0  0  0  0  0
    5.3716    4.4173    2.1635 C   0  0  0  0  0  0  0  0  0  0  0  0
    4.8957    5.2546    1.3777 O   0  0  0  0  0  0  0  0  0  0  0  0
    8.4566    3.4409    3.5548 N   0  0  0  0  0  0  0  0  0  0  0  0
    3.7909   -2.5527    2.2692 H   0  0  0  0  0  0  0  0  0  0  0  0
    4.3277   -2.6745    0.5953 H   0  0  0  0  0  0  0  0  0  0  0  0
    6.9638    0.1462    1.7318 H   0  0  0  0  0  0  0  0  0  0  0  0
    7.9287   -3.6667    2.2885 H   0  0  0  0  0  0  0  0  0  0  0  0
    2.8083    4.0386    1.8018 H   0  0  0  0  0  0  0  0  0  0  0  0
    5.0040    0.0756    2.7978 H   0  0  0  0  0  0  0  0  0  0  0  0
    9.0418    2.6183    3.5448 H   0  0  0  0  0  0  0  0  0  0  0  0
    8.9498    4.3152    3.3870 H   0  0  0  0  0  0  0  0  0  0  0  0
  1  2  2  0  0  0  0
  2  3  1  0  0  0  0
  2 16  1  0  0  0  0
  3 11  1  0  0  0  0
  3  5  1  0  0  0  0
  3  4  1  6  0  0  0
  5  6  1  0  0  0  0
  5 29  1  0  0  0  0
  5 30  1  0  0  0  0
  6  7  1  0  0  0  0
  7  8  2  0  0  0  0
  7  9  1  0  0  0  0
  7 10  1  0  0  0  0
  9 31  1  0  0  0  0
 10 32  1  0  0  0  0
 11 12  1  0  0  0  0
 12 14  1  0  0  0  0
 12 21  1  0  0  0  0
 12 13  1  1  0  0  0
 14 16  1  0  0  0  0
 14 18  1  0  0  0  0
 14 15  1  6  0  0  0
 16 17  2  0  0  0  0
 18 19  1  0  0  0  0
 18 33  1  0  0  0  0
 19 20  2  0  0  0  0
 19 26  1  0  0  0  0
 20 21  1  0  0  0  0
 20 22  1  0  0  0  0
 21 34  1  0  0  0  0
 22 24  1  0  0  0  0
 22 23  1  0  0  0  0
 24 25  2  0  0  0  0
 24 28  1  0  0  0  0
 25 26  1  0  0  0  0
 26 27  2  0  0  0  0
 28 35  1  0  0  0  0
 28 36  1  0  0  0  0
M  END
$$$$
