MPU
 OpenBabel04121316153D

 29 30  0  0  1  0  0  0  0  0999 V2000
    5.2129   -1.1196   -2.0268 O   0  0  0  0  0  0  0  0  0  0  0  0
    4.3890    0.0266   -2.1503 C   0  0  0  0  0  0  0  0  0  0  0  0
    3.0053   -0.2948   -2.7417 C   0  0  1  0  0  0  0  0  0  0  0  0
    3.0789   -0.5455   -3.8077 H   0  0  0  0  0  0  0  0  0  0  0  0
    2.3824   -1.4861   -1.9587 C   0  0  2  0  0  0  0  0  0  0  0  0
    2.6732   -1.4024   -0.9023 H   0  0  0  0  0  0  0  0  0  0  0  0
    2.8458   -2.8295   -2.5105 C   0  0  0  0  0  0  0  0  0  0  0  0
    2.3652   -4.0221   -1.9760 C   0  0  0  0  0  0  0  0  0  0  0  0
    2.7170   -5.2513   -2.4388 N   0  0  0  0  0  0  0  0  0  0  0  0
    3.6116   -5.2631   -3.4549 C   0  0  0  0  0  0  0  0  0  0  0  0
    4.1199   -4.0790   -3.9625 C   0  0  0  0  0  0  0  0  0  0  0  0
    3.7318   -2.8548   -3.5385 N   0  0  0  0  0  0  0  0  0  0  0  0
    5.1344   -4.1887   -5.0229 C   0  0  0  0  0  0  0  0  0  0  0  0
    5.7147   -3.2226   -5.5190 O   0  0  0  0  0  0  0  0  0  0  0  0
    5.4079   -5.4683   -5.4411 N   0  0  0  0  0  0  0  0  0  0  0  0
    6.0891   -5.5475   -6.1787 H   0  0  0  0  0  0  0  0  0  0  0  0
    4.8162   -6.5813   -4.9164 C   0  0  0  0  0  0  0  0  0  0  0  0
    3.9530   -6.5282   -3.9550 N   0  0  0  0  0  0  0  0  0  0  0  0
    5.1777   -7.7641   -5.4528 N   0  0  0  0  0  0  0  0  0  0  0  0
    0.9482   -1.4359   -2.0048 O   0  0  0  0  0  0  0  0  0  0  0  0
    2.2108    0.9028   -2.6675 O   0  0  0  0  0  0  0  0  0  0  0  0
    6.0850   -0.8482   -1.7035 H   0  0  0  0  0  0  0  0  0  0  0  0
    4.8942    0.7837   -2.7581 H   0  0  0  0  0  0  0  0  0  0  0  0
    4.2564    0.4469   -1.1474 H   0  0  0  0  0  0  0  0  0  0  0  0
    1.6582   -4.0268   -1.1534 H   0  0  0  0  0  0  0  0  0  0  0  0
    5.8450   -7.8672   -6.2012 H   0  0  0  0  0  0  0  0  0  0  0  0
    4.7377   -8.5997   -5.0858 H   0  0  0  0  0  0  0  0  0  0  0  0
    0.6100   -2.0468   -1.3308 H   0  0  0  0  0  0  0  0  0  0  0  0
    2.5422    1.4959   -3.3655 H   0  0  0  0  0  0  0  0  0  0  0  0
  1  2  1  0  0  0  0
  1 22  1  0  0  0  0
  2  3  1  0  0  0  0
  2 23  1  0  0  0  0
  2 24  1  0  0  0  0
  3  4  1  6  0  0  0
  3 21  1  0  0  0  0
  5  7  1  0  0  0  0
  5 20  1  0  0  0  0
  5  6  1  1  0  0  0
  5  3  1  0  0  0  0
  7  8  2  0  0  0  0
  7 12  1  0  0  0  0
  8  9  1  0  0  0  0
  8 25  1  0  0  0  0
  9 10  2  0  0  0  0
 10 11  1  0  0  0  0
 10 18  1  0  0  0  0
 11 12  2  0  0  0  0
 11 13  1  0  0  0  0
 13 14  2  0  0  0  0
 13 15  1  0  0  0  0
 15 16  1  0  0  0  0
 15 17  1  0  0  0  0
 17 18  2  0  0  0  0
 17 19  1  0  0  0  0
 19 26  1  0  0  0  0
 19 27  1  0  0  0  0
 20 28  1  0  0  0  0
 21 29  1  0  0  0  0
M  END
$$$$
