MQ1
 OpenBabel04121316153D

 35 37  0  0  0  0  0  0  0  0999 V2000
    1.0751   -0.0240    0.0278 C   0  0  0  0  0  0  0  0  0  0  0  0
    2.4985    0.1418    0.1253 O   0  0  0  0  0  0  0  0  0  0  0  0
    3.2216   -0.6368   -0.7348 C   0  0  0  0  0  0  0  0  0  0  0  0
    3.8064   -0.0691   -1.8619 C   0  0  0  0  0  0  0  0  0  0  0  0
    4.3337   -0.9004   -2.8671 C   0  0  0  0  0  0  0  0  0  0  0  0
    4.4348   -2.2793   -2.6603 C   0  0  0  0  0  0  0  0  0  0  0  0
    4.2603   -2.7444   -1.3553 C   0  0  0  0  0  0  0  0  0  0  0  0
    3.4924   -1.9699   -0.4576 C   0  0  0  0  0  0  0  0  0  0  0  0
    4.4444   -3.0639   -3.8201 O   0  0  0  0  0  0  0  0  0  0  0  0
    3.9037   -4.3553   -3.8785 C   0  0  0  0  0  0  0  0  0  0  0  0
    4.2997   -5.1476   -4.9545 C   0  0  0  0  0  0  0  0  0  0  0  0
    4.1182   -6.5309   -4.8820 C   0  0  0  0  0  0  0  0  0  0  0  0
    3.7319   -7.0954   -3.6672 C   0  0  0  0  0  0  0  0  0  0  0  0
    3.1681   -6.3193   -2.6663 C   0  0  0  0  0  0  0  0  0  0  0  0
    3.0568   -4.9480   -2.9204 C   0  0  0  0  0  0  0  0  0  0  0  0
    2.1239   -4.3033   -2.1106 C   0  0  0  0  0  0  0  0  0  0  0  0
    1.5612   -3.0760   -2.5217 N   0  0  0  0  0  0  0  0  0  0  0  0
    1.6878   -4.8101   -0.9565 N   0  0  0  0  0  0  0  0  0  0  0  0
    2.0748   -6.0589   -0.6758 C   0  0  0  0  0  0  0  0  0  0  0  0
    2.7176   -6.8595   -1.5319 N   0  0  0  0  0  0  0  0  0  0  0  0
    1.7622   -6.5504    0.5680 N   0  0  0  0  0  0  0  0  0  0  0  0
    0.6158    0.6250    0.7850 H   0  0  0  0  0  0  0  0  0  0  0  0
    0.7480   -1.0481    0.2428 H   0  0  0  0  0  0  0  0  0  0  0  0
    0.6916    0.3013   -0.9467 H   0  0  0  0  0  0  0  0  0  0  0  0
    3.7778    1.0064   -2.0017 H   0  0  0  0  0  0  0  0  0  0  0  0
    4.5715   -0.4756   -3.8384 H   0  0  0  0  0  0  0  0  0  0  0  0
    4.4466   -3.7836   -1.0945 H   0  0  0  0  0  0  0  0  0  0  0  0
    3.0015   -2.4653    0.3797 H   0  0  0  0  0  0  0  0  0  0  0  0
    4.7578   -4.7127   -5.8372 H   0  0  0  0  0  0  0  0  0  0  0  0
    4.3313   -7.1694   -5.7355 H   0  0  0  0  0  0  0  0  0  0  0  0
    3.8149   -8.1726   -3.5184 H   0  0  0  0  0  0  0  0  0  0  0  0
    2.2091   -2.5193   -3.0691 H   0  0  0  0  0  0  0  0  0  0  0  0
    1.2812   -2.5769   -1.6837 H   0  0  0  0  0  0  0  0  0  0  0  0
    1.0932   -5.9614    1.0426 H   0  0  0  0  0  0  0  0  0  0  0  0
    1.5779   -7.5440    0.5326 H   0  0  0  0  0  0  0  0  0  0  0  0
  1  2  1  0  0  0  0
  1 22  1  0  0  0  0
  1 23  1  0  0  0  0
  1 24  1  0  0  0  0
  2  3  1  0  0  0  0
  3  4  2  0  0  0  0
  3  8  1  0  0  0  0
  4  5  1  0  0  0  0
  4 25  1  0  0  0  0
  5  6  2  0  0  0  0
  5 26  1  0  0  0  0
  6  7  1  0  0  0  0
  6  9  1  0  0  0  0
  7  8  2  0  0  0  0
  7 27  1  0  0  0  0
  8 28  1  0  0  0  0
  9 10  1  0  0  0  0
 10 11  2  0  0  0  0
 10 15  1  0  0  0  0
 11 12  1  0  0  0  0
 11 29  1  0  0  0  0
 12 13  2  0  0  0  0
 12 30  1  0  0  0  0
 13 14  1  0  0  0  0
 13 31  1  0  0  0  0
 14 15  2  0  0  0  0
 14 20  1  0  0  0  0
 15 16  1  0  0  0  0
 16 17  1  0  0  0  0
 16 18  2  0  0  0  0
 17 32  1  0  0  0  0
 17 33  1  0  0  0  0
 18 19  1  0  0  0  0
 19 20  2  0  0  0  0
 19 21  1  0  0  0  0
 21 34  1  0  0  0  0
 21 35  1  0  0  0  0
M  END
$$$$
