MQD
 OpenBabel04121316153D

 23 22  0  0  1  0  0  0  0  0999 V2000
    0.8611   -1.4817   -2.0594 O   0  0  0  0  0  0  0  0  0  0  0  0
    2.2636   -1.6498   -1.8523 C   0  0  0  0  0  0  0  0  0  0  0  0
    2.9512   -0.3092   -1.4926 C   0  0  2  0  0  0  0  0  0  0  0  0
    2.5537    0.1388   -0.0567 C   0  0  0  0  0  0  0  0  0  0  0  0
    3.4094   -0.4315    1.0892 C   0  0  1  0  0  0  0  0  0  0  0  0
    3.5253   -1.5178    0.9951 H   0  0  0  0  0  0  0  0  0  0  0  0
    4.6929    0.1927    1.1198 O   0  0  0  0  0  0  0  0  0  0  0  0
    2.8177   -0.1047    2.4533 C   0  0  0  0  0  0  0  0  0  0  0  0
    2.5056    0.6849   -2.4346 O   0  0  0  0  0  0  0  0  0  0  0  0
    4.4587   -0.4369   -1.7189 C   0  0  0  0  0  0  0  0  0  0  0  0
    0.6266   -1.9960   -2.8512 H   0  0  0  0  0  0  0  0  0  0  0  0
    2.6971   -2.0784   -2.7631 H   0  0  0  0  0  0  0  0  0  0  0  0
    2.3800   -2.3786   -1.0444 H   0  0  0  0  0  0  0  0  0  0  0  0
    2.5723    1.2344   -0.0000 H   0  0  0  0  0  0  0  0  0  0  0  0
    1.5043   -0.1421    0.1107 H   0  0  0  0  0  0  0  0  0  0  0  0
    5.2968   -0.2627    0.5111 H   0  0  0  0  0  0  0  0  0  0  0  0
    1.8072   -0.4991    2.5792 H   0  0  0  0  0  0  0  0  0  0  0  0
    2.8046    0.9800    2.6111 H   0  0  0  0  0  0  0  0  0  0  0  0
    3.4589   -0.5193    3.2407 H   0  0  0  0  0  0  0  0  0  0  0  0
    2.7914    1.5562   -2.1106 H   0  0  0  0  0  0  0  0  0  0  0  0
    4.9660    0.4993   -1.4574 H   0  0  0  0  0  0  0  0  0  0  0  0
    4.6913   -0.6118   -2.7748 H   0  0  0  0  0  0  0  0  0  0  0  0
    4.8887   -1.2676   -1.1511 H   0  0  0  0  0  0  0  0  0  0  0  0
  1  2  1  0  0  0  0
  1 11  1  0  0  0  0
  2 12  1  0  0  0  0
  2 13  1  0  0  0  0
  3  9  1  6  0  0  0
  3 10  1  0  0  0  0
  3  4  1  0  0  0  0
  3  2  1  0  0  0  0
  4  5  1  0  0  0  0
  4 14  1  0  0  0  0
  4 15  1  0  0  0  0
  5  6  1  6  0  0  0
  5  7  1  0  0  0  0
  5  8  1  0  0  0  0
  7 16  1  0  0  0  0
  8 17  1  0  0  0  0
  8 18  1  0  0  0  0
  8 19  1  0  0  0  0
  9 20  1  0  0  0  0
 10 21  1  0  0  0  0
 10 22  1  0  0  0  0
 10 23  1  0  0  0  0
M  END
$$$$
