MQU
 OpenBabel04121316153D

 41 43  0  0  0  0  0  0  0  0999 V2000
    0.9158    0.0777    0.0691 C   0  0  0  0  0  0  0  0  0  0  0  0
    2.3062    0.2659    0.2190 O   0  0  0  0  0  0  0  0  0  0  0  0
    2.8918    1.1993   -0.6701 C   0  0  0  0  0  0  0  0  0  0  0  0
    4.4349    1.0782   -0.6513 C   0  0  0  0  0  0  0  0  0  0  0  0
    4.8966   -0.1860   -1.2620 N   0  0  0  0  0  0  0  0  0  0  0  0
    5.7208   -0.2662   -2.3523 C   0  0  0  0  0  0  0  0  0  0  0  0
    5.8425   -1.5777   -2.7139 C   0  0  0  0  0  0  0  0  0  0  0  0
    5.0769   -2.3692   -1.8163 C   0  0  0  0  0  0  0  0  0  0  0  0
    4.5622   -1.4790   -0.8629 C   0  0  0  0  0  0  0  0  0  0  0  0
    3.8327   -1.9618    0.2320 C   0  0  0  0  0  0  0  0  0  0  0  0
    3.4715   -3.3073    0.2755 C   0  0  0  0  0  0  0  0  0  0  0  0
    3.9494   -4.2130   -0.6410 C   0  0  0  0  0  0  0  0  0  0  0  0
    4.7826   -3.7763   -1.6794 C   0  0  0  0  0  0  0  0  0  0  0  0
    5.2657   -4.7999   -2.5052 C   0  0  0  0  0  0  0  0  0  0  0  0
    6.0303   -4.5632   -3.6269 N   0  0  0  0  0  0  0  0  0  0  0  0
    4.9477   -6.0928   -2.3147 N   0  0  0  0  0  0  0  0  0  0  0  0
    4.1316   -6.3764   -1.3031 C   0  0  0  0  0  0  0  0  0  0  0  0
    3.6092   -5.4936   -0.4608 N   0  0  0  0  0  0  0  0  0  0  0  0
    3.7990   -7.6891   -1.1036 N   0  0  0  0  0  0  0  0  0  0  0  0
    4.9666    2.3360   -1.3799 C   0  0  0  0  0  0  0  0  0  0  0  0
    6.3916    2.4254   -1.3113 O   0  0  0  0  0  0  0  0  0  0  0  0
    6.8843    3.4829   -2.1240 C   0  0  0  0  0  0  0  0  0  0  0  0
    0.6441   -0.8312    0.6161 H   0  0  0  0  0  0  0  0  0  0  0  0
    0.6279   -0.0537   -0.9778 H   0  0  0  0  0  0  0  0  0  0  0  0
    0.4025    0.9271    0.5187 H   0  0  0  0  0  0  0  0  0  0  0  0
    2.5919    2.1889   -0.3107 H   0  0  0  0  0  0  0  0  0  0  0  0
    2.5158    1.0637   -1.6918 H   0  0  0  0  0  0  0  0  0  0  0  0
    4.8251    1.0493    0.3738 H   0  0  0  0  0  0  0  0  0  0  0  0
    6.1761    0.5951   -2.8178 H   0  0  0  0  0  0  0  0  0  0  0  0
    6.4399   -1.8639   -3.5624 H   0  0  0  0  0  0  0  0  0  0  0  0
    3.4928   -1.3187    1.0347 H   0  0  0  0  0  0  0  0  0  0  0  0
    2.8102   -3.6433    1.0715 H   0  0  0  0  0  0  0  0  0  0  0  0
    6.4728   -3.6781   -3.7699 H   0  0  0  0  0  0  0  0  0  0  0  0
    6.4054   -5.3700   -4.0990 H   0  0  0  0  0  0  0  0  0  0  0  0
    4.2045   -8.3721   -1.7149 H   0  0  0  0  0  0  0  0  0  0  0  0
    3.2085   -7.9051   -0.3221 H   0  0  0  0  0  0  0  0  0  0  0  0
    4.5593    3.2399   -0.9141 H   0  0  0  0  0  0  0  0  0  0  0  0
    4.6401    2.3229   -2.4299 H   0  0  0  0  0  0  0  0  0  0  0  0
    7.9763    3.4422   -2.1219 H   0  0  0  0  0  0  0  0  0  0  0  0
    6.5590    4.4402   -1.7105 H   0  0  0  0  0  0  0  0  0  0  0  0
    6.5364    3.3802   -3.1580 H   0  0  0  0  0  0  0  0  0  0  0  0
  1  2  1  0  0  0  0
  1 23  1  0  0  0  0
  1 24  1  0  0  0  0
  1 25  1  0  0  0  0
  2  3  1  0  0  0  0
  3  4  1  0  0  0  0
  3 26  1  0  0  0  0
  3 27  1  0  0  0  0
  4  5  1  0  0  0  0
  4 20  1  0  0  0  0
  4 28  1  0  0  0  0
  5  6  1  0  0  0  0
  5  9  1  0  0  0  0
  6  7  2  0  0  0  0
  6 29  1  0  0  0  0
  7  8  1  0  0  0  0
  7 30  1  0  0  0  0
  8  9  2  0  0  0  0
  8 13  1  0  0  0  0
  9 10  1  0  0  0  0
 10 11  2  0  0  0  0
 10 31  1  0  0  0  0
 11 12  1  0  0  0  0
 11 32  1  0  0  0  0
 12 13  2  0  0  0  0
 12 18  1  0  0  0  0
 13 14  1  0  0  0  0
 14 15  1  0  0  0  0
 14 16  2  0  0  0  0
 15 33  1  0  0  0  0
 15 34  1  0  0  0  0
 16 17  1  0  0  0  0
 17 18  2  0  0  0  0
 17 19  1  0  0  0  0
 19 35  1  0  0  0  0
 19 36  1  0  0  0  0
 20 21  1  0  0  0  0
 20 37  1  0  0  0  0
 20 38  1  0  0  0  0
 21 22  1  0  0  0  0
 22 39  1  0  0  0  0
 22 40  1  0  0  0  0
 22 41  1  0  0  0  0
M  END
$$$$
