MR0
 OpenBabel04121316153D

 84 86  0  0  1  0  0  0  0  0999 V2000
    3.0926   -1.2517    0.1979 C   0  0  0  0  0  0  0  0  0  0  0  0
    3.7693   -2.5805    0.1644 C   0  0  0  0  0  0  0  0  0  0  0  0
    4.2976   -3.2539   -1.0642 C   0  0  0  0  0  0  0  0  0  0  0  0
    4.9358   -4.6065   -0.8568 N   0  0  0  0  0  0  0  0  0  0  0  0
    5.0955   -5.3656    0.3379 C   0  0  0  0  0  0  0  0  0  0  0  0
    5.6400   -6.4319    0.5285 O   0  0  0  0  0  0  0  0  0  0  0  0
    4.6219   -4.8299    1.5791 C   0  0  0  0  0  0  0  0  0  0  0  0
    3.2692   -4.9692    1.8669 C   0  0  0  0  0  0  0  0  0  0  0  0
    2.7544   -4.0251    2.7267 C   0  0  0  0  0  0  0  0  0  0  0  0
    3.6110   -3.0113    3.2247 C   0  0  0  0  0  0  0  0  0  0  0  0
    5.0037   -3.1137    3.1606 C   0  0  0  0  0  0  0  0  0  0  0  0
    5.5314   -4.0290    2.2831 C   0  0  0  0  0  0  0  0  0  0  0  0
    5.8031   -2.4217    4.1979 C   0  0  0  0  0  0  0  0  0  0  0  0
    5.2587   -2.0176    5.2423 O   0  0  0  0  0  0  0  0  0  0  0  0
    7.1425   -2.3638    4.0573 N   0  0  0  0  0  0  0  0  0  0  0  0
    1.3412   -4.1577    3.1211 C   0  0  0  0  0  0  0  0  0  0  0  0
    0.5631   -4.8815    2.5271 O   0  0  0  0  0  0  0  0  0  0  0  0
    0.9232   -3.4733    4.2289 N   0  0  0  0  0  0  0  0  0  0  0  0
    1.7271   -3.1088    5.4433 C   0  0  2  0  0  0  0  0  0  0  0  0
    2.1297   -2.1303    5.1724 H   0  0  0  0  0  0  0  0  0  0  0  0
    2.9728   -4.1223    5.9725 C   0  0  1  0  0  0  0  0  0  0  0  0
    3.6158   -3.4523    6.5591 H   0  0  0  0  0  0  0  0  0  0  0  0
    2.8274   -5.4438    6.7679 C   0  0  0  0  0  0  0  0  0  0  0  0
    2.4273   -5.1686    8.1183 N   0  0  0  0  0  0  0  0  0  0  0  0
    1.9932   -6.2979    8.9337 C   0  0  0  0  0  0  0  0  0  0  0  0
    1.1871   -5.7821   10.1395 C   0  0  0  0  0  0  0  0  0  0  0  0
    0.3307   -6.6506   10.8351 C   0  0  0  0  0  0  0  0  0  0  0  0
   -0.5528   -6.1599   11.8060 C   0  0  0  0  0  0  0  0  0  0  0  0
   -0.6593   -4.7832   12.0361 C   0  0  0  0  0  0  0  0  0  0  0  0
    0.1269   -3.8866   11.3134 C   0  0  0  0  0  0  0  0  0  0  0  0
    1.0868   -4.3946   10.4330 C   0  0  0  0  0  0  0  0  0  0  0  0
   -0.2131   -2.5628   11.4392 O   0  0  0  0  0  0  0  0  0  0  0  0
    0.4959   -1.6050   10.6559 C   0  0  0  0  0  0  0  0  0  0  0  0
    3.7850   -4.6884    4.9564 O   0  0  0  0  0  0  0  0  0  0  0  0
    0.7657   -2.6802    6.5661 C   0  0  0  0  0  0  0  0  0  0  0  0
   -0.1425   -3.8305    6.9314 C   0  0  0  0  0  0  0  0  0  0  0  0
   -0.0117   -5.0652    6.2651 C   0  0  0  0  0  0  0  0  0  0  0  0
   -0.3775   -6.2631    6.8123 C   0  0  0  0  0  0  0  0  0  0  0  0
    0.2861   -7.3567    6.4038 F   0  0  0  0  0  0  0  0  0  0  0  0
   -1.0921   -6.2556    7.9696 C   0  0  0  0  0  0  0  0  0  0  0  0
   -1.4423   -5.0298    8.5300 C   0  0  0  0  0  0  0  0  0  0  0  0
   -0.9397   -3.8153    8.0557 C   0  0  0  0  0  0  0  0  0  0  0  0
   -2.1096   -5.0343    9.6844 F   0  0  0  0  0  0  0  0  0  0  0  0
    5.4349   -5.1907   -2.1011 C   0  0  0  0  0  0  0  0  0  0  0  0
    6.0918   -6.5489   -1.9413 C   0  0  0  0  0  0  0  0  0  0  0  0
    6.6060   -7.1509   -3.2112 C   0  0  0  0  0  0  0  0  0  0  0  0
    2.8084   -1.0498    1.2437 H   0  0  0  0  0  0  0  0  0  0  0  0
    2.1799   -1.2861   -0.3925 H   0  0  0  0  0  0  0  0  0  0  0  0
    3.7760   -0.4721   -0.1251 H   0  0  0  0  0  0  0  0  0  0  0  0
    2.9812   -3.2347    0.5043 H   0  0  0  0  0  0  0  0  0  0  0  0
    4.6205   -2.4512    0.8204 H   0  0  0  0  0  0  0  0  0  0  0  0
    5.0466   -2.5993   -1.5206 H   0  0  0  0  0  0  0  0  0  0  0  0
    3.4706   -3.3845   -1.7696 H   0  0  0  0  0  0  0  0  0  0  0  0
    2.6203   -5.6320    1.2971 H   0  0  0  0  0  0  0  0  0  0  0  0
    3.2558   -2.2312    3.8654 H   0  0  0  0  0  0  0  0  0  0  0  0
    6.5823   -4.0531    2.0350 H   0  0  0  0  0  0  0  0  0  0  0  0
    7.6437   -2.7711    3.2805 H   0  0  0  0  0  0  0  0  0  0  0  0
    7.6827   -1.9682    4.8170 H   0  0  0  0  0  0  0  0  0  0  0  0
   -0.0723   -3.6540    4.3629 H   0  0  0  0  0  0  0  0  0  0  0  0
    3.7933   -5.9691    6.8049 H   0  0  0  0  0  0  0  0  0  0  0  0
    2.2428   -6.1454    6.1617 H   0  0  0  0  0  0  0  0  0  0  0  0
    1.6579   -4.5200    8.0660 H   0  0  0  0  0  0  0  0  0  0  0  0
    2.8518   -6.9058    9.2175 H   0  0  0  0  0  0  0  0  0  0  0  0
    1.3507   -6.9932    8.3863 H   0  0  0  0  0  0  0  0  0  0  0  0
    0.2258   -7.6897   10.5256 H   0  0  0  0  0  0  0  0  0  0  0  0
   -1.2482   -6.8390   12.2942 H   0  0  0  0  0  0  0  0  0  0  0  0
   -1.4426   -4.4088   12.6911 H   0  0  0  0  0  0  0  0  0  0  0  0
    1.6574   -3.6909    9.8390 H   0  0  0  0  0  0  0  0  0  0  0  0
    0.2319   -0.6069   11.0177 H   0  0  0  0  0  0  0  0  0  0  0  0
    0.2081   -1.6302    9.6010 H   0  0  0  0  0  0  0  0  0  0  0  0
    1.5769   -1.7255   10.7514 H   0  0  0  0  0  0  0  0  0  0  0  0
    4.6783   -4.3429    5.1150 H   0  0  0  0  0  0  0  0  0  0  0  0
    0.1614   -1.8139    6.2575 H   0  0  0  0  0  0  0  0  0  0  0  0
    1.3960   -2.3327    7.4000 H   0  0  0  0  0  0  0  0  0  0  0  0
    0.6536   -5.2209    5.4298 H   0  0  0  0  0  0  0  0  0  0  0  0
   -1.1818   -7.1770    8.5257 H   0  0  0  0  0  0  0  0  0  0  0  0
   -1.0508   -2.9331    8.6743 H   0  0  0  0  0  0  0  0  0  0  0  0
    6.1470   -4.4750   -2.5305 H   0  0  0  0  0  0  0  0  0  0  0  0
    4.5830   -5.2608   -2.7886 H   0  0  0  0  0  0  0  0  0  0  0  0
    5.3602   -7.2512   -1.5216 H   0  0  0  0  0  0  0  0  0  0  0  0
    6.9465   -6.4531   -1.2598 H   0  0  0  0  0  0  0  0  0  0  0  0
    5.7871   -7.3031   -3.9155 H   0  0  0  0  0  0  0  0  0  0  0  0
    7.0535   -8.1201   -2.9700 H   0  0  0  0  0  0  0  0  0  0  0  0
    7.3690   -6.5074   -3.6515 H   0  0  0  0  0  0  0  0  0  0  0  0
  1  2  1  0  0  0  0
  1 47  1  0  0  0  0
  1 48  1  0  0  0  0
  1 49  1  0  0  0  0
  2  3  1  0  0  0  0
  2 50  1  0  0  0  0
  2 51  1  0  0  0  0
  3  4  1  0  0  0  0
  3 52  1  0  0  0  0
  3 53  1  0  0  0  0
  4  5  1  0  0  0  0
  4 44  1  0  0  0  0
  5  6  2  0  0  0  0
  5  7  1  0  0  0  0
  7  8  2  0  0  0  0
  7 12  1  0  0  0  0
  8  9  1  0  0  0  0
  8 54  1  0  0  0  0
  9 10  2  0  0  0  0
  9 16  1  0  0  0  0
 10 11  1  0  0  0  0
 10 55  1  0  0  0  0
 11 12  2  0  0  0  0
 11 13  1  0  0  0  0
 12 56  1  0  0  0  0
 13 14  2  0  0  0  0
 13 15  1  0  0  0  0
 15 57  1  0  0  0  0
 15 58  1  0  0  0  0
 16 17  2  0  0  0  0
 16 18  1  0  0  0  0
 18 59  1  0  0  0  0
 19 21  1  0  0  0  0
 19 35  1  0  0  0  0
 19 20  1  6  0  0  0
 19 18  1  0  0  0  0
 21 22  1  1  0  0  0
 21 23  1  0  0  0  0
 21 34  1  0  0  0  0
 23 24  1  0  0  0  0
 23 60  1  0  0  0  0
 23 61  1  0  0  0  0
 24 25  1  0  0  0  0
 24 62  1  0  0  0  0
 25 26  1  0  0  0  0
 25 63  1  0  0  0  0
 25 64  1  0  0  0  0
 26 27  2  0  0  0  0
 26 31  1  0  0  0  0
 27 28  1  0  0  0  0
 27 65  1  0  0  0  0
 28 29  2  0  0  0  0
 28 66  1  0  0  0  0
 29 30  1  0  0  0  0
 29 67  1  0  0  0  0
 30 31  2  0  0  0  0
 30 32  1  0  0  0  0
 31 68  1  0  0  0  0
 32 33  1  0  0  0  0
 33 69  1  0  0  0  0
 33 70  1  0  0  0  0
 33 71  1  0  0  0  0
 34 72  1  0  0  0  0
 35 36  1  0  0  0  0
 35 73  1  0  0  0  0
 35 74  1  0  0  0  0
 36 37  2  0  0  0  0
 36 42  1  0  0  0  0
 37 38  1  0  0  0  0
 37 75  1  0  0  0  0
 38 39  1  0  0  0  0
 38 40  2  0  0  0  0
 40 41  1  0  0  0  0
 40 76  1  0  0  0  0
 41 42  2  0  0  0  0
 41 43  1  0  0  0  0
 42 77  1  0  0  0  0
 44 45  1  0  0  0  0
 44 78  1  0  0  0  0
 44 79  1  0  0  0  0
 45 46  1  0  0  0  0
 45 80  1  0  0  0  0
 45 81  1  0  0  0  0
 46 82  1  0  0  0  0
 46 83  1  0  0  0  0
 46 84  1  0  0  0  0
M  END
$$$$
