MR3
 OpenBabel04121316153D

 13 13  0  0  0  0  0  0  0  0999 V2000
    1.0412   -0.0534   -0.0428 C   0  0  0  0  0  0  0  0  0  0  0  0
    2.4856   -0.0643   -0.0421 N   0  0  0  0  0  0  0  0  0  0  0  0
    3.2959    1.0388   -0.0399 C   0  0  0  0  0  0  0  0  0  0  0  0
    4.6035    0.6019   -0.0302 C   0  0  0  0  0  0  0  0  0  0  0  0
    4.5765   -0.8133   -0.0305 C   0  0  0  0  0  0  0  0  0  0  0  0
    3.2540   -1.1984   -0.0405 C   0  0  0  0  0  0  0  0  0  0  0  0
    0.6803    0.9780   -0.0424 H   0  0  0  0  0  0  0  0  0  0  0  0
    0.6941   -0.5707    0.8554 H   0  0  0  0  0  0  0  0  0  0  0  0
    0.6942   -0.5707   -0.9409 H   0  0  0  0  0  0  0  0  0  0  0  0
    2.8881    2.0411   -0.0438 H   0  0  0  0  0  0  0  0  0  0  0  0
    5.4817    1.2342   -0.0240 H   0  0  0  0  0  0  0  0  0  0  0  0
    5.4288   -1.4801   -0.0244 H   0  0  0  0  0  0  0  0  0  0  0  0
    2.8029   -2.1820   -0.0449 H   0  0  0  0  0  0  0  0  0  0  0  0
  1  2  1  0  0  0  0
  1  7  1  0  0  0  0
  1  8  1  0  0  0  0
  1  9  1  0  0  0  0
  2  3  1  0  0  0  0
  2  6  1  0  0  0  0
  3  4  2  0  0  0  0
  3 10  1  0  0  0  0
  4  5  1  0  0  0  0
  4 11  1  0  0  0  0
  5  6  2  0  0  0  0
  5 12  1  0  0  0  0
  6 13  1  0  0  0  0
M  END
$$$$
