MRC
 OpenBabel04121316153D

 79 80  0  0  1  0  0  0  0  0999 V2000
   26.6579   13.7571   -0.3052 O   0  0  0  0  0  0  0  0  0  0  0  0
   25.6795   13.0289   -0.8847 C   0  0  0  0  0  0  0  0  0  0  0  0
   25.8938   12.3461   -1.8749 O   0  0  0  0  0  0  0  0  0  0  0  0
   24.3377   13.1448   -0.1963 C   0  0  0  0  0  0  0  0  0  0  0  0
   23.2913   12.3822   -1.0055 C   0  0  0  0  0  0  0  0  0  0  0  0
   21.9141   12.4512   -0.3700 C   0  0  0  0  0  0  0  0  0  0  0  0
   20.9144   11.6808   -1.2199 C   0  0  0  0  0  0  0  0  0  0  0  0
   19.5379   11.7452   -0.5881 C   0  0  0  0  0  0  0  0  0  0  0  0
   18.5486   10.9666   -1.4333 C   0  0  0  0  0  0  0  0  0  0  0  0
   17.1767   11.0465   -0.8007 C   0  0  0  0  0  0  0  0  0  0  0  0
   16.1828   10.2931   -1.6436 C   0  0  0  0  0  0  0  0  0  0  0  0
   14.8820   10.3462   -1.0780 O   0  0  0  0  0  0  0  0  0  0  0  0
   14.0205    9.6770   -1.8805 C   0  0  0  0  0  0  0  0  0  0  0  0
   14.3433    9.0952   -2.9129 O   0  0  0  0  0  0  0  0  0  0  0  0
   12.6708    9.7500   -1.3299 C   0  0  0  0  0  0  0  0  0  0  0  0
   11.5436    9.1408   -1.7306 C   0  0  0  0  0  0  0  0  0  0  0  0
   10.2184    9.2655   -0.9637 C   0  0  0  0  0  0  0  0  0  0  0  0
   10.1999   10.1793    0.2939 C   0  0  2  0  0  0  0  0  0  0  0  0
    9.1523   10.3580    0.5742 H   0  0  0  0  0  0  0  0  0  0  0  0
   10.7058   11.4370   -0.1878 O   0  0  0  0  0  0  0  0  0  0  0  0
   11.0759   12.4228    0.7456 C   0  0  0  0  0  0  0  0  0  0  0  0
   11.9796   11.9225    1.8854 C   0  0  1  0  0  0  0  0  0  0  0  0
   12.0347   12.7414    2.6129 H   0  0  0  0  0  0  0  0  0  0  0  0
   11.2244   10.7584    2.5394 C   0  0  1  0  0  0  0  0  0  0  0  0
   10.2618   11.1396    2.9085 H   0  0  0  0  0  0  0  0  0  0  0  0
   10.9124    9.6107    1.5602 C   0  0  2  0  0  0  0  0  0  0  0  0
   10.2545    8.8807    2.0461 H   0  0  0  0  0  0  0  0  0  0  0  0
   12.1013    8.8661    1.2893 O   0  0  0  0  0  0  0  0  0  0  0  0
   11.9438   10.2720    3.6695 O   0  0  0  0  0  0  0  0  0  0  0  0
   13.4828   11.6353    1.5272 C   0  0  0  0  0  0  0  0  0  0  0  0
   13.9944   12.7264    0.6337 C   0  0  2  0  0  0  0  0  0  0  0  0
   13.4896   12.7154   -0.3223 H   0  0  0  0  0  0  0  0  0  0  0  0
   15.3635   13.0550    0.4436 O   0  0  0  0  0  0  0  0  0  0  0  0
   14.6623   13.9529    1.2711 C   0  0  1  0  0  0  0  0  0  0  0  0
   15.0111   13.9262    2.2945 H   0  0  0  0  0  0  0  0  0  0  0  0
   14.0269   15.2639    0.8793 C   0  0  2  0  0  0  0  0  0  0  0  0
   13.2279   15.0663    0.1516 H   0  0  0  0  0  0  0  0  0  0  0  0
   14.8342   16.4459    0.2974 C   0  0  1  0  0  0  0  0  0  0  0  0
   14.1203   17.2746    0.1566 H   0  0  0  0  0  0  0  0  0  0  0  0
   15.8339   16.9357    1.1844 O   0  0  0  0  0  0  0  0  0  0  0  0
   15.4478   16.2127   -1.0704 C   0  0  0  0  0  0  0  0  0  0  0  0
   13.3857   15.7384    2.1983 C   0  0  0  0  0  0  0  0  0  0  0  0
   11.5125    8.3370   -2.9847 C   0  0  0  0  0  0  0  0  0  0  0  0
   26.3617   14.3678    0.3933 H   0  0  0  0  0  0  0  0  0  0  0  0
   24.0512   14.1995   -0.1201 H   0  0  0  0  0  0  0  0  0  0  0  0
   24.4084   12.7189    0.8111 H   0  0  0  0  0  0  0  0  0  0  0  0
   23.5919   11.3306   -1.1023 H   0  0  0  0  0  0  0  0  0  0  0  0
   23.2443   12.7898   -2.0236 H   0  0  0  0  0  0  0  0  0  0  0  0
   21.5943   13.4958   -0.2786 H   0  0  0  0  0  0  0  0  0  0  0  0
   21.9442   12.0259    0.6401 H   0  0  0  0  0  0  0  0  0  0  0  0
   21.2269   10.6335   -1.3162 H   0  0  0  0  0  0  0  0  0  0  0  0
   20.8769   12.1008   -2.2331 H   0  0  0  0  0  0  0  0  0  0  0  0
   19.2155   12.7905   -0.5000 H   0  0  0  0  0  0  0  0  0  0  0  0
   19.5677   11.3285    0.4258 H   0  0  0  0  0  0  0  0  0  0  0  0
   18.8608    9.9207   -1.5283 H   0  0  0  0  0  0  0  0  0  0  0  0
   18.5093   11.3906   -2.4454 H   0  0  0  0  0  0  0  0  0  0  0  0
   16.8987   12.0979   -0.7611 H   0  0  0  0  0  0  0  0  0  0  0  0
   17.1789   10.6637    0.2267 H   0  0  0  0  0  0  0  0  0  0  0  0
   16.4943    9.2449   -1.7154 H   0  0  0  0  0  0  0  0  0  0  0  0
   16.1481   10.7453   -2.6421 H   0  0  0  0  0  0  0  0  0  0  0  0
   12.6140   10.3805   -0.4750 H   0  0  0  0  0  0  0  0  0  0  0  0
    9.8427    8.2692   -0.7005 H   0  0  0  0  0  0  0  0  0  0  0  0
    9.4976    9.6982   -1.6741 H   0  0  0  0  0  0  0  0  0  0  0  0
   10.1587   12.8662    1.1417 H   0  0  0  0  0  0  0  0  0  0  0  0
   11.5559   13.2209    0.1742 H   0  0  0  0  0  0  0  0  0  0  0  0
   12.5923    8.8008    2.1321 H   0  0  0  0  0  0  0  0  0  0  0  0
   12.0662   11.0276    4.2740 H   0  0  0  0  0  0  0  0  0  0  0  0
   13.6045   10.6764    1.0363 H   0  0  0  0  0  0  0  0  0  0  0  0
   14.0724   11.4933    2.4414 H   0  0  0  0  0  0  0  0  0  0  0  0
   15.3898   17.3094    1.9644 H   0  0  0  0  0  0  0  0  0  0  0  0
   14.6972   15.8683   -1.7883 H   0  0  0  0  0  0  0  0  0  0  0  0
   16.2669   15.4941   -1.0150 H   0  0  0  0  0  0  0  0  0  0  0  0
   15.8717   17.1500   -1.4579 H   0  0  0  0  0  0  0  0  0  0  0  0
   13.0058   16.7586    2.1425 H   0  0  0  0  0  0  0  0  0  0  0  0
   14.1237   15.7052    3.0127 H   0  0  0  0  0  0  0  0  0  0  0  0
   12.5733   15.0619    2.4755 H   0  0  0  0  0  0  0  0  0  0  0  0
   12.4779    8.2659   -3.4785 H   0  0  0  0  0  0  0  0  0  0  0  0
   10.8485    8.8191   -3.7048 H   0  0  0  0  0  0  0  0  0  0  0  0
   11.2012    7.3154   -2.7721 H   0  0  0  0  0  0  0  0  0  0  0  0
  1  2  1  0  0  0  0
  1 44  1  0  0  0  0
  2  3  2  0  0  0  0
  2  4  1  0  0  0  0
  4  5  1  0  0  0  0
  4 45  1  0  0  0  0
  4 46  1  0  0  0  0
  5  6  1  0  0  0  0
  5 47  1  0  0  0  0
  5 48  1  0  0  0  0
  6  7  1  0  0  0  0
  6 49  1  0  0  0  0
  6 50  1  0  0  0  0
  7  8  1  0  0  0  0
  7 51  1  0  0  0  0
  7 52  1  0  0  0  0
  8  9  1  0  0  0  0
  8 53  1  0  0  0  0
  8 54  1  0  0  0  0
  9 10  1  0  0  0  0
  9 55  1  0  0  0  0
  9 56  1  0  0  0  0
 10 11  1  0  0  0  0
 10 57  1  0  0  0  0
 10 58  1  0  0  0  0
 11 12  1  0  0  0  0
 11 59  1  0  0  0  0
 11 60  1  0  0  0  0
 12 13  1  0  0  0  0
 13 14  2  0  0  0  0
 13 15  1  0  0  0  0
 15 16  2  0  0  0  0
 15 61  1  0  0  0  0
 16 17  1  0  0  0  0
 16 43  1  0  0  0  0
 17 62  1  0  0  0  0
 17 63  1  0  0  0  0
 18 20  1  0  0  0  0
 18 26  1  0  0  0  0
 18 19  1  1  0  0  0
 18 17  1  0  0  0  0
 20 21  1  0  0  0  0
 21 22  1  0  0  0  0
 21 64  1  0  0  0  0
 21 65  1  0  0  0  0
 22 23  1  1  0  0  0
 22 24  1  0  0  0  0
 22 30  1  0  0  0  0
 24 25  1  1  0  0  0
 24 26  1  0  0  0  0
 24 29  1  0  0  0  0
 26 27  1  1  0  0  0
 26 28  1  0  0  0  0
 28 66  1  0  0  0  0
 29 67  1  0  0  0  0
 30 68  1  0  0  0  0
 30 69  1  0  0  0  0
 31 33  1  0  0  0  0
 31 34  1  0  0  0  0
 31 32  1  6  0  0  0
 31 30  1  0  0  0  0
 33 34  1  0  0  0  0
 34 36  1  0  0  0  0
 34 35  1  1  0  0  0
 36 38  1  0  0  0  0
 36 42  1  0  0  0  0
 36 37  1  6  0  0  0
 38 39  1  6  0  0  0
 38 40  1  0  0  0  0
 38 41  1  0  0  0  0
 40 70  1  0  0  0  0
 41 71  1  0  0  0  0
 41 72  1  0  0  0  0
 41 73  1  0  0  0  0
 42 74  1  0  0  0  0
 42 75  1  0  0  0  0
 42 76  1  0  0  0  0
 43 77  1  0  0  0  0
 43 78  1  0  0  0  0
 43 79  1  0  0  0  0
M  END
$$$$
