MRS
 OpenBabel04121316153D

128130  0  0  1  0  0  0  0  0999 V2000
    0.9357   -0.0735    0.0303 C   0  0  0  0  0  0  0  0  0  0  0  0
    2.4512   -0.0788    0.0264 C   0  0  0  0  0  0  0  0  0  0  0  0
    2.9729   -1.2350   -0.8134 C   0  0  0  0  0  0  0  0  0  0  0  0
    4.4918   -1.2425   -0.8189 C   0  0  0  0  0  0  0  0  0  0  0  0
    5.0024   -2.3993   -1.6593 C   0  0  0  0  0  0  0  0  0  0  0  0
    6.5183   -2.4039   -1.6627 C   0  0  0  0  0  0  0  0  0  0  0  0
    7.0280   -3.5594   -2.5009 C   0  0  0  0  0  0  0  0  0  0  0  0
    8.5418   -3.5536   -2.4902 C   0  0  0  0  0  0  0  0  0  0  0  0
    9.0705   -4.7068   -3.3082 C   0  0  0  0  0  0  0  0  0  0  0  0
   10.5911   -4.6888   -3.2556 C   0  0  0  0  0  0  0  0  0  0  0  0
   11.0959   -5.8293   -4.0961 C   0  0  0  0  0  0  0  0  0  0  0  0
   12.6091   -5.8767   -4.2015 C   0  0  0  0  0  0  0  0  0  0  0  0
   13.1074   -7.0386   -5.0784 C   0  0  1  0  0  0  0  0  0  0  0  0
   12.7481   -7.9907   -4.6645 H   0  0  0  0  0  0  0  0  0  0  0  0
   12.6495   -6.9625   -6.5344 C   0  0  0  0  0  0  0  0  0  0  0  0
   13.3974   -6.7234   -7.4909 O   0  0  0  0  0  0  0  0  0  0  0  0
   10.9637   -7.3719   -6.7955 S   0  0  0  0  0  0  0  0  0  0  0  0
   10.7223   -6.7657   -8.4501 C   0  0  0  0  0  0  0  0  0  0  0  0
    9.2430   -6.6781   -8.7233 C   0  0  0  0  0  0  0  0  0  0  0  0
    9.1489   -6.4843  -10.1370 N   0  0  0  0  0  0  0  0  0  0  0  0
    7.9397   -6.3184  -10.7319 C   0  0  0  0  0  0  0  0  0  0  0  0
    6.9204   -6.3592  -10.1019 O   0  0  0  0  0  0  0  0  0  0  0  0
    8.1760   -6.0643  -12.2758 C   0  0  0  0  0  0  0  0  0  0  0  0
    6.8491   -5.6088  -12.7245 C   0  0  0  0  0  0  0  0  0  0  0  0
    6.1128   -5.4852  -14.1605 N   0  0  0  0  0  0  0  0  0  0  0  0
    4.6266   -5.5776  -14.5078 C   0  0  0  0  0  0  0  0  0  0  0  0
    3.5934   -5.5507  -13.7987 O   0  0  0  0  0  0  0  0  0  0  0  0
    4.2593   -5.7293  -15.9755 C   0  0  1  0  0  0  0  0  0  0  0  0
    4.6061   -4.8091  -16.4343 H   0  0  0  0  0  0  0  0  0  0  0  0
    4.7847   -7.0025  -16.6175 C   0  0  0  0  0  0  0  0  0  0  0  0
    4.0659   -8.2388  -16.0906 C   0  0  0  0  0  0  0  0  0  0  0  0
    4.3142   -8.5268  -14.6668 O   0  0  0  0  0  0  0  0  0  0  0  0
    3.5982  -10.0043  -14.1217 P   0  0  1  0  0  0  0  0  0  0  0  0
    4.3706  -10.3831  -15.3134 O   0  0  0  0  0  0  0  0  0  0  0  0
    3.6307   -9.4195  -12.4939 O   0  0  0  0  0  0  0  0  0  0  0  0
    4.3165   -7.8315  -12.4652 P   0  0  1  0  0  0  0  0  0  0  0  0
    4.1562   -7.7723  -10.9452 O   0  0  0  0  0  0  0  0  0  0  0  0
    5.9054   -8.3996  -12.7575 O   0  0  0  0  0  0  0  0  0  0  0  0
    6.2142   -9.7406  -13.0119 C   0  0  0  0  0  0  0  0  0  0  0  0
    7.1681  -10.2895  -14.0607 C   0  0  1  0  0  0  0  0  0  0  0  0
    6.9010  -10.0238  -15.1001 H   0  0  0  0  0  0  0  0  0  0  0  0
    8.4221   -9.7163  -13.7988 O   0  0  0  0  0  0  0  0  0  0  0  0
    9.3527  -10.7248  -14.1291 C   0  0  2  0  0  0  0  0  0  0  0  0
    9.6425  -10.5829  -15.1740 H   0  0  0  0  0  0  0  0  0  0  0  0
    8.6982  -12.0937  -13.9160 C   0  0  1  0  0  0  0  0  0  0  0  0
    8.8652  -12.4799  -12.9016 H   0  0  0  0  0  0  0  0  0  0  0  0
    7.2312  -11.8402  -13.9658 C   0  0  2  0  0  0  0  0  0  0  0  0
    6.8839  -12.1709  -12.9742 H   0  0  0  0  0  0  0  0  0  0  0  0
    6.5222  -12.6381  -14.9700 O   0  0  0  0  0  0  0  0  0  0  0  0
    4.8106  -12.4107  -15.0771 P   0  0  0  0  0  0  0  0  0  0  0  0
    4.9404  -12.0441  -13.6315 O   0  0  0  0  0  0  0  0  0  0  0  0
    5.1764  -12.0347  -16.5975 O   0  0  0  0  0  0  0  0  0  0  0  0
    3.0989  -12.1833  -15.1842 O   0  0  0  0  0  0  0  0  0  0  0  0
    9.1389  -13.0478  -14.8684 O   0  0  0  0  0  0  0  0  0  0  0  0
   10.5029  -10.4782  -13.3105 N   0  0  0  0  0  0  0  0  0  0  0  0
   11.0120   -9.2459  -13.0008 C   0  0  0  0  0  0  0  0  0  0  0  0
   12.0968   -9.3459  -12.2653 N   0  0  0  0  0  0  0  0  0  0  0  0
   12.2704  -10.7067  -12.0873 C   0  0  0  0  0  0  0  0  0  0  0  0
   11.2881  -11.4247  -12.7321 C   0  0  0  0  0  0  0  0  0  0  0  0
   11.1488  -12.7594  -12.7889 N   0  0  0  0  0  0  0  0  0  0  0  0
   12.0937  -13.3791  -12.0675 C   0  0  0  0  0  0  0  0  0  0  0  0
   13.1213  -12.8146  -11.4069 N   0  0  0  0  0  0  0  0  0  0  0  0
   13.2362  -11.4649  -11.4199 C   0  0  0  0  0  0  0  0  0  0  0  0
   14.3041  -10.8806  -10.7894 N   0  0  0  0  0  0  0  0  0  0  0  0
    5.0024   -6.2435  -12.4366 O   0  0  0  0  0  0  0  0  0  0  0  0
    2.8823  -11.4819  -13.5765 O   0  0  0  0  0  0  0  0  0  0  0  0
    4.4971   -6.9065  -18.1248 C   0  0  0  0  0  0  0  0  0  0  0  0
    6.2883   -7.2044  -16.4339 C   0  0  0  0  0  0  0  0  0  0  0  0
    2.8148   -5.7544  -16.1779 O   0  0  0  0  0  0  0  0  0  0  0  0
   14.6349   -7.0571   -5.0317 C   0  0  0  0  0  0  0  0  0  0  0  0
    0.5615    0.7573    0.6337 H   0  0  0  0  0  0  0  0  0  0  0  0
    0.5475   -1.0079    0.4480 H   0  0  0  0  0  0  0  0  0  0  0  0
    0.5475    0.0348   -0.9875 H   0  0  0  0  0  0  0  0  0  0  0  0
    2.8227   -0.1667    1.0541 H   0  0  0  0  0  0  0  0  0  0  0  0
    2.8227    0.8713   -0.3750 H   0  0  0  0  0  0  0  0  0  0  0  0
    2.6005   -1.1487   -1.8418 H   0  0  0  0  0  0  0  0  0  0  0  0
    2.6006   -2.1862   -0.4133 H   0  0  0  0  0  0  0  0  0  0  0  0
    4.8701   -1.3334    0.2067 H   0  0  0  0  0  0  0  0  0  0  0  0
    4.8700   -0.2952   -1.2225 H   0  0  0  0  0  0  0  0  0  0  0  0
    4.6285   -2.3111   -2.6868 H   0  0  0  0  0  0  0  0  0  0  0  0
    4.6286   -3.3491   -1.2575 H   0  0  0  0  0  0  0  0  0  0  0  0
    6.8958   -2.4937   -0.6365 H   0  0  0  0  0  0  0  0  0  0  0  0
    6.8963   -1.4561   -2.0657 H   0  0  0  0  0  0  0  0  0  0  0  0
    6.6579   -3.4718   -3.5299 H   0  0  0  0  0  0  0  0  0  0  0  0
    6.6543   -4.5096   -2.1000 H   0  0  0  0  0  0  0  0  0  0  0  0
    8.9122   -3.6368   -1.4618 H   0  0  0  0  0  0  0  0  0  0  0  0
    8.9175   -2.6079   -2.8998 H   0  0  0  0  0  0  0  0  0  0  0  0
    8.7169   -4.6218   -4.3458 H   0  0  0  0  0  0  0  0  0  0  0  0
    8.6879   -5.6605   -2.9226 H   0  0  0  0  0  0  0  0  0  0  0  0
   10.9532   -4.7746   -2.2275 H   0  0  0  0  0  0  0  0  0  0  0  0
   10.9604   -3.7447   -3.6746 H   0  0  0  0  0  0  0  0  0  0  0  0
   10.6704   -5.6217   -5.0750 H   0  0  0  0  0  0  0  0  0  0  0  0
   10.7049   -6.7885   -3.7326 H   0  0  0  0  0  0  0  0  0  0  0  0
   13.0223   -5.9813   -3.1892 H   0  0  0  0  0  0  0  0  0  0  0  0
   12.9740   -4.9227   -4.5997 H   0  0  0  0  0  0  0  0  0  0  0  0
   11.1648   -7.5032   -9.1267 H   0  0  0  0  0  0  0  0  0  0  0  0
   11.1762   -5.7909   -8.6857 H   0  0  0  0  0  0  0  0  0  0  0  0
    8.7503   -5.8334   -8.2179 H   0  0  0  0  0  0  0  0  0  0  0  0
    8.6911   -7.5883   -8.4522 H   0  0  0  0  0  0  0  0  0  0  0  0
    9.9585   -6.4884  -10.7298 H   0  0  0  0  0  0  0  0  0  0  0  0
    8.4584   -7.0296  -12.7293 H   0  0  0  0  0  0  0  0  0  0  0  0
    8.8482   -5.2511  -12.4691 H   0  0  0  0  0  0  0  0  0  0  0  0
    6.4367   -4.8560  -12.0300 H   0  0  0  0  0  0  0  0  0  0  0  0
    6.6181   -6.6204  -12.3614 H   0  0  0  0  0  0  0  0  0  0  0  0
    6.7681   -5.6737  -14.8810 H   0  0  0  0  0  0  0  0  0  0  0  0
    4.4840   -9.0285  -16.7349 H   0  0  0  0  0  0  0  0  0  0  0  0
    2.9830   -8.2600  -16.2588 H   0  0  0  0  0  0  0  0  0  0  0  0
    5.5193   -9.9096  -13.7385 H   0  0  0  0  0  0  0  0  0  0  0  0
    5.8993  -10.3785  -12.1906 H   0  0  0  0  0  0  0  0  0  0  0  0
    5.7118  -12.7606  -16.9739 H   0  0  0  0  0  0  0  0  0  0  0  0
    2.7213  -11.3373  -15.4648 H   0  0  0  0  0  0  0  0  0  0  0  0
   10.0799  -13.1911  -14.6538 H   0  0  0  0  0  0  0  0  0  0  0  0
   10.5529   -8.3247  -13.3420 H   0  0  0  0  0  0  0  0  0  0  0  0
   12.0209  -14.4620  -12.0218 H   0  0  0  0  0  0  0  0  0  0  0  0
   14.9604  -11.4706  -10.3088 H   0  0  0  0  0  0  0  0  0  0  0  0
   14.3657   -9.8719  -10.7868 H   0  0  0  0  0  0  0  0  0  0  0  0
    4.3091   -5.7111  -11.9971 H   0  0  0  0  0  0  0  0  0  0  0  0
    2.9017  -12.3794  -13.9394 H   0  0  0  0  0  0  0  0  0  0  0  0
    3.4210   -6.9015  -18.3335 H   0  0  0  0  0  0  0  0  0  0  0  0
    4.9324   -7.7541  -18.6625 H   0  0  0  0  0  0  0  0  0  0  0  0
    4.9294   -5.9843  -18.5230 H   0  0  0  0  0  0  0  0  0  0  0  0
    6.5294   -7.5101  -15.4101 H   0  0  0  0  0  0  0  0  0  0  0  0
    6.8135   -6.2799  -16.6916 H   0  0  0  0  0  0  0  0  0  0  0  0
    6.6880   -8.0045  -17.0583 H   0  0  0  0  0  0  0  0  0  0  0  0
    2.4081   -5.1683  -15.5094 H   0  0  0  0  0  0  0  0  0  0  0  0
   14.9971   -7.1677   -4.0050 H   0  0  0  0  0  0  0  0  0  0  0  0
   15.0463   -6.1261   -5.4385 H   0  0  0  0  0  0  0  0  0  0  0  0
   15.0306   -7.8864   -5.6261 H   0  0  0  0  0  0  0  0  0  0  0  0
  1  2  1  0  0  0  0
  1 71  1  0  0  0  0
  1 72  1  0  0  0  0
  1 73  1  0  0  0  0
  2  3  1  0  0  0  0
  2 74  1  0  0  0  0
  2 75  1  0  0  0  0
  3  4  1  0  0  0  0
  3 76  1  0  0  0  0
  3 77  1  0  0  0  0
  4  5  1  0  0  0  0
  4 78  1  0  0  0  0
  4 79  1  0  0  0  0
  5  6  1  0  0  0  0
  5 80  1  0  0  0  0
  5 81  1  0  0  0  0
  6  7  1  0  0  0  0
  6 82  1  0  0  0  0
  6 83  1  0  0  0  0
  7  8  1  0  0  0  0
  7 84  1  0  0  0  0
  7 85  1  0  0  0  0
  8  9  1  0  0  0  0
  8 86  1  0  0  0  0
  8 87  1  0  0  0  0
  9 10  1  0  0  0  0
  9 88  1  0  0  0  0
  9 89  1  0  0  0  0
 10 11  1  0  0  0  0
 10 90  1  0  0  0  0
 10 91  1  0  0  0  0
 11 12  1  0  0  0  0
 11 92  1  0  0  0  0
 11 93  1  0  0  0  0
 12 13  1  0  0  0  0
 12 94  1  0  0  0  0
 12 95  1  0  0  0  0
 13 14  1  1  0  0  0
 13 15  1  0  0  0  0
 13 70  1  0  0  0  0
 15 16  2  0  0  0  0
 15 17  1  0  0  0  0
 17 18  1  0  0  0  0
 18 19  1  0  0  0  0
 18 96  1  0  0  0  0
 18 97  1  0  0  0  0
 19 20  1  0  0  0  0
 19 98  1  0  0  0  0
 19 99  1  0  0  0  0
 20 21  1  0  0  0  0
 20100  1  0  0  0  0
 21 22  2  0  0  0  0
 21 23  1  0  0  0  0
 23 24  1  0  0  0  0
 23101  1  0  0  0  0
 23102  1  0  0  0  0
 24 25  1  0  0  0  0
 24103  1  0  0  0  0
 24104  1  0  0  0  0
 25 26  1  0  0  0  0
 25105  1  0  0  0  0
 26 27  2  0  0  0  0
 26 28  1  0  0  0  0
 28 29  1  6  0  0  0
 28 30  1  0  0  0  0
 28 69  1  0  0  0  0
 30 31  1  0  0  0  0
 30 67  1  0  0  0  0
 30 68  1  0  0  0  0
 31 32  1  0  0  0  0
 31106  1  0  0  0  0
 31107  1  0  0  0  0
 33 32  1  6  0  0  0
 33 34  2  0  0  0  0
 33 35  1  0  0  0  0
 33 66  1  0  0  0  0
 36 35  1  6  0  0  0
 36 37  2  0  0  0  0
 36 38  1  0  0  0  0
 36 65  1  0  0  0  0
 38 39  1  0  0  0  0
 39 40  1  0  0  0  0
 39108  1  0  0  0  0
 39109  1  0  0  0  0
 40 41  1  6  0  0  0
 40 42  1  0  0  0  0
 40 47  1  0  0  0  0
 42 43  1  0  0  0  0
 43 45  1  0  0  0  0
 43 55  1  0  0  0  0
 43 44  1  6  0  0  0
 45 46  1  1  0  0  0
 45 47  1  0  0  0  0
 45 54  1  0  0  0  0
 47 48  1  1  0  0  0
 47 49  1  0  0  0  0
 49 50  1  0  0  0  0
 50 51  2  0  0  0  0
 50 52  1  0  0  0  0
 50 53  1  0  0  0  0
 52110  1  0  0  0  0
 53111  1  0  0  0  0
 54112  1  0  0  0  0
 55 56  1  0  0  0  0
 55 59  1  0  0  0  0
 56 57  2  0  0  0  0
 56113  1  0  0  0  0
 57 58  1  0  0  0  0
 58 59  2  0  0  0  0
 58 63  1  0  0  0  0
 59 60  1  0  0  0  0
 60 61  2  0  0  0  0
 61 62  1  0  0  0  0
 61114  1  0  0  0  0
 62 63  2  0  0  0  0
 63 64  1  0  0  0  0
 64115  1  0  0  0  0
 64116  1  0  0  0  0
 65117  1  0  0  0  0
 66118  1  0  0  0  0
 67119  1  0  0  0  0
 67120  1  0  0  0  0
 67121  1  0  0  0  0
 68122  1  0  0  0  0
 68123  1  0  0  0  0
 68124  1  0  0  0  0
 69125  1  0  0  0  0
 70126  1  0  0  0  0
 70127  1  0  0  0  0
 70128  1  0  0  0  0
M  END
$$$$
