MS7
 OpenBabel04121316153D

 41 42  0  0  1  0  0  0  0  0999 V2000
    5.0055    2.2745    2.9223 C   0  0  0  0  0  0  0  0  0  0  0  0
    4.5459    2.1414    1.5663 N   0  0  0  0  0  0  0  0  0  0  0  0
    5.1343    1.1858    0.7650 C   0  0  0  0  0  0  0  0  0  0  0  0
    6.0173    0.4504    1.1826 O   0  0  0  0  0  0  0  0  0  0  0  0
    4.5652    1.1108   -0.6750 C   0  0  2  0  0  0  0  0  0  0  0  0
    3.4694    1.1532   -0.6397 H   0  0  0  0  0  0  0  0  0  0  0  0
    5.0238   -0.2051   -1.3259 C   0  0  0  0  0  0  0  0  0  0  0  0
    4.5691   -1.4434   -0.5902 C   0  0  0  0  0  0  0  0  0  0  0  0
    5.2425   -2.6472   -0.8196 C   0  0  0  0  0  0  0  0  0  0  0  0
    4.8018   -3.8104   -0.2038 C   0  0  0  0  0  0  0  0  0  0  0  0
    3.7675   -3.7525    0.7280 C   0  0  0  0  0  0  0  0  0  0  0  0
    3.1851   -2.5411    1.0610 C   0  0  0  0  0  0  0  0  0  0  0  0
    3.5250   -1.4115    0.3454 C   0  0  0  0  0  0  0  0  0  0  0  0
    3.3890   -4.9446    1.2456 O   0  0  0  0  0  0  0  0  0  0  0  0
    2.3094   -4.9199    2.1774 C   0  0  0  0  0  0  0  0  0  0  0  0
    2.0015   -6.3416    2.5437 C   0  0  0  0  0  0  0  0  0  0  0  0
    2.9370   -7.3539    2.2851 C   0  0  0  0  0  0  0  0  0  0  0  0
    2.6001   -8.6853    2.4643 C   0  0  0  0  0  0  0  0  0  0  0  0
    1.3751   -9.0088    3.0360 C   0  0  0  0  0  0  0  0  0  0  0  0
    0.4929   -8.0011    3.4293 C   0  0  0  0  0  0  0  0  0  0  0  0
    0.7809   -6.6698    3.1400 C   0  0  0  0  0  0  0  0  0  0  0  0
    5.0193    2.2863   -1.4440 N   0  0  0  0  0  0  0  0  0  0  0  0
    4.5176    3.1294    3.3909 H   0  0  0  0  0  0  0  0  0  0  0  0
    6.0919    2.4066    2.9267 H   0  0  0  0  0  0  0  0  0  0  0  0
    4.7614    1.3550    3.4641 H   0  0  0  0  0  0  0  0  0  0  0  0
    3.9529    2.8422    1.1392 H   0  0  0  0  0  0  0  0  0  0  0  0
    6.1214   -0.2164   -1.3745 H   0  0  0  0  0  0  0  0  0  0  0  0
    4.6511   -0.2724   -2.3559 H   0  0  0  0  0  0  0  0  0  0  0  0
    6.1144   -2.6818   -1.4678 H   0  0  0  0  0  0  0  0  0  0  0  0
    5.2704   -4.7620   -0.4393 H   0  0  0  0  0  0  0  0  0  0  0  0
    2.4583   -2.4380    1.8578 H   0  0  0  0  0  0  0  0  0  0  0  0
    2.9780   -0.5068    0.5872 H   0  0  0  0  0  0  0  0  0  0  0  0
    1.4198   -4.4701    1.7136 H   0  0  0  0  0  0  0  0  0  0  0  0
    2.6013   -4.3709    3.0796 H   0  0  0  0  0  0  0  0  0  0  0  0
    3.9255   -7.1058    1.9020 H   0  0  0  0  0  0  0  0  0  0  0  0
    3.2969   -9.4569    2.1534 H   0  0  0  0  0  0  0  0  0  0  0  0
    1.1125  -10.0513    3.1807 H   0  0  0  0  0  0  0  0  0  0  0  0
   -0.4271   -8.2565    3.9459 H   0  0  0  0  0  0  0  0  0  0  0  0
    0.0500   -5.8972    3.3691 H   0  0  0  0  0  0  0  0  0  0  0  0
    4.7155    2.1741   -2.4119 H   0  0  0  0  0  0  0  0  0  0  0  0
    6.0405    2.2564   -1.4762 H   0  0  0  0  0  0  0  0  0  0  0  0
  1  2  1  0  0  0  0
  1 23  1  0  0  0  0
  1 24  1  0  0  0  0
  1 25  1  0  0  0  0
  2  3  1  0  0  0  0
  2 26  1  0  0  0  0
  3  4  2  0  0  0  0
  5  7  1  0  0  0  0
  5 22  1  0  0  0  0
  5  6  1  1  0  0  0
  5  3  1  0  0  0  0
  7  8  1  0  0  0  0
  7 27  1  0  0  0  0
  7 28  1  0  0  0  0
  8  9  2  0  0  0  0
  8 13  1  0  0  0  0
  9 10  1  0  0  0  0
  9 29  1  0  0  0  0
 10 11  2  0  0  0  0
 10 30  1  0  0  0  0
 11 12  1  0  0  0  0
 11 14  1  0  0  0  0
 12 13  2  0  0  0  0
 12 31  1  0  0  0  0
 13 32  1  0  0  0  0
 14 15  1  0  0  0  0
 15 16  1  0  0  0  0
 15 33  1  0  0  0  0
 15 34  1  0  0  0  0
 16 17  2  0  0  0  0
 16 21  1  0  0  0  0
 17 18  1  0  0  0  0
 17 35  1  0  0  0  0
 18 19  2  0  0  0  0
 18 36  1  0  0  0  0
 19 20  1  0  0  0  0
 19 37  1  0  0  0  0
 20 21  2  0  0  0  0
 20 38  1  0  0  0  0
 21 39  1  0  0  0  0
 22 40  1  0  0  0  0
 22 41  1  0  0  0  0
M  END
$$$$
