MSN
 OpenBabel04121316153D

 24 24  0  0  1  0  0  0  0  0999 V2000
    0.9873    0.0544    0.0457 C   0  0  0  0  0  0  0  0  0  0  0  0
    2.7765   -0.1318    0.0476 S   0  0  0  0  0  0  0  0  0  0  0  0
    3.4117    1.5788   -0.2666 C   0  0  1  0  0  0  0  0  0  0  0  0
    3.7228    1.5834   -1.3193 H   0  0  0  0  0  0  0  0  0  0  0  0
    2.5326    2.8160   -0.0097 C   0  0  2  0  0  0  0  0  0  0  0  0
    1.9392    2.7136    0.9044 H   0  0  0  0  0  0  0  0  0  0  0  0
    1.6551    3.1152   -1.0960 O   0  0  0  0  0  0  0  0  0  0  0  0
    3.5604    3.9523    0.1604 C   0  0  1  0  0  0  0  0  0  0  0  0
    3.1386    4.8268    0.6675 H   0  0  0  0  0  0  0  0  0  0  0  0
    4.6827    3.3099    0.9872 C   0  0  1  0  0  0  0  0  0  0  0  0
    4.4706    3.4455    2.0547 H   0  0  0  0  0  0  0  0  0  0  0  0
    4.6306    1.7936    0.6698 C   0  0  2  0  0  0  0  0  0  0  0  0
    4.4553    1.2870    1.6287 H   0  0  0  0  0  0  0  0  0  0  0  0
    5.8816    1.2591    0.1073 N   0  0  0  0  0  0  0  0  0  0  0  0
    5.9820    3.8506    0.7537 O   0  0  0  0  0  0  0  0  0  0  0  0
    4.0442    4.3927   -1.1135 O   0  0  0  0  0  0  0  0  0  0  0  0
    0.5611   -0.9303    0.2694 H   0  0  0  0  0  0  0  0  0  0  0  0
    0.6237    0.3648   -0.9345 H   0  0  0  0  0  0  0  0  0  0  0  0
    0.6532    0.7392    0.8268 H   0  0  0  0  0  0  0  0  0  0  0  0
    2.2016    3.1428   -1.9053 H   0  0  0  0  0  0  0  0  0  0  0  0
    6.6264    1.4824    0.7707 H   0  0  0  0  0  0  0  0  0  0  0  0
    6.1237    1.8409   -0.6991 H   0  0  0  0  0  0  0  0  0  0  0  0
    5.8966    4.8215    0.7018 H   0  0  0  0  0  0  0  0  0  0  0  0
    3.3456    4.9550   -1.4987 H   0  0  0  0  0  0  0  0  0  0  0  0
  1  2  1  0  0  0  0
  1 17  1  0  0  0  0
  1 18  1  0  0  0  0
  1 19  1  0  0  0  0
  2  3  1  0  0  0  0
  3  4  1  6  0  0  0
  3  5  1  0  0  0  0
  3 12  1  0  0  0  0
  5  8  1  0  0  0  0
  5  7  1  0  0  0  0
  5  6  1  1  0  0  0
  7 20  1  0  0  0  0
  8  9  1  1  0  0  0
  8 10  1  0  0  0  0
  8 16  1  0  0  0  0
 10 11  1  1  0  0  0
 10 12  1  0  0  0  0
 10 15  1  0  0  0  0
 12 13  1  1  0  0  0
 12 14  1  0  0  0  0
 14 21  1  0  0  0  0
 14 22  1  0  0  0  0
 15 23  1  0  0  0  0
 16 24  1  0  0  0  0
M  END
$$$$
