MSQ
 OpenBabel04121316153D

 40 42  0  0  0  0  0  0  0  0999 V2000
    1.0031    0.0279   -0.0713 C   0  0  0  0  0  0  0  0  0  0  0  0
    2.4274    0.0146   -0.0626 O   0  0  0  0  0  0  0  0  0  0  0  0
    2.9813   -0.9541   -0.8576 C   0  0  0  0  0  0  0  0  0  0  0  0
    4.0294   -0.5267   -1.6632 C   0  0  0  0  0  0  0  0  0  0  0  0
    4.7869   -1.4708   -2.3922 C   0  0  0  0  0  0  0  0  0  0  0  0
    5.9403   -1.1742   -3.1184 C   0  0  0  0  0  0  0  0  0  0  0  0
    6.5847   -2.1571   -3.7819 N   0  0  0  0  0  0  0  0  0  0  0  0
    6.1544   -3.4066   -3.6880 C   0  0  0  0  0  0  0  0  0  0  0  0
    5.0688   -3.7890   -3.0332 N   0  0  0  0  0  0  0  0  0  0  0  0
    4.4067   -2.8168   -2.3995 C   0  0  0  0  0  0  0  0  0  0  0  0
    3.3066   -3.2062   -1.6633 C   0  0  0  0  0  0  0  0  0  0  0  0
    2.6464   -2.3081   -0.8222 C   0  0  0  0  0  0  0  0  0  0  0  0
    1.7262   -2.6899    0.1094 O   0  0  0  0  0  0  0  0  0  0  0  0
    1.3104   -4.0416    0.1123 C   0  0  0  0  0  0  0  0  0  0  0  0
    6.5289    0.1129   -3.0692 N   0  0  0  0  0  0  0  0  0  0  0  0
    7.6743    0.5416   -3.7696 C   0  0  0  0  0  0  0  0  0  0  0  0
    7.8929    1.8895   -4.0454 C   0  0  0  0  0  0  0  0  0  0  0  0
    8.9872    2.2639   -4.8294 C   0  0  0  0  0  0  0  0  0  0  0  0
    9.7871    1.2881   -5.4402 C   0  0  0  0  0  0  0  0  0  0  0  0
    9.5910   -0.0627   -5.1687 C   0  0  0  0  0  0  0  0  0  0  0  0
    8.6138   -0.3830   -4.2425 C   0  0  0  0  0  0  0  0  0  0  0  0
   10.5593   -1.3040   -6.0182 S   0  0  0  0  0  0  0  0  0  0  0  0
    9.8385   -2.8870   -5.4498 C   0  0  0  0  0  0  0  0  0  0  0  0
    0.6777    0.8307    0.5946 H   0  0  0  0  0  0  0  0  0  0  0  0
    0.5504   -0.8822    0.3226 H   0  0  0  0  0  0  0  0  0  0  0  0
    0.6300    0.2293   -1.0796 H   0  0  0  0  0  0  0  0  0  0  0  0
    4.2549    0.5322   -1.6900 H   0  0  0  0  0  0  0  0  0  0  0  0
    6.7601   -4.1682   -4.1678 H   0  0  0  0  0  0  0  0  0  0  0  0
    3.0222   -4.2493   -1.7205 H   0  0  0  0  0  0  0  0  0  0  0  0
    0.5412   -4.1384    0.8815 H   0  0  0  0  0  0  0  0  0  0  0  0
    2.1412   -4.7040    0.3731 H   0  0  0  0  0  0  0  0  0  0  0  0
    0.8644   -4.3096   -0.8502 H   0  0  0  0  0  0  0  0  0  0  0  0
    5.9180    0.8620   -2.7800 H   0  0  0  0  0  0  0  0  0  0  0  0
    7.2193    2.6563   -3.6714 H   0  0  0  0  0  0  0  0  0  0  0  0
    9.2027    3.3159   -4.9932 H   0  0  0  0  0  0  0  0  0  0  0  0
   10.5731    1.5926   -6.1243 H   0  0  0  0  0  0  0  0  0  0  0  0
    8.5612   -1.3984   -3.8861 H   0  0  0  0  0  0  0  0  0  0  0  0
   10.3522   -3.7097   -5.9554 H   0  0  0  0  0  0  0  0  0  0  0  0
    8.7717   -2.9680   -5.6856 H   0  0  0  0  0  0  0  0  0  0  0  0
    9.9897   -3.0171   -4.3738 H   0  0  0  0  0  0  0  0  0  0  0  0
  1  2  1  0  0  0  0
  1 24  1  0  0  0  0
  1 25  1  0  0  0  0
  1 26  1  0  0  0  0
  2  3  1  0  0  0  0
  3  4  2  0  0  0  0
  3 12  1  0  0  0  0
  4  5  1  0  0  0  0
  4 27  1  0  0  0  0
  5  6  2  0  0  0  0
  5 10  1  0  0  0  0
  6  7  1  0  0  0  0
  6 15  1  0  0  0  0
  7  8  2  0  0  0  0
  8  9  1  0  0  0  0
  8 28  1  0  0  0  0
  9 10  2  0  0  0  0
 10 11  1  0  0  0  0
 11 12  2  0  0  0  0
 11 29  1  0  0  0  0
 12 13  1  0  0  0  0
 13 14  1  0  0  0  0
 14 30  1  0  0  0  0
 14 31  1  0  0  0  0
 14 32  1  0  0  0  0
 15 16  1  0  0  0  0
 15 33  1  0  0  0  0
 16 17  2  0  0  0  0
 16 21  1  0  0  0  0
 17 18  1  0  0  0  0
 17 34  1  0  0  0  0
 18 19  2  0  0  0  0
 18 35  1  0  0  0  0
 19 20  1  0  0  0  0
 19 36  1  0  0  0  0
 20 21  2  0  0  0  0
 20 22  1  0  0  0  0
 21 37  1  0  0  0  0
 22 23  1  0  0  0  0
 23 38  1  0  0  0  0
 23 39  1  0  0  0  0
 23 40  1  0  0  0  0
M  END
$$$$
