MSR
 OpenBabel04121316153D

 20 21  0  0  0  0  0  0  0  0999 V2000
    0.8712   -0.0102    0.0700 O   0  0  0  0  0  0  0  0  0  0  0  0
    2.2292    0.0588   -0.0041 C   0  0  0  0  0  0  0  0  0  0  0  0
    2.8984    1.2780   -0.0253 C   0  0  0  0  0  0  0  0  0  0  0  0
    4.2838    1.3024   -0.2208 C   0  0  0  0  0  0  0  0  0  0  0  0
    5.0016    0.1019   -0.3205 C   0  0  0  0  0  0  0  0  0  0  0  0
    4.3193   -1.1165   -0.1730 C   0  0  0  0  0  0  0  0  0  0  0  0
    2.9298   -1.1350   -0.0653 C   0  0  0  0  0  0  0  0  0  0  0  0
    6.3941    0.0998   -0.6126 N   0  0  0  0  0  0  0  0  0  0  0  0
    7.2197    1.1860   -0.8163 C   0  0  0  0  0  0  0  0  0  0  0  0
    8.4570    0.8383   -1.0991 N   0  0  0  0  0  0  0  0  0  0  0  0
    8.4480   -0.5258   -1.0967 C   0  0  0  0  0  0  0  0  0  0  0  0
    7.1970   -1.0032   -0.8107 C   0  0  0  0  0  0  0  0  0  0  0  0
    0.5103    0.8892    0.0135 H   0  0  0  0  0  0  0  0  0  0  0  0
    2.3614    2.2141    0.0915 H   0  0  0  0  0  0  0  0  0  0  0  0
    4.7616    2.2745   -0.3049 H   0  0  0  0  0  0  0  0  0  0  0  0
    4.8312   -2.0725   -0.1553 H   0  0  0  0  0  0  0  0  0  0  0  0
    2.3994   -2.0833   -0.0394 H   0  0  0  0  0  0  0  0  0  0  0  0
    6.8806    2.2107   -0.7565 H   0  0  0  0  0  0  0  0  0  0  0  0
    9.3407   -1.1020   -1.3099 H   0  0  0  0  0  0  0  0  0  0  0  0
    6.8329   -2.0189   -0.7510 H   0  0  0  0  0  0  0  0  0  0  0  0
  1  2  1  0  0  0  0
  1 13  1  0  0  0  0
  2  3  2  0  0  0  0
  2  7  1  0  0  0  0
  3  4  1  0  0  0  0
  3 14  1  0  0  0  0
  4  5  2  0  0  0  0
  4 15  1  0  0  0  0
  5  6  1  0  0  0  0
  5  8  1  0  0  0  0
  6  7  2  0  0  0  0
  6 16  1  0  0  0  0
  7 17  1  0  0  0  0
  8  9  1  0  0  0  0
  8 12  1  0  0  0  0
  9 10  2  0  0  0  0
  9 18  1  0  0  0  0
 10 11  1  0  0  0  0
 11 12  2  0  0  0  0
 11 19  1  0  0  0  0
 12 20  1  0  0  0  0
M  END
$$$$
