MT0
 OpenBabel04121316153D

 19 20  0  0  0  0  0  0  0  0999 V2000
    0.9705   -0.1704    0.0733 Cl  0  0  0  0  0  0  0  0  0  0  0  0
    2.6877   -0.0162    0.1237 C   0  0  0  0  0  0  0  0  0  0  0  0
    3.3310   -1.1984    0.0465 N   0  0  0  0  0  0  0  0  0  0  0  0
    4.6963   -1.2207    0.0480 N   0  0  0  0  0  0  0  0  0  0  0  0
    5.3911   -0.0617    0.1050 C   0  0  0  0  0  0  0  0  0  0  0  0
    4.7558    1.1875    0.1428 C   0  0  0  0  0  0  0  0  0  0  0  0
    3.3418    1.2180    0.1705 C   0  0  0  0  0  0  0  0  0  0  0  0
    2.6947    2.4733    0.2071 C   0  0  0  0  0  0  0  0  0  0  0  0
    3.4117    3.6544    0.0329 C   0  0  0  0  0  0  0  0  0  0  0  0
    4.7951    3.6124   -0.0776 C   0  0  0  0  0  0  0  0  0  0  0  0
    5.4607    2.4054    0.0946 C   0  0  0  0  0  0  0  0  0  0  0  0
    6.8892   -0.1759    0.0690 C   0  0  0  0  0  0  0  0  0  0  0  0
    1.6131    2.5389    0.3233 H   0  0  0  0  0  0  0  0  0  0  0  0
    2.8915    4.6055   -0.0259 H   0  0  0  0  0  0  0  0  0  0  0  0
    5.3587    4.5135   -0.3008 H   0  0  0  0  0  0  0  0  0  0  0  0
    6.5489    2.4266    0.1405 H   0  0  0  0  0  0  0  0  0  0  0  0
    7.2100   -1.2185   -0.0018 H   0  0  0  0  0  0  0  0  0  0  0  0
    7.3199    0.2526    0.9800 H   0  0  0  0  0  0  0  0  0  0  0  0
    7.2876    0.3570   -0.8013 H   0  0  0  0  0  0  0  0  0  0  0  0
  1  2  1  0  0  0  0
  2  3  2  0  0  0  0
  2  7  1  0  0  0  0
  3  4  1  0  0  0  0
  4  5  2  0  0  0  0
  5  6  1  0  0  0  0
  5 12  1  0  0  0  0
  6  7  2  0  0  0  0
  6 11  1  0  0  0  0
  7  8  1  0  0  0  0
  8  9  2  0  0  0  0
  8 13  1  0  0  0  0
  9 10  1  0  0  0  0
  9 14  1  0  0  0  0
 10 11  2  0  0  0  0
 10 15  1  0  0  0  0
 11 16  1  0  0  0  0
 12 17  1  0  0  0  0
 12 18  1  0  0  0  0
 12 19  1  0  0  0  0
M  END
$$$$
