MT3
 OpenBabel04121316153D

 61 65  0  0  0  0  0  0  0  0999 V2000
    1.0397    0.0185   -0.0259 C   0  0  0  0  0  0  0  0  0  0  0  0
    2.4649   -0.0371   -0.0614 O   0  0  0  0  0  0  0  0  0  0  0  0
    3.0487    0.8906   -0.8853 C   0  0  0  0  0  0  0  0  0  0  0  0
    2.5701    2.1886   -0.9712 C   0  0  0  0  0  0  0  0  0  0  0  0
    3.2730    3.1657   -1.6855 C   0  0  0  0  0  0  0  0  0  0  0  0
    2.8713    4.5004   -1.6648 C   0  0  0  0  0  0  0  0  0  0  0  0
    3.5898    5.4290   -2.4145 C   0  0  0  0  0  0  0  0  0  0  0  0
    4.7299    5.0135   -3.0648 C   0  0  0  0  0  0  0  0  0  0  0  0
    5.1366    3.7329   -3.1059 N   0  0  0  0  0  0  0  0  0  0  0  0
    4.4127    2.8262   -2.4277 C   0  0  0  0  0  0  0  0  0  0  0  0
    4.8132    1.5036   -2.4253 C   0  0  0  0  0  0  0  0  0  0  0  0
    4.2015    0.5460   -1.6015 C   0  0  0  0  0  0  0  0  0  0  0  0
    4.6659   -0.7356   -1.4470 O   0  0  0  0  0  0  0  0  0  0  0  0
    5.8531   -1.0623   -2.1596 C   0  0  0  0  0  0  0  0  0  0  0  0
    1.7797    4.7631   -0.8529 O   0  0  0  0  0  0  0  0  0  0  0  0
    1.3730    6.0466   -0.6797 C   0  0  0  0  0  0  0  0  0  0  0  0
    0.0177    6.3175   -0.8576 C   0  0  0  0  0  0  0  0  0  0  0  0
   -0.4043    7.6322   -1.0020 C   0  0  0  0  0  0  0  0  0  0  0  0
    0.5233    8.6682   -0.9053 C   0  0  0  0  0  0  0  0  0  0  0  0
    1.8435    8.3547   -0.5389 C   0  0  0  0  0  0  0  0  0  0  0  0
    2.2546    7.0638   -0.3855 C   0  0  0  0  0  0  0  0  0  0  0  0
    3.5516    6.8467   -0.1222 F   0  0  0  0  0  0  0  0  0  0  0  0
    0.1397   10.0625   -1.1387 C   0  0  0  0  0  0  0  0  0  0  0  0
   -0.9261   10.4903   -1.8309 C   0  0  0  0  0  0  0  0  0  0  0  0
   -1.2236   11.8022   -2.1105 N   0  0  0  0  0  0  0  0  0  0  0  0
   -0.5059   12.7283   -1.5365 C   0  0  0  0  0  0  0  0  0  0  0  0
    0.4685   12.3964   -0.6310 N   0  0  0  0  0  0  0  0  0  0  0  0
    0.9707   11.1271   -0.5481 C   0  0  0  0  0  0  0  0  0  0  0  0
    2.0230   10.9191    0.0247 O   0  0  0  0  0  0  0  0  0  0  0  0
    1.2293   13.2507    0.2349 C   0  0  0  0  0  0  0  0  0  0  0  0
   -0.8440   14.1904   -1.9313 C   0  0  0  0  0  0  0  0  0  0  0  0
    0.1425   15.3112   -1.6485 C   0  0  0  0  0  0  0  0  0  0  0  0
   -0.2803   16.5950   -1.3045 C   0  0  0  0  0  0  0  0  0  0  0  0
    0.6593   17.5400   -0.8702 C   0  0  0  0  0  0  0  0  0  0  0  0
    1.9310   17.1294   -0.4893 C   0  0  0  0  0  0  0  0  0  0  0  0
    2.3152   15.8433   -0.7848 C   0  0  0  0  0  0  0  0  0  0  0  0
    1.5183   15.0881   -1.6497 C   0  0  0  0  0  0  0  0  0  0  0  0
    0.6866   -0.7430    0.6732 H   0  0  0  0  0  0  0  0  0  0  0  0
    0.6338   -0.1983   -1.0189 H   0  0  0  0  0  0  0  0  0  0  0  0
    0.6517    0.9726    0.3457 H   0  0  0  0  0  0  0  0  0  0  0  0
    1.6686    2.4826   -0.4476 H   0  0  0  0  0  0  0  0  0  0  0  0
    3.3413    6.4788   -2.4752 H   0  0  0  0  0  0  0  0  0  0  0  0
    5.3648    5.7363   -3.5691 H   0  0  0  0  0  0  0  0  0  0  0  0
    5.6453    1.2532   -3.0736 H   0  0  0  0  0  0  0  0  0  0  0  0
    6.1412   -2.0816   -1.8919 H   0  0  0  0  0  0  0  0  0  0  0  0
    6.6847   -0.4006   -1.8890 H   0  0  0  0  0  0  0  0  0  0  0  0
    5.6653   -1.0376   -3.2380 H   0  0  0  0  0  0  0  0  0  0  0  0
   -0.7056    5.5129   -0.9297 H   0  0  0  0  0  0  0  0  0  0  0  0
   -1.4511    7.8295   -1.2133 H   0  0  0  0  0  0  0  0  0  0  0  0
    2.6446    9.0687   -0.3967 H   0  0  0  0  0  0  0  0  0  0  0  0
   -1.6276    9.7822   -2.2696 H   0  0  0  0  0  0  0  0  0  0  0  0
    0.6772   14.1613    0.4029 H   0  0  0  0  0  0  0  0  0  0  0  0
    2.2311   13.3230   -0.2182 H   0  0  0  0  0  0  0  0  0  0  0  0
    1.4252   12.8278    1.2196 H   0  0  0  0  0  0  0  0  0  0  0  0
   -1.8005   14.4004   -1.4309 H   0  0  0  0  0  0  0  0  0  0  0  0
   -1.0447   14.2056   -3.0103 H   0  0  0  0  0  0  0  0  0  0  0  0
   -1.3289   16.8723   -1.3764 H   0  0  0  0  0  0  0  0  0  0  0  0
    0.3898   18.5852   -0.7803 H   0  0  0  0  0  0  0  0  0  0  0  0
    2.6362   17.7938   -0.0008 H   0  0  0  0  0  0  0  0  0  0  0  0
    3.1851   15.4058   -0.2905 H   0  0  0  0  0  0  0  0  0  0  0  0
    1.9060   14.1561   -2.0527 H   0  0  0  0  0  0  0  0  0  0  0  0
  1  2  1  0  0  0  0
  1 38  1  0  0  0  0
  1 39  1  0  0  0  0
  1 40  1  0  0  0  0
  2  3  1  0  0  0  0
  3  4  2  0  0  0  0
  3 12  1  0  0  0  0
  4  5  1  0  0  0  0
  4 41  1  0  0  0  0
  5  6  2  0  0  0  0
  5 10  1  0  0  0  0
  6  7  1  0  0  0  0
  6 15  1  0  0  0  0
  7  8  2  0  0  0  0
  7 42  1  0  0  0  0
  8  9  1  0  0  0  0
  8 43  1  0  0  0  0
  9 10  2  0  0  0  0
 10 11  1  0  0  0  0
 11 12  2  0  0  0  0
 11 44  1  0  0  0  0
 12 13  1  0  0  0  0
 13 14  1  0  0  0  0
 14 45  1  0  0  0  0
 14 46  1  0  0  0  0
 14 47  1  0  0  0  0
 15 16  1  0  0  0  0
 16 17  2  0  0  0  0
 16 21  1  0  0  0  0
 17 18  1  0  0  0  0
 17 48  1  0  0  0  0
 18 19  2  0  0  0  0
 18 49  1  0  0  0  0
 19 20  1  0  0  0  0
 19 23  1  0  0  0  0
 20 21  2  0  0  0  0
 20 50  1  0  0  0  0
 21 22  1  0  0  0  0
 23 24  2  0  0  0  0
 23 28  1  0  0  0  0
 24 25  1  0  0  0  0
 24 51  1  0  0  0  0
 25 26  2  0  0  0  0
 26 27  1  0  0  0  0
 26 31  1  0  0  0  0
 27 28  1  0  0  0  0
 27 30  1  0  0  0  0
 28 29  2  0  0  0  0
 30 52  1  0  0  0  0
 30 53  1  0  0  0  0
 30 54  1  0  0  0  0
 31 32  1  0  0  0  0
 31 55  1  0  0  0  0
 31 56  1  0  0  0  0
 32 33  2  0  0  0  0
 32 37  1  0  0  0  0
 33 34  1  0  0  0  0
 33 57  1  0  0  0  0
 34 35  2  0  0  0  0
 34 58  1  0  0  0  0
 35 36  1  0  0  0  0
 35 59  1  0  0  0  0
 36 37  2  0  0  0  0
 36 60  1  0  0  0  0
 37 61  1  0  0  0  0
M  END
$$$$
