MUI
 OpenBabel04121316163D

 84 87  0  0  1  0  0  0  0  0999 V2000
    4.9873   -3.5462   -9.4150 C   0  0  0  0  0  0  0  0  0  0  0  0
    4.5600   -4.0106   -8.1359 O   0  0  0  0  0  0  0  0  0  0  0  0
    5.6394   -4.3010   -7.3542 C   0  0  0  0  0  0  0  0  0  0  0  0
    6.0305   -5.6219   -7.1624 C   0  0  0  0  0  0  0  0  0  0  0  0
    6.8992   -5.9463   -6.1132 C   0  0  0  0  0  0  0  0  0  0  0  0
    7.5751   -4.9330   -5.4526 C   0  0  0  0  0  0  0  0  0  0  0  0
    7.4854   -3.6518   -5.9963 C   0  0  0  0  0  0  0  0  0  0  0  0
    6.3330   -3.2969   -6.7156 C   0  0  0  0  0  0  0  0  0  0  0  0
    8.3999   -5.3336   -3.8950 S   0  0  0  0  0  0  0  0  0  0  0  0
    7.4949   -6.1288   -3.0830 O   0  0  0  0  0  0  0  0  0  0  0  0
    9.6984   -5.8505   -4.2636 O   0  0  0  0  0  0  0  0  0  0  0  0
    8.6608   -3.8699   -2.9774 N   0  0  0  0  0  0  0  0  0  0  0  0
    7.3956   -3.2704   -2.4962 C   0  0  0  0  0  0  0  0  0  0  0  0
    6.5098   -2.6801   -3.5297 C   0  0  2  0  0  0  0  0  0  0  0  0
    7.1098   -2.5075   -4.3698 H   0  0  0  0  0  0  0  0  0  0  0  0
    6.1376   -1.2167   -3.3324 C   0  0  1  0  0  0  0  0  0  0  0  0
    5.4676   -0.9419   -4.1626 H   0  0  0  0  0  0  0  0  0  0  0  0
    5.4123   -1.1252   -2.0879 N   0  0  0  0  0  0  0  0  0  0  0  0
    4.1435   -1.6528   -2.0558 C   0  0  0  0  0  0  0  0  0  0  0  0
    3.6179   -2.1581   -3.0454 O   0  0  0  0  0  0  0  0  0  0  0  0
    3.4553   -1.5331   -0.7165 C   0  0  2  0  0  0  0  0  0  0  0  0
    4.1971   -1.5417    0.0878 H   0  0  0  0  0  0  0  0  0  0  0  0
    2.4462   -2.6398   -0.5975 C   0  0  0  0  0  0  0  0  0  0  0  0
    1.3108   -2.0612   -1.2502 N   0  0  0  0  0  0  0  0  0  0  0  0
    1.4084   -0.6724   -1.1408 C   0  0  0  0  0  0  0  0  0  0  0  0
    0.5721    0.1667   -1.3600 O   0  0  0  0  0  0  0  0  0  0  0  0
    2.6758   -0.3440   -0.6839 O   0  0  0  0  0  0  0  0  0  0  0  0
    0.4314   -2.7891   -2.0891 C   0  0  0  0  0  0  0  0  0  0  0  0
    0.4754   -4.1906   -2.1218 C   0  0  0  0  0  0  0  0  0  0  0  0
   -0.2032   -4.9167   -3.1089 C   0  0  0  0  0  0  0  0  0  0  0  0
   -1.0474   -4.2649   -4.0095 C   0  0  0  0  0  0  0  0  0  0  0  0
   -1.2242   -2.8869   -3.8739 C   0  0  0  0  0  0  0  0  0  0  0  0
   -0.4444   -2.1516   -2.9708 C   0  0  0  0  0  0  0  0  0  0  0  0
   -1.6882   -5.0682   -5.0945 C   0  0  0  0  0  0  0  0  0  0  0  0
   -1.4531   -6.2740   -5.1801 O   0  0  0  0  0  0  0  0  0  0  0  0
   -2.5927   -4.4030   -6.0996 C   0  0  0  0  0  0  0  0  0  0  0  0
    7.3810   -0.2651   -3.4278 C   0  0  0  0  0  0  0  0  0  0  0  0
    7.0168    1.1921   -3.3288 C   0  0  0  0  0  0  0  0  0  0  0  0
    5.6934    1.5924   -3.1026 C   0  0  0  0  0  0  0  0  0  0  0  0
    5.3028    2.9083   -3.1955 C   0  0  0  0  0  0  0  0  0  0  0  0
    6.2646    3.8758   -3.4026 C   0  0  0  0  0  0  0  0  0  0  0  0
    7.6133    3.5203   -3.4830 C   0  0  0  0  0  0  0  0  0  0  0  0
    7.9920    2.1775   -3.4959 C   0  0  0  0  0  0  0  0  0  0  0  0
    5.4879   -3.6133   -3.8038 O   0  0  0  0  0  0  0  0  0  0  0  0
    9.5299   -4.0988   -1.7407 C   0  0  0  0  0  0  0  0  0  0  0  0
    9.9318   -2.7915   -0.9566 C   0  0  0  0  0  0  0  0  0  0  0  0
    8.8196   -1.9664   -0.2619 C   0  0  0  0  0  0  0  0  0  0  0  0
   10.8323   -3.1867    0.2187 C   0  0  0  0  0  0  0  0  0  0  0  0
    4.0954   -3.3706  -10.0234 H   0  0  0  0  0  0  0  0  0  0  0  0
    5.5983   -4.3052   -9.9144 H   0  0  0  0  0  0  0  0  0  0  0  0
    5.5363   -2.6007   -9.3403 H   0  0  0  0  0  0  0  0  0  0  0  0
    5.6338   -6.4006   -7.7999 H   0  0  0  0  0  0  0  0  0  0  0  0
    7.0725   -6.9792   -5.8316 H   0  0  0  0  0  0  0  0  0  0  0  0
    8.1723   -2.8704   -5.6845 H   0  0  0  0  0  0  0  0  0  0  0  0
    5.9635   -2.2705   -6.7445 H   0  0  0  0  0  0  0  0  0  0  0  0
    7.7481   -2.3796   -2.0674 H   0  0  0  0  0  0  0  0  0  0  0  0
    6.8941   -3.8590   -1.7236 H   0  0  0  0  0  0  0  0  0  0  0  0
    5.7483   -0.5013   -1.3617 H   0  0  0  0  0  0  0  0  0  0  0  0
    2.1779   -2.7849    0.4524 H   0  0  0  0  0  0  0  0  0  0  0  0
    2.7987   -3.5819   -1.0270 H   0  0  0  0  0  0  0  0  0  0  0  0
    1.0580   -4.7555   -1.4017 H   0  0  0  0  0  0  0  0  0  0  0  0
   -0.0541   -5.9940   -3.1738 H   0  0  0  0  0  0  0  0  0  0  0  0
   -1.9382   -2.3303   -4.4684 H   0  0  0  0  0  0  0  0  0  0  0  0
   -0.5261   -1.0684   -3.0161 H   0  0  0  0  0  0  0  0  0  0  0  0
   -2.7262   -3.3366   -5.9403 H   0  0  0  0  0  0  0  0  0  0  0  0
   -3.5791   -4.8692   -6.0430 H   0  0  0  0  0  0  0  0  0  0  0  0
   -2.1669   -4.5290   -7.0985 H   0  0  0  0  0  0  0  0  0  0  0  0
    7.8960   -0.4269   -4.3893 H   0  0  0  0  0  0  0  0  0  0  0  0
    8.1376   -0.4650   -2.6691 H   0  0  0  0  0  0  0  0  0  0  0  0
    4.8898    0.9030   -2.8874 H   0  0  0  0  0  0  0  0  0  0  0  0
    4.2454    3.1384   -3.1142 H   0  0  0  0  0  0  0  0  0  0  0  0
    5.9511    4.9079   -3.4980 H   0  0  0  0  0  0  0  0  0  0  0  0
    8.3661    4.2983   -3.5582 H   0  0  0  0  0  0  0  0  0  0  0  0
    9.0375    1.9153   -3.6544 H   0  0  0  0  0  0  0  0  0  0  0  0
    4.7513   -3.1623   -4.2607 H   0  0  0  0  0  0  0  0  0  0  0  0
   10.4528   -4.5979   -2.0631 H   0  0  0  0  0  0  0  0  0  0  0  0
    9.0037   -4.7784   -1.0587 H   0  0  0  0  0  0  0  0  0  0  0  0
   10.4884   -2.1374   -1.6403 H   0  0  0  0  0  0  0  0  0  0  0  0
    8.1069   -2.6283    0.2415 H   0  0  0  0  0  0  0  0  0  0  0  0
    8.2656   -1.2864   -0.9011 H   0  0  0  0  0  0  0  0  0  0  0  0
    9.2256   -1.2464    0.4497 H   0  0  0  0  0  0  0  0  0  0  0  0
   10.2756   -3.8256    0.9160 H   0  0  0  0  0  0  0  0  0  0  0  0
   11.1410   -2.2923    0.7736 H   0  0  0  0  0  0  0  0  0  0  0  0
   11.7297   -3.7143   -0.1038 H   0  0  0  0  0  0  0  0  0  0  0  0
  1  2  1  0  0  0  0
  1 49  1  0  0  0  0
  1 50  1  0  0  0  0
  1 51  1  0  0  0  0
  2  3  1  0  0  0  0
  3  4  2  0  0  0  0
  3  8  1  0  0  0  0
  4  5  1  0  0  0  0
  4 52  1  0  0  0  0
  5  6  2  0  0  0  0
  5 53  1  0  0  0  0
  6  7  1  0  0  0  0
  6  9  1  0  0  0  0
  7  8  2  0  0  0  0
  7 54  1  0  0  0  0
  8 55  1  0  0  0  0
  9 10  2  0  0  0  0
  9 11  2  0  0  0  0
  9 12  1  0  0  0  0
 12 13  1  0  0  0  0
 12 45  1  0  0  0  0
 13 56  1  0  0  0  0
 13 57  1  0  0  0  0
 14 16  1  0  0  0  0
 14 44  1  0  0  0  0
 14 15  1  6  0  0  0
 14 13  1  0  0  0  0
 16 17  1  6  0  0  0
 16 18  1  0  0  0  0
 16 37  1  0  0  0  0
 18 19  1  0  0  0  0
 18 58  1  0  0  0  0
 19 20  2  0  0  0  0
 21 23  1  0  0  0  0
 21 27  1  0  0  0  0
 21 22  1  1  0  0  0
 21 19  1  0  0  0  0
 23 24  1  0  0  0  0
 23 59  1  0  0  0  0
 23 60  1  0  0  0  0
 24 25  1  0  0  0  0
 24 28  1  0  0  0  0
 25 26  2  0  0  0  0
 25 27  1  0  0  0  0
 28 29  2  0  0  0  0
 28 33  1  0  0  0  0
 29 30  1  0  0  0  0
 29 61  1  0  0  0  0
 30 31  2  0  0  0  0
 30 62  1  0  0  0  0
 31 32  1  0  0  0  0
 31 34  1  0  0  0  0
 32 33  2  0  0  0  0
 32 63  1  0  0  0  0
 33 64  1  0  0  0  0
 34 35  2  0  0  0  0
 34 36  1  0  0  0  0
 36 65  1  0  0  0  0
 36 66  1  0  0  0  0
 36 67  1  0  0  0  0
 37 38  1  0  0  0  0
 37 68  1  0  0  0  0
 37 69  1  0  0  0  0
 38 39  2  0  0  0  0
 38 43  1  0  0  0  0
 39 40  1  0  0  0  0
 39 70  1  0  0  0  0
 40 41  2  0  0  0  0
 40 71  1  0  0  0  0
 41 42  1  0  0  0  0
 41 72  1  0  0  0  0
 42 43  2  0  0  0  0
 42 73  1  0  0  0  0
 43 74  1  0  0  0  0
 44 75  1  0  0  0  0
 45 46  1  0  0  0  0
 45 76  1  0  0  0  0
 45 77  1  0  0  0  0
 46 47  1  0  0  0  0
 46 48  1  0  0  0  0
 46 78  1  0  0  0  0
 47 79  1  0  0  0  0
 47 80  1  0  0  0  0
 47 81  1  0  0  0  0
 48 82  1  0  0  0  0
 48 83  1  0  0  0  0
 48 84  1  0  0  0  0
M  END
$$$$
