MVL
 OpenBabel04121316163D

 27 28  0  0  1  0  0  0  0  0999 V2000
    0.7319    0.2916   -0.0122 O   0  0  0  0  0  0  0  0  0  0  0  0
    2.0928    0.0733   -0.2744 C   0  0  0  0  0  0  0  0  0  0  0  0
    3.1152    1.2515   -0.1773 C   0  0  2  0  0  0  0  0  0  0  0  0
    3.4017    1.4867   -1.2111 H   0  0  0  0  0  0  0  0  0  0  0  0
    4.2628    0.5956    0.6405 C   0  0  1  0  0  0  0  0  0  0  0  0
    4.3813   -0.4383    0.2919 H   0  0  0  0  0  0  0  0  0  0  0  0
    5.5255    1.1931    0.3738 O   0  0  0  0  0  0  0  0  0  0  0  0
    3.8717    0.5492    2.1694 C   0  0  2  0  0  0  0  0  0  0  0  0
    4.7575    0.2087    2.7107 H   0  0  0  0  0  0  0  0  0  0  0  0
    2.8655   -0.4436    2.4330 O   0  0  0  0  0  0  0  0  0  0  0  0
    3.4235    1.8973    2.7680 C   0  0  1  0  0  0  0  0  0  0  0  0
    4.2201    2.3160    3.3934 H   0  0  0  0  0  0  0  0  0  0  0  0
    3.1551    2.9235    1.7195 C   0  0  0  0  0  0  0  0  0  0  0  0
    2.8642    2.6323    0.4290 N   0  3  0  0  0  0  0  0  0  0  0  0
    2.7336    3.8575   -0.2452 C   0  0  0  0  0  0  0  0  0  0  0  0
    2.8726    4.8678    0.6830 C   0  0  0  0  0  0  0  0  0  0  0  0
    3.1291    4.2433    1.8720 N   0  0  0  0  0  0  0  0  0  0  0  0
    3.2642    4.7166    2.7773 H   0  0  0  0  0  0  0  0  0  0  0  0
    2.2352    1.7960    3.5610 O   0  0  0  0  0  0  0  0  0  0  0  0
    0.3433   -0.6151    0.0126 H   0  0  0  0  0  0  0  0  0  0  0  0
    2.2348   -0.4172   -1.2463 H   0  0  0  0  0  0  0  0  0  0  0  0
    2.3627   -0.7560    0.3843 H   0  0  0  0  0  0  0  0  0  0  0  0
    5.5453    2.1448    0.5424 H   0  0  0  0  0  0  0  0  0  0  0  0
    1.9678   -0.0825    2.3101 H   0  0  0  0  0  0  0  0  0  0  0  0
    2.5974    3.8774   -1.3126 H   0  0  0  0  0  0  0  0  0  0  0  0
    2.8571    5.9437    0.6562 H   0  0  0  0  0  0  0  0  0  0  0  0
    1.4687    1.6561    2.9734 H   0  0  0  0  0  0  0  0  0  0  0  0
  1  2  1  0  0  0  0
  1 20  1  0  0  0  0
  2  3  1  0  0  0  0
  2 21  1  0  0  0  0
  2 22  1  0  0  0  0
  3  4  1  6  0  0  0
  3  5  1  0  0  0  0
  3 14  1  0  0  0  0
  5  8  1  0  0  0  0
  5  7  1  0  0  0  0
  5  6  1  6  0  0  0
  7 23  1  0  0  0  0
  8 11  1  0  0  0  0
  8 10  1  0  0  0  0
  8  9  1  1  0  0  0
 10 24  1  0  0  0  0
 11 13  1  0  0  0  0
 11 19  1  0  0  0  0
 11 12  1  1  0  0  0
 13 14  2  0  0  0  0
 13 17  1  0  0  0  0
 14 15  1  0  0  0  0
 15 16  2  0  0  0  0
 15 25  1  0  0  0  0
 16 17  1  0  0  0  0
 16 26  1  0  0  0  0
 17 18  1  0  0  0  0
 19 27  1  0  0  0  0
M  CHG  1  14   1
M  END
$$$$
