MXD
 OpenBabel04121316163D

 30 31  0  0  0  0  0  0  0  0999 V2000
    0.9840    0.1332    0.0252 N   0  0  0  0  0  0  0  0  0  0  0  0
    2.3827    0.1534   -0.0116 C   0  0  0  0  0  0  0  0  0  0  0  0
    3.0904    1.3494    0.0319 C   0  0  0  0  0  0  0  0  0  0  0  0
    4.4812    1.3353    0.0040 C   0  0  0  0  0  0  0  0  0  0  0  0
    5.1528    0.1589   -0.0283 N   0  0  0  0  0  0  0  0  0  0  0  0
    4.4836   -1.0252   -0.0416 C   0  0  0  0  0  0  0  0  0  0  0  0
    3.0811   -1.0602   -0.0390 N   0  3  0  0  0  0  0  0  0  0  0  0
    2.4381   -2.1844   -0.0664 O   0  5  0  0  0  0  0  0  0  0  0  0
    5.1906   -2.2154   -0.0858 N   0  0  0  0  0  0  0  0  0  0  0  0
    5.1725    2.5217   -0.1609 N   0  0  0  0  0  0  0  0  0  0  0  0
    6.4396    2.4537   -0.8854 C   0  0  0  0  0  0  0  0  0  0  0  0
    6.5175    3.6979   -1.7718 C   0  0  0  0  0  0  0  0  0  0  0  0
    6.4450    4.9660   -0.9242 C   0  0  0  0  0  0  0  0  0  0  0  0
    5.1684    4.9652   -0.0767 C   0  0  0  0  0  0  0  0  0  0  0  0
    5.0380    3.6700    0.7446 C   0  0  0  0  0  0  0  0  0  0  0  0
    0.4197    0.9546   -0.1174 H   0  0  0  0  0  0  0  0  0  0  0  0
    0.5815   -0.7988   -0.0797 H   0  0  0  0  0  0  0  0  0  0  0  0
    2.5583    2.2925   -0.0090 H   0  0  0  0  0  0  0  0  0  0  0  0
    6.1954   -2.2093   -0.0311 H   0  0  0  0  0  0  0  0  0  0  0  0
    4.6297   -3.0589   -0.0515 H   0  0  0  0  0  0  0  0  0  0  0  0
    6.4991    1.5753   -1.5374 H   0  0  0  0  0  0  0  0  0  0  0  0
    7.2850    2.4169   -0.1873 H   0  0  0  0  0  0  0  0  0  0  0  0
    5.6727    3.6939   -2.4744 H   0  0  0  0  0  0  0  0  0  0  0  0
    7.4364    3.6843   -2.3644 H   0  0  0  0  0  0  0  0  0  0  0  0
    6.4684    5.8488   -1.5731 H   0  0  0  0  0  0  0  0  0  0  0  0
    7.3244    5.0219   -0.2709 H   0  0  0  0  0  0  0  0  0  0  0  0
    4.3012    5.0584   -0.7429 H   0  0  0  0  0  0  0  0  0  0  0  0
    5.1641    5.8432    0.5797 H   0  0  0  0  0  0  0  0  0  0  0  0
    4.0871    3.6789    1.2886 H   0  0  0  0  0  0  0  0  0  0  0  0
    5.8380    3.6478    1.4978 H   0  0  0  0  0  0  0  0  0  0  0  0
  1  2  1  0  0  0  0
  1 16  1  0  0  0  0
  1 17  1  0  0  0  0
  2  3  2  0  0  0  0
  2  7  1  0  0  0  0
  3  4  1  0  0  0  0
  3 18  1  0  0  0  0
  4  5  2  0  0  0  0
  4 10  1  0  0  0  0
  5  6  1  0  0  0  0
  6  7  2  0  0  0  0
  6  9  1  0  0  0  0
  7  8  1  0  0  0  0
  9 19  1  0  0  0  0
  9 20  1  0  0  0  0
 10 11  1  0  0  0  0
 10 15  1  0  0  0  0
 11 12  1  0  0  0  0
 11 21  1  0  0  0  0
 11 22  1  0  0  0  0
 12 13  1  0  0  0  0
 12 23  1  0  0  0  0
 12 24  1  0  0  0  0
 13 14  1  0  0  0  0
 13 25  1  0  0  0  0
 13 26  1  0  0  0  0
 14 15  1  0  0  0  0
 14 27  1  0  0  0  0
 14 28  1  0  0  0  0
 15 29  1  0  0  0  0
 15 30  1  0  0  0  0
M  CHG  2   7   1   8  -1
M  END
$$$$
