MXE
 OpenBabel04121316163D

 13 12  0  0  0  0  0  0  0  0999 V2000
    0.9692   -0.0603   -0.0643 C   0  0  0  0  0  0  0  0  0  0  0  0
    2.3913   -0.0860   -0.0724 O   0  0  0  0  0  0  0  0  0  0  0  0
    2.8801   -1.1227   -0.9187 C   0  0  0  0  0  0  0  0  0  0  0  0
    4.4042   -1.1256   -0.9145 C   0  0  0  0  0  0  0  0  0  0  0  0
    4.9065   -2.1628   -1.7509 O   0  0  0  0  0  0  0  0  0  0  0  0
    0.6394    0.7541    0.5857 H   0  0  0  0  0  0  0  0  0  0  0  0
    0.5752   -1.0032    0.3271 H   0  0  0  0  0  0  0  0  0  0  0  0
    0.5842    0.1178   -1.0732 H   0  0  0  0  0  0  0  0  0  0  0  0
    2.5148   -0.9786   -1.9424 H   0  0  0  0  0  0  0  0  0  0  0  0
    2.5105   -2.0932   -0.5666 H   0  0  0  0  0  0  0  0  0  0  0  0
    4.7941   -1.2648    0.0996 H   0  0  0  0  0  0  0  0  0  0  0  0
    4.7901   -0.1676   -1.2775 H   0  0  0  0  0  0  0  0  0  0  0  0
    4.5910   -3.0073   -1.3887 H   0  0  0  0  0  0  0  0  0  0  0  0
  1  2  1  0  0  0  0
  1  6  1  0  0  0  0
  1  7  1  0  0  0  0
  1  8  1  0  0  0  0
  2  3  1  0  0  0  0
  3  4  1  0  0  0  0
  3  9  1  0  0  0  0
  3 10  1  0  0  0  0
  4  5  1  0  0  0  0
  4 11  1  0  0  0  0
  4 12  1  0  0  0  0
  5 13  1  0  0  0  0
M  END
$$$$
