MXS
 OpenBabel04121316163D

 46 47  0  0  1  0  0  0  0  0999 V2000
   15.7423    9.0538    1.0948 C   0  0  0  0  0  0  0  0  0  0  0  0
   14.9934    7.9094    1.5325 O   0  0  0  0  0  0  0  0  0  0  0  0
   14.7399    7.0383    0.5107 C   0  0  0  0  0  0  0  0  0  0  0  0
   15.1070    7.2139   -0.6345 O   0  0  0  0  0  0  0  0  0  0  0  0
   14.0509    5.9262    0.9622 N   0  0  0  0  0  0  0  0  0  0  0  0
   13.6470    4.9335    0.0995 C   0  0  0  0  0  0  0  0  0  0  0  0
   14.2849    3.6202    0.1478 C   0  0  0  0  0  0  0  0  0  0  0  0
   13.9993    2.7017   -0.8080 C   0  0  0  0  0  0  0  0  0  0  0  0
   13.0517    2.9943   -1.8161 N   0  0  0  0  0  0  0  0  0  0  0  0
   12.4128    4.2294   -1.8318 C   0  0  0  0  0  0  0  0  0  0  0  0
   12.7465    5.2054   -0.8601 C   0  0  0  0  0  0  0  0  0  0  0  0
   11.5430    4.2819   -2.8775 C   0  0  0  0  0  0  0  0  0  0  0  0
   11.6005    3.0591   -3.5816 C   0  0  0  0  0  0  0  0  0  0  0  0
   12.5634    2.2471   -2.9258 C   0  0  0  0  0  0  0  0  0  0  0  0
   13.0224    0.9737   -3.2229 N   0  0  0  0  0  0  0  0  0  0  0  0
   12.4394    0.3018   -4.4246 C   0  0  2  0  0  0  0  0  0  0  0  0
   12.2061    1.1397   -5.0444 H   0  0  0  0  0  0  0  0  0  0  0  0
   11.1973   -0.6037   -4.0842 C   0  0  0  0  0  0  0  0  0  0  0  0
   10.2871   -1.0184   -5.6929 S   0  0  2  0  0  0  0  0  0  0  0  0
    8.8970   -0.4568   -5.6521 O   0  0  0  0  0  0  0  0  0  0  0  0
   10.0843   -2.5857   -5.4171 O   0  0  0  0  0  0  0  0  0  0  0  0
   11.7166   -1.8667   -3.3888 C   0  0  0  0  0  0  0  0  0  0  0  0
   10.1720    0.0409   -3.1106 C   0  0  0  0  0  0  0  0  0  0  0  0
   13.4352   -0.2609   -5.4464 C   0  0  0  0  0  0  0  0  0  0  0  0
   13.5204    0.1644   -6.5948 O   0  0  0  0  0  0  0  0  0  0  0  0
   14.2210   -1.2677   -5.0282 O   0  0  0  0  0  0  0  0  0  0  0  0
   10.7195    2.9106   -4.7606 C   0  0  0  0  0  0  0  0  0  0  0  0
   10.5273    1.9394   -5.4847 O   0  0  0  0  0  0  0  0  0  0  0  0
   15.8969    9.7251    1.9446 H   0  0  0  0  0  0  0  0  0  0  0  0
   15.1959    9.6047    0.3205 H   0  0  0  0  0  0  0  0  0  0  0  0
   16.7249    8.7473    0.7188 H   0  0  0  0  0  0  0  0  0  0  0  0
   13.9133    5.8234    1.9569 H   0  0  0  0  0  0  0  0  0  0  0  0
   15.0383    3.4406    0.9088 H   0  0  0  0  0  0  0  0  0  0  0  0
   14.4932    1.7403   -0.8385 H   0  0  0  0  0  0  0  0  0  0  0  0
   12.2706    6.1792   -0.9216 H   0  0  0  0  0  0  0  0  0  0  0  0
   10.9185    5.1251   -3.1360 H   0  0  0  0  0  0  0  0  0  0  0  0
   13.6878    0.4634   -2.6473 H   0  0  0  0  0  0  0  0  0  0  0  0
    9.4083   -2.8963   -6.0686 H   0  0  0  0  0  0  0  0  0  0  0  0
   12.3370   -1.5904   -2.5279 H   0  0  0  0  0  0  0  0  0  0  0  0
   12.3139   -2.4809   -4.0652 H   0  0  0  0  0  0  0  0  0  0  0  0
   10.9089   -2.5015   -3.0160 H   0  0  0  0  0  0  0  0  0  0  0  0
   10.6449    0.3669   -2.1782 H   0  0  0  0  0  0  0  0  0  0  0  0
    9.3872   -0.6718   -2.8315 H   0  0  0  0  0  0  0  0  0  0  0  0
    9.6419    0.9009   -3.5251 H   0  0  0  0  0  0  0  0  0  0  0  0
   14.0768   -1.5070   -4.0999 H   0  0  0  0  0  0  0  0  0  0  0  0
   10.1375    3.8035   -5.0094 H   0  0  0  0  0  0  0  0  0  0  0  0
  1  2  1  0  0  0  0
  1 29  1  0  0  0  0
  1 30  1  0  0  0  0
  1 31  1  0  0  0  0
  2  3  1  0  0  0  0
  3  4  2  0  0  0  0
  3  5  1  0  0  0  0
  5  6  1  0  0  0  0
  5 32  1  0  0  0  0
  6  7  1  0  0  0  0
  6 11  2  0  0  0  0
  7  8  2  0  0  0  0
  7 33  1  0  0  0  0
  8  9  1  0  0  0  0
  8 34  1  0  0  0  0
  9 10  1  0  0  0  0
  9 14  1  0  0  0  0
 10 11  1  0  0  0  0
 10 12  2  0  0  0  0
 11 35  1  0  0  0  0
 12 13  1  0  0  0  0
 12 36  1  0  0  0  0
 13 14  2  0  0  0  0
 13 27  1  0  0  0  0
 14 15  1  0  0  0  0
 15 37  1  0  0  0  0
 16 18  1  0  0  0  0
 16 24  1  0  0  0  0
 16 17  1  6  0  0  0
 16 15  1  0  0  0  0
 18 22  1  0  0  0  0
 18 23  1  0  0  0  0
 19 21  1  1  0  0  0
 19 20  2  0  0  0  0
 19 18  1  0  0  0  0
 21 38  1  0  0  0  0
 22 39  1  0  0  0  0
 22 40  1  0  0  0  0
 22 41  1  0  0  0  0
 23 42  1  0  0  0  0
 23 43  1  0  0  0  0
 23 44  1  0  0  0  0
 24 25  2  0  0  0  0
 24 26  1  0  0  0  0
 26 45  1  0  0  0  0
 27 28  2  0  0  0  0
 27 46  1  0  0  0  0
M  END
$$$$
