MY3
 OpenBabel04121316163D

 38 38  0  0  1  0  0  0  0  0999 V2000
    2.9734    1.4462   -0.2219 O   0  0  0  0  0  0  0  0  0  0  0  0
    2.5954    0.1227    0.1081 C   0  0  2  0  0  0  0  0  0  0  0  0
    1.4981    0.0655    0.0572 H   0  0  0  0  0  0  0  0  0  0  0  0
    3.0180   -0.3873    1.4759 C   0  0  0  0  0  0  0  0  0  0  0  0
    3.6291   -1.4359    1.6694 O   0  0  0  0  0  0  0  0  0  0  0  0
    2.6202    0.4195    2.4934 N   0  0  0  0  0  0  0  0  0  0  0  0
    3.1219    0.1114    3.7953 C   0  0  0  0  0  0  0  0  0  0  0  0
    2.6896    1.1517    4.7646 C   0  0  0  0  0  0  0  0  0  0  0  0
    1.7962    0.8485    5.7933 C   0  0  0  0  0  0  0  0  0  0  0  0
    1.3152    1.8705    6.6032 C   0  0  0  0  0  0  0  0  0  0  0  0
    1.8101    3.1671    6.4559 C   0  0  0  0  0  0  0  0  0  0  0  0
    2.7792    3.4485    5.4957 C   0  0  0  0  0  0  0  0  0  0  0  0
    3.1720    2.4573    4.6108 C   0  0  0  0  0  0  0  0  0  0  0  0
    3.1554   -0.8378   -0.8850 C   0  0  0  0  0  0  0  0  0  0  0  0
    4.6331   -0.9355   -0.9983 C   0  0  0  0  0  0  0  0  0  0  0  0
    5.3884   -0.1543   -0.4130 O   0  0  0  0  0  0  0  0  0  0  0  0
    5.0923   -1.9186   -1.8781 N   0  0  0  0  0  0  0  0  0  0  0  0
    4.2995   -2.8745   -2.7300 C   0  0  0  0  0  0  0  0  0  0  0  0
    2.7246   -2.9846   -2.8535 C   0  0  0  0  0  0  0  0  0  0  0  0
    1.8522   -2.3385   -2.2849 O   0  0  0  0  0  0  0  0  0  0  0  0
    2.2689   -3.9064   -3.7227 O   0  0  0  0  0  0  0  0  0  0  0  0
    6.5351   -2.0477   -1.9238 N   0  0  0  0  0  0  0  0  0  0  0  0
    3.9447    1.4143   -0.3443 H   0  0  0  0  0  0  0  0  0  0  0  0
    2.1316    1.2856    2.2880 H   0  0  0  0  0  0  0  0  0  0  0  0
    4.2175    0.0745    3.7478 H   0  0  0  0  0  0  0  0  0  0  0  0
    2.7695   -0.8906    4.0638 H   0  0  0  0  0  0  0  0  0  0  0  0
    1.4671   -0.1757    5.9559 H   0  0  0  0  0  0  0  0  0  0  0  0
    0.5630    1.6550    7.3560 H   0  0  0  0  0  0  0  0  0  0  0  0
    1.4444    3.9612    7.0986 H   0  0  0  0  0  0  0  0  0  0  0  0
    3.2258    4.4352    5.4282 H   0  0  0  0  0  0  0  0  0  0  0  0
    3.8561    2.6912    3.7964 H   0  0  0  0  0  0  0  0  0  0  0  0
    2.8224   -0.4999   -1.8679 H   0  0  0  0  0  0  0  0  0  0  0  0
    2.8279   -1.8283   -0.5497 H   0  0  0  0  0  0  0  0  0  0  0  0
    4.6626   -3.8724   -2.4505 H   0  0  0  0  0  0  0  0  0  0  0  0
    4.6586   -2.6704   -3.7482 H   0  0  0  0  0  0  0  0  0  0  0  0
    2.9148   -4.4397   -4.2060 H   0  0  0  0  0  0  0  0  0  0  0  0
    6.8948   -1.3722   -1.2224 H   0  0  0  0  0  0  0  0  0  0  0  0
    6.8720   -1.6554   -2.8049 H   0  0  0  0  0  0  0  0  0  0  0  0
  1 23  1  0  0  0  0
  2  4  1  0  0  0  0
  2 14  1  0  0  0  0
  2  3  1  6  0  0  0
  2  1  1  0  0  0  0
  4  5  2  0  0  0  0
  4  6  1  0  0  0  0
  6  7  1  0  0  0  0
  6 24  1  0  0  0  0
  7  8  1  0  0  0  0
  7 25  1  0  0  0  0
  7 26  1  0  0  0  0
  8  9  2  0  0  0  0
  8 13  1  0  0  0  0
  9 10  1  0  0  0  0
  9 27  1  0  0  0  0
 10 11  2  0  0  0  0
 10 28  1  0  0  0  0
 11 12  1  0  0  0  0
 11 29  1  0  0  0  0
 12 13  2  0  0  0  0
 12 30  1  0  0  0  0
 13 31  1  0  0  0  0
 14 15  1  0  0  0  0
 14 32  1  0  0  0  0
 14 33  1  0  0  0  0
 15 16  2  0  0  0  0
 15 17  1  0  0  0  0
 17 18  1  0  0  0  0
 17 22  1  0  0  0  0
 18 19  1  0  0  0  0
 18 34  1  0  0  0  0
 18 35  1  0  0  0  0
 19 20  2  0  0  0  0
 19 21  1  0  0  0  0
 21 36  1  0  0  0  0
 22 37  1  0  0  0  0
 22 38  1  0  0  0  0
M  END
$$$$
