MYC
 OpenBabel04121316163D

 33 35  0  0  0  0  0  0  0  0999 V2000
    1.0385    0.0910    0.0730 O   0  0  0  0  0  0  0  0  0  0  0  0
    2.4018    0.0065    0.0754 C   0  0  0  0  0  0  0  0  0  0  0  0
    3.0201   -1.2415    0.0771 C   0  0  0  0  0  0  0  0  0  0  0  0
    4.4010   -1.2902    0.0826 C   0  0  0  0  0  0  0  0  0  0  0  0
    5.0408   -2.4948    0.0896 O   0  0  0  0  0  0  0  0  0  0  0  0
    5.1459   -0.1039    0.0818 C   0  0  0  0  0  0  0  0  0  0  0  0
    4.5417    1.1496    0.0790 C   0  0  0  0  0  0  0  0  0  0  0  0
    3.1420    1.2011    0.0769 C   0  0  0  0  0  0  0  0  0  0  0  0
    5.2729    2.3271    0.0779 O   0  0  0  0  0  0  0  0  0  0  0  0
    6.6948    2.2701    0.0824 C   0  0  0  0  0  0  0  0  0  0  0  0
    7.3520    1.0797    0.0873 C   0  0  0  0  0  0  0  0  0  0  0  0
    6.5939   -0.1822    0.0828 C   0  0  0  0  0  0  0  0  0  0  0  0
    7.2053   -1.2404    0.0779 O   0  0  0  0  0  0  0  0  0  0  0  0
    8.6860    0.7736    0.1025 O   0  0  0  0  0  0  0  0  0  0  0  0
    7.3562    3.6347    0.0862 C   0  0  0  0  0  0  0  0  0  0  0  0
    6.6288    4.8443    0.0782 C   0  0  0  0  0  0  0  0  0  0  0  0
    7.3024    6.0869    0.0814 C   0  0  0  0  0  0  0  0  0  0  0  0
    6.6260    7.2771    0.0730 O   0  0  0  0  0  0  0  0  0  0  0  0
    8.6932    6.1609    0.0927 C   0  0  0  0  0  0  0  0  0  0  0  0
    9.4130    5.0029    0.1002 C   0  0  0  0  0  0  0  0  0  0  0  0
    8.7533    3.7913    0.0993 C   0  0  0  0  0  0  0  0  0  0  0  0
   10.7759    4.9575    0.1113 O   0  0  0  0  0  0  0  0  0  0  0  0
    9.3700    7.3426    0.0986 O   0  0  0  0  0  0  0  0  0  0  0  0
    0.6651   -0.8081    0.0750 H   0  0  0  0  0  0  0  0  0  0  0  0
    2.4518   -2.1638    0.0742 H   0  0  0  0  0  0  0  0  0  0  0  0
    4.4421   -3.2510    0.0960 H   0  0  0  0  0  0  0  0  0  0  0  0
    2.6096    2.1486    0.0761 H   0  0  0  0  0  0  0  0  0  0  0  0
    9.2983    1.4902    0.0411 H   0  0  0  0  0  0  0  0  0  0  0  0
    5.5412    4.8293    0.0711 H   0  0  0  0  0  0  0  0  0  0  0  0
    5.6728    7.0862    0.0608 H   0  0  0  0  0  0  0  0  0  0  0  0
    9.4803    3.0177    0.1176 H   0  0  0  0  0  0  0  0  0  0  0  0
   11.0752    5.8843    0.1149 H   0  0  0  0  0  0  0  0  0  0  0  0
    8.6689    8.0216    0.0947 H   0  0  0  0  0  0  0  0  0  0  0  0
  1  2  1  0  0  0  0
  1 24  1  0  0  0  0
  2  3  2  0  0  0  0
  2  8  1  0  0  0  0
  3  4  1  0  0  0  0
  3 25  1  0  0  0  0
  4  5  1  0  0  0  0
  4  6  2  0  0  0  0
  5 26  1  0  0  0  0
  6  7  1  0  0  0  0
  6 12  1  0  0  0  0
  7  8  2  0  0  0  0
  7  9  1  0  0  0  0
  8 27  1  0  0  0  0
  9 10  1  0  0  0  0
 10 11  2  0  0  0  0
 10 15  1  0  0  0  0
 11 12  1  0  0  0  0
 11 14  1  0  0  0  0
 12 13  2  0  0  0  0
 14 28  1  0  0  0  0
 15 16  2  0  0  0  0
 15 21  1  0  0  0  0
 16 17  1  0  0  0  0
 16 29  1  0  0  0  0
 17 18  1  0  0  0  0
 17 19  2  0  0  0  0
 18 30  1  0  0  0  0
 19 20  1  0  0  0  0
 19 23  1  0  0  0  0
 20 21  2  0  0  0  0
 20 22  1  0  0  0  0
 21 31  1  0  0  0  0
 22 32  1  0  0  0  0
 23 33  1  0  0  0  0
M  END
$$$$
