MYE
 OpenBabel04121316163D

 56 56  0  0  1  0  0  0  0  0999 V2000
    3.0864   -4.9477   -1.2794 C   0  0  0  0  0  0  0  0  0  0  0  0
    3.2566   -3.9949   -2.4427 C   0  0  0  0  0  0  0  0  0  0  0  0
    4.3305   -2.9628   -2.1274 C   0  0  0  0  0  0  0  0  0  0  0  0
    4.5042   -2.0185   -3.3068 C   0  0  0  0  0  0  0  0  0  0  0  0
    4.9902   -0.6486   -2.8264 C   0  0  2  0  0  0  0  0  0  0  0  0
    4.6723   -0.4199   -1.8040 H   0  0  0  0  0  0  0  0  0  0  0  0
    4.4540    0.4069   -3.6465 N   0  0  0  0  0  0  0  0  0  0  0  0
    3.0957    0.5607   -3.8146 C   0  0  0  0  0  0  0  0  0  0  0  0
    2.2764   -0.0496   -3.1301 O   0  0  0  0  0  0  0  0  0  0  0  0
    2.6937    1.5700   -4.9026 C   0  0  1  0  0  0  0  0  0  0  0  0
    3.0949    2.5510   -4.6185 H   0  0  0  0  0  0  0  0  0  0  0  0
    3.3052    1.1498   -6.1655 N   0  0  0  0  0  0  0  0  0  0  0  0
    4.6176    1.3326   -6.4574 C   0  0  0  0  0  0  0  0  0  0  0  0
    5.4434    1.7485   -5.6478 O   0  0  0  0  0  0  0  0  0  0  0  0
    4.9006    0.9438   -7.7156 O   0  0  0  0  0  0  0  0  0  0  0  0
    6.3136    0.9433   -7.9596 C   0  0  0  0  0  0  0  0  0  0  0  0
    6.5307    0.6416   -9.4152 C   0  0  0  0  0  0  0  0  0  0  0  0
    6.5918    1.6817  -10.3518 C   0  0  0  0  0  0  0  0  0  0  0  0
    6.5313    1.3962  -11.7148 C   0  0  0  0  0  0  0  0  0  0  0  0
    6.5405    0.0703  -12.1416 C   0  0  0  0  0  0  0  0  0  0  0  0
    6.6428   -0.9698  -11.2209 C   0  0  0  0  0  0  0  0  0  0  0  0
    6.5792   -0.6864   -9.8578 C   0  0  0  0  0  0  0  0  0  0  0  0
    6.3523   -0.3222  -13.9805 Br  0  0  0  0  0  0  0  0  0  0  0  0
    1.1570    1.6301   -4.9664 C   0  0  0  0  0  0  0  0  0  0  0  0
    0.5933    2.6983   -5.9158 C   0  0  0  0  0  0  0  0  0  0  0  0
    1.0202    2.4869   -7.3653 C   0  0  0  0  0  0  0  0  0  0  0  0
   -0.9338    2.6834   -5.8594 C   0  0  0  0  0  0  0  0  0  0  0  0
    6.5085   -0.6102   -2.8888 C   0  0  0  0  0  0  0  0  0  0  0  0
    7.1611   -0.7521   -3.9209 O   0  0  0  0  0  0  0  0  0  0  0  0
    2.3103   -5.6831   -1.5044 H   0  0  0  0  0  0  0  0  0  0  0  0
    2.7957   -4.4036   -0.3747 H   0  0  0  0  0  0  0  0  0  0  0  0
    4.0228   -5.4761   -1.0779 H   0  0  0  0  0  0  0  0  0  0  0  0
    2.3021   -3.4882   -2.6365 H   0  0  0  0  0  0  0  0  0  0  0  0
    3.5214   -4.5479   -3.3506 H   0  0  0  0  0  0  0  0  0  0  0  0
    5.2885   -3.4479   -1.9096 H   0  0  0  0  0  0  0  0  0  0  0  0
    4.0338   -2.4124   -1.2260 H   0  0  0  0  0  0  0  0  0  0  0  0
    3.5526   -1.9414   -3.8444 H   0  0  0  0  0  0  0  0  0  0  0  0
    5.1941   -2.4606   -4.0361 H   0  0  0  0  0  0  0  0  0  0  0  0
    5.0952    0.9228   -4.2520 H   0  0  0  0  0  0  0  0  0  0  0  0
    2.7344    0.7631   -6.9051 H   0  0  0  0  0  0  0  0  0  0  0  0
    6.7816    0.1694   -7.3396 H   0  0  0  0  0  0  0  0  0  0  0  0
    6.7555    1.9161   -7.7108 H   0  0  0  0  0  0  0  0  0  0  0  0
    6.6471    2.7173  -10.0234 H   0  0  0  0  0  0  0  0  0  0  0  0
    6.4562    2.2108  -12.4296 H   0  0  0  0  0  0  0  0  0  0  0  0
    6.7341   -2.0004  -11.5506 H   0  0  0  0  0  0  0  0  0  0  0  0
    6.5435   -1.5038   -9.1402 H   0  0  0  0  0  0  0  0  0  0  0  0
    0.7729    1.8375   -3.9549 H   0  0  0  0  0  0  0  0  0  0  0  0
    0.7577    0.6420   -5.2356 H   0  0  0  0  0  0  0  0  0  0  0  0
    0.9468    3.6816   -5.5821 H   0  0  0  0  0  0  0  0  0  0  0  0
    0.7771    1.4682   -7.6908 H   0  0  0  0  0  0  0  0  0  0  0  0
    2.0894    2.6626   -7.4949 H   0  0  0  0  0  0  0  0  0  0  0  0
    0.5300    3.1917   -8.0391 H   0  0  0  0  0  0  0  0  0  0  0  0
   -1.3263    1.7065   -6.1641 H   0  0  0  0  0  0  0  0  0  0  0  0
   -1.3448    3.4384   -6.5372 H   0  0  0  0  0  0  0  0  0  0  0  0
   -1.2974    2.8981   -4.8501 H   0  0  0  0  0  0  0  0  0  0  0  0
    7.0115   -0.4134   -1.9283 H   0  0  0  0  0  0  0  0  0  0  0  0
  1  2  1  0  0  0  0
  1 30  1  0  0  0  0
  1 31  1  0  0  0  0
  1 32  1  0  0  0  0
  2  3  1  0  0  0  0
  2 33  1  0  0  0  0
  2 34  1  0  0  0  0
  3  4  1  0  0  0  0
  3 35  1  0  0  0  0
  3 36  1  0  0  0  0
  4 37  1  0  0  0  0
  4 38  1  0  0  0  0
  5  7  1  0  0  0  0
  5 28  1  0  0  0  0
  5  6  1  1  0  0  0
  5  4  1  0  0  0  0
  7  8  1  0  0  0  0
  7 39  1  0  0  0  0
  8  9  2  0  0  0  0
  8 10  1  0  0  0  0
 10 11  1  1  0  0  0
 10 12  1  0  0  0  0
 10 24  1  0  0  0  0
 12 13  1  0  0  0  0
 12 40  1  0  0  0  0
 13 14  2  0  0  0  0
 13 15  1  0  0  0  0
 15 16  1  0  0  0  0
 16 17  1  0  0  0  0
 16 41  1  0  0  0  0
 16 42  1  0  0  0  0
 17 18  2  0  0  0  0
 17 22  1  0  0  0  0
 18 19  1  0  0  0  0
 18 43  1  0  0  0  0
 19 20  2  0  0  0  0
 19 44  1  0  0  0  0
 20 21  1  0  0  0  0
 20 23  1  0  0  0  0
 21 22  2  0  0  0  0
 21 45  1  0  0  0  0
 22 46  1  0  0  0  0
 24 25  1  0  0  0  0
 24 47  1  0  0  0  0
 24 48  1  0  0  0  0
 25 26  1  0  0  0  0
 25 27  1  0  0  0  0
 25 49  1  0  0  0  0
 26 50  1  0  0  0  0
 26 51  1  0  0  0  0
 26 52  1  0  0  0  0
 27 53  1  0  0  0  0
 27 54  1  0  0  0  0
 27 55  1  0  0  0  0
 28 29  2  0  0  0  0
 28 56  1  0  0  0  0
M  END
$$$$
