MYR
 OpenBabel04121316163D

 44 43  0  0  0  0  0  0  0  0999 V2000
    0.9691    0.0803    0.0576 C   0  0  0  0  0  0  0  0  0  0  0  0
    2.4851    0.0757    0.0634 C   0  0  0  0  0  0  0  0  0  0  0  0
    3.0085   -0.8118    1.1836 C   0  0  0  0  0  0  0  0  0  0  0  0
    4.5285   -0.8181    1.1916 C   0  0  0  0  0  0  0  0  0  0  0  0
    5.0416   -1.7062    2.3126 C   0  0  0  0  0  0  0  0  0  0  0  0
    6.5599   -1.7110    2.3186 C   0  0  0  0  0  0  0  0  0  0  0  0
    7.0718   -2.5983    3.4386 C   0  0  0  0  0  0  0  0  0  0  0  0
    8.5900   -2.6027    3.4442 C   0  0  0  0  0  0  0  0  0  0  0  0
    9.1003   -3.4907    4.5651 C   0  0  0  0  0  0  0  0  0  0  0  0
   10.6187   -3.5000    4.5768 C   0  0  0  0  0  0  0  0  0  0  0  0
   11.1275   -4.3913    5.7018 C   0  0  0  0  0  0  0  0  0  0  0  0
   12.6466   -4.3988    5.7113 C   0  0  0  0  0  0  0  0  0  0  0  0
   13.2062   -5.2803    6.8240 C   0  0  0  0  0  0  0  0  0  0  0  0
   14.7157   -5.2494    6.7849 C   0  0  0  0  0  0  0  0  0  0  0  0
   15.3800   -4.6111    5.9792 O   0  0  0  0  0  0  0  0  0  0  0  0
   15.2935   -6.0070    7.7413 O   0  0  0  0  0  0  0  0  0  0  0  0
    0.5952    0.7180   -0.7474 H   0  0  0  0  0  0  0  0  0  0  0  0
    0.5801    0.4589    1.0082 H   0  0  0  0  0  0  0  0  0  0  0  0
    0.5801   -0.9318   -0.0935 H   0  0  0  0  0  0  0  0  0  0  0  0
    2.8562    1.0990    0.1937 H   0  0  0  0  0  0  0  0  0  0  0  0
    2.8562   -0.2853   -0.9029 H   0  0  0  0  0  0  0  0  0  0  0  0
    2.6360   -1.8355    1.0545 H   0  0  0  0  0  0  0  0  0  0  0  0
    2.6360   -0.4519    2.1507 H   0  0  0  0  0  0  0  0  0  0  0  0
    4.9063    0.2030    1.3248 H   0  0  0  0  0  0  0  0  0  0  0  0
    4.9063   -1.1814    0.2280 H   0  0  0  0  0  0  0  0  0  0  0  0
    4.6667   -2.7288    2.1815 H   0  0  0  0  0  0  0  0  0  0  0  0
    4.6667   -1.3447    3.2781 H   0  0  0  0  0  0  0  0  0  0  0  0
    6.9362   -0.6891    2.4508 H   0  0  0  0  0  0  0  0  0  0  0  0
    6.9362   -2.0735    1.3541 H   0  0  0  0  0  0  0  0  0  0  0  0
    6.6959   -3.6204    3.3068 H   0  0  0  0  0  0  0  0  0  0  0  0
    6.6959   -2.2362    4.4035 H   0  0  0  0  0  0  0  0  0  0  0  0
    8.9655   -1.5804    3.5758 H   0  0  0  0  0  0  0  0  0  0  0  0
    8.9655   -2.9647    2.4791 H   0  0  0  0  0  0  0  0  0  0  0  0
    8.7225   -4.5118    4.4317 H   0  0  0  0  0  0  0  0  0  0  0  0
    8.7225   -3.1273    5.5286 H   0  0  0  0  0  0  0  0  0  0  0  0
   10.9951   -2.4776    4.7073 H   0  0  0  0  0  0  0  0  0  0  0  0
   10.9951   -3.8610    3.6113 H   0  0  0  0  0  0  0  0  0  0  0  0
   10.7483   -5.4110    5.5655 H   0  0  0  0  0  0  0  0  0  0  0  0
   10.7483   -4.0254    6.6633 H   0  0  0  0  0  0  0  0  0  0  0  0
   13.0153   -3.3721    5.8328 H   0  0  0  0  0  0  0  0  0  0  0  0
   13.0153   -4.7520    4.7396 H   0  0  0  0  0  0  0  0  0  0  0  0
   12.8632   -6.3122    6.6888 H   0  0  0  0  0  0  0  0  0  0  0  0
   12.8632   -4.9127    7.7976 H   0  0  0  0  0  0  0  0  0  0  0  0
   14.6675   -6.4711    8.3270 H   0  0  0  0  0  0  0  0  0  0  0  0
  1  2  1  0  0  0  0
  1 17  1  0  0  0  0
  1 18  1  0  0  0  0
  1 19  1  0  0  0  0
  2  3  1  0  0  0  0
  2 20  1  0  0  0  0
  2 21  1  0  0  0  0
  3  4  1  0  0  0  0
  3 22  1  0  0  0  0
  3 23  1  0  0  0  0
  4  5  1  0  0  0  0
  4 24  1  0  0  0  0
  4 25  1  0  0  0  0
  5  6  1  0  0  0  0
  5 26  1  0  0  0  0
  5 27  1  0  0  0  0
  6  7  1  0  0  0  0
  6 28  1  0  0  0  0
  6 29  1  0  0  0  0
  7  8  1  0  0  0  0
  7 30  1  0  0  0  0
  7 31  1  0  0  0  0
  8  9  1  0  0  0  0
  8 32  1  0  0  0  0
  8 33  1  0  0  0  0
  9 10  1  0  0  0  0
  9 34  1  0  0  0  0
  9 35  1  0  0  0  0
 10 11  1  0  0  0  0
 10 36  1  0  0  0  0
 10 37  1  0  0  0  0
 11 12  1  0  0  0  0
 11 38  1  0  0  0  0
 11 39  1  0  0  0  0
 12 13  1  0  0  0  0
 12 40  1  0  0  0  0
 12 41  1  0  0  0  0
 13 14  1  0  0  0  0
 13 42  1  0  0  0  0
 13 43  1  0  0  0  0
 14 15  2  0  0  0  0
 14 16  1  0  0  0  0
 16 44  1  0  0  0  0
M  END
$$$$
