MZ6
 OpenBabel04121316163D

 72 75  0  0  1  0  0  0  0  0999 V2000
    0.7060    3.0334   -2.6799 C   0  0  0  0  0  0  0  0  0  0  0  0
   -0.0084    1.1644   -2.7267 C   0  0  0  0  0  0  0  0  0  0  0  0
    0.4400    0.7327   -1.4744 C   0  0  1  0  0  0  0  0  0  0  0  0
    1.4628    1.0749   -1.3145 H   0  0  0  0  0  0  0  0  0  0  0  0
   -0.6452    1.5711   -0.9207 C   0  0  0  0  0  0  0  0  0  0  0  0
   -1.1105    2.8962   -1.3771 N   0  0  0  0  0  0  0  0  0  0  0  0
   -1.7535    3.1122   -3.1440 S   0  0  0  0  0  0  0  0  0  0  0  0
   -2.9965    2.3083   -3.1820 O   0  0  0  0  0  0  0  0  0  0  0  0
   -1.7687    4.5231   -3.3809 O   0  0  0  0  0  0  0  0  0  0  0  0
   -0.2417    2.2526   -4.5999 C   0  0  0  0  0  0  0  0  0  0  0  0
    1.3454    1.6992   -4.3014 C   0  0  0  0  0  0  0  0  0  0  0  0
    2.3111    1.0871   -4.9752 C   0  0  0  0  0  0  0  0  0  0  0  0
    1.8054    1.2463   -6.2167 C   0  0  0  0  0  0  0  0  0  0  0  0
    0.5517    1.8845   -6.6002 C   0  0  0  0  0  0  0  0  0  0  0  0
   -0.5438    2.4010   -5.8642 C   0  0  0  0  0  0  0  0  0  0  0  0
    0.5508    1.9869   -8.2944 S   0  0  0  0  0  0  0  0  0  0  0  0
    1.9860    1.1065   -8.3194 C   0  0  0  0  0  0  0  0  0  0  0  0
    2.5795    0.7809   -7.2165 N   0  0  0  0  0  0  0  0  0  0  0  0
   -1.6015    3.7495   -0.2326 C   0  0  0  0  0  0  0  0  0  0  0  0
   -0.8931    3.5274    1.2054 C   0  0  2  0  0  0  0  0  0  0  0  0
    0.1996    3.4548    1.1269 H   0  0  0  0  0  0  0  0  0  0  0  0
   -1.4489    2.2821    2.0175 C   0  0  1  0  0  0  0  0  0  0  0  0
   -1.1481    2.3211    3.0649 H   0  0  0  0  0  0  0  0  0  0  0  0
   -2.9002    2.3116    1.9486 N   0  0  0  0  0  0  0  0  0  0  0  0
   -3.5865    3.2161    2.7031 C   0  0  0  0  0  0  0  0  0  0  0  0
   -3.0416    3.9957    3.4710 O   0  0  0  0  0  0  0  0  0  0  0  0
   -5.0398    3.1964    2.5392 C   0  0  0  0  0  0  0  0  0  0  0  0
   -5.7383    1.9897    2.4434 C   0  0  0  0  0  0  0  0  0  0  0  0
   -7.1242    2.0161    2.3754 C   0  0  0  0  0  0  0  0  0  0  0  0
   -7.7838    3.2366    2.2272 C   0  0  0  0  0  0  0  0  0  0  0  0
   -7.0658    4.4275    2.3044 C   0  0  0  0  0  0  0  0  0  0  0  0
   -5.7053    4.4164    2.5460 C   0  0  0  0  0  0  0  0  0  0  0  0
   -7.6663    5.6386    2.1475 O   0  0  0  0  0  0  0  0  0  0  0  0
   -0.9502    0.9389    1.5242 C   0  0  0  0  0  0  0  0  0  0  0  0
   -1.3448   -0.4221    1.8907 C   0  0  0  0  0  0  0  0  0  0  0  0
   -0.5516   -1.5024    1.5035 C   0  0  0  0  0  0  0  0  0  0  0  0
   -1.0466   -2.7812    1.5716 C   0  0  0  0  0  0  0  0  0  0  0  0
   -2.2505   -2.9678    2.2332 C   0  0  0  0  0  0  0  0  0  0  0  0
   -2.9950   -1.8885    2.6959 C   0  0  0  0  0  0  0  0  0  0  0  0
   -2.6024   -0.6206    2.3957 C   0  0  0  0  0  0  0  0  0  0  0  0
   -1.0622    4.7362    1.9732 O   0  0  0  0  0  0  0  0  0  0  0  0
    0.4238   -0.7674   -1.3832 C   0  0  0  0  0  0  0  0  0  0  0  0
    0.2790    3.7758   -3.4142 H   0  0  0  0  0  0  0  0  0  0  0  0
    1.7022    3.2987   -3.0663 H   0  0  0  0  0  0  0  0  0  0  0  0
    0.7788    3.4800   -1.7066 H   0  0  0  0  0  0  0  0  0  0  0  0
    0.3021    0.3275   -3.4246 H   0  0  0  0  0  0  0  0  0  0  0  0
   -1.1015    0.9148   -2.9229 H   0  0  0  0  0  0  0  0  0  0  0  0
   -0.0262    1.8618   -0.0989 H   0  0  0  0  0  0  0  0  0  0  0  0
   -1.5762    1.0029   -0.9805 H   0  0  0  0  0  0  0  0  0  0  0  0
    1.8433    1.6094   -3.2856 H   0  0  0  0  0  0  0  0  0  0  0  0
    3.1980    0.6666   -4.4779 H   0  0  0  0  0  0  0  0  0  0  0  0
   -1.4098    2.9353   -6.2050 H   0  0  0  0  0  0  0  0  0  0  0  0
    2.3914    0.8316   -9.2576 H   0  0  0  0  0  0  0  0  0  0  0  0
   -2.6610    3.5248   -0.1487 H   0  0  0  0  0  0  0  0  0  0  0  0
   -1.4786    4.8059   -0.4816 H   0  0  0  0  0  0  0  0  0  0  0  0
   -3.3767    1.7915    1.2113 H   0  0  0  0  0  0  0  0  0  0  0  0
   -5.2279    1.0340    2.4709 H   0  0  0  0  0  0  0  0  0  0  0  0
   -7.6839    1.0876    2.4393 H   0  0  0  0  0  0  0  0  0  0  0  0
   -8.8558    3.2407    2.0675 H   0  0  0  0  0  0  0  0  0  0  0  0
   -5.1605    5.3400    2.7208 H   0  0  0  0  0  0  0  0  0  0  0  0
   -8.5886    5.4995    1.8796 H   0  0  0  0  0  0  0  0  0  0  0  0
    0.1390    0.9382    1.4030 H   0  0  0  0  0  0  0  0  0  0  0  0
   -1.5594    0.8641    0.6474 H   0  0  0  0  0  0  0  0  0  0  0  0
    0.4639   -1.3550    1.1688 H   0  0  0  0  0  0  0  0  0  0  0  0
   -0.4591   -3.6116    1.1951 H   0  0  0  0  0  0  0  0  0  0  0  0
   -2.5964   -3.9676    2.4383 H   0  0  0  0  0  0  0  0  0  0  0  0
   -3.8696   -1.9898    3.3183 H   0  0  0  0  0  0  0  0  0  0  0  0
   -3.2523    0.2043    2.6192 H   0  0  0  0  0  0  0  0  0  0  0  0
   -1.2175    4.4936    2.9119 H   0  0  0  0  0  0  0  0  0  0  0  0
    1.0346   -1.2602   -2.1506 H   0  0  0  0  0  0  0  0  0  0  0  0
   -0.5820   -1.1983   -1.4130 H   0  0  0  0  0  0  0  0  0  0  0  0
    0.9545   -0.9804   -0.4751 H   0  0  0  0  0  0  0  0  0  0  0  0
  1  2  1  0  0  0  0
  1 43  1  0  0  0  0
  1 44  1  0  0  0  0
  1 45  1  0  0  0  0
  2  3  1  0  0  0  0
  2 46  1  0  0  0  0
  2 47  1  0  0  0  0
  3  4  1  1  0  0  0
  3  5  1  0  0  0  0
  3 42  1  0  0  0  0
  5  6  1  0  0  0  0
  5 48  1  0  0  0  0
  5 49  1  0  0  0  0
  6  7  1  0  0  0  0
  6 19  1  0  0  0  0
  7  8  2  0  0  0  0
  7  9  2  0  0  0  0
  7 10  1  0  0  0  0
 10 11  2  0  0  0  0
 10 15  1  0  0  0  0
 11 12  1  0  0  0  0
 11 50  1  0  0  0  0
 12 13  2  0  0  0  0
 12 51  1  0  0  0  0
 13 14  1  0  0  0  0
 13 18  1  0  0  0  0
 14 15  2  0  0  0  0
 14 16  1  0  0  0  0
 15 52  1  0  0  0  0
 16 17  1  0  0  0  0
 17 18  2  0  0  0  0
 17 53  1  0  0  0  0
 19 54  1  0  0  0  0
 19 55  1  0  0  0  0
 20 22  1  0  0  0  0
 20 41  1  0  0  0  0
 20 21  1  6  0  0  0
 20 19  1  0  0  0  0
 22 23  1  1  0  0  0
 22 24  1  0  0  0  0
 22 34  1  0  0  0  0
 24 25  1  0  0  0  0
 24 56  1  0  0  0  0
 25 26  2  0  0  0  0
 25 27  1  0  0  0  0
 27 28  2  0  0  0  0
 27 32  1  0  0  0  0
 28 29  1  0  0  0  0
 28 57  1  0  0  0  0
 29 30  2  0  0  0  0
 29 58  1  0  0  0  0
 30 31  1  0  0  0  0
 30 59  1  0  0  0  0
 31 32  2  0  0  0  0
 31 33  1  0  0  0  0
 32 60  1  0  0  0  0
 33 61  1  0  0  0  0
 34 35  1  0  0  0  0
 34 62  1  0  0  0  0
 34 63  1  0  0  0  0
 35 36  2  0  0  0  0
 35 40  1  0  0  0  0
 36 37  1  0  0  0  0
 36 64  1  0  0  0  0
 37 38  2  0  0  0  0
 37 65  1  0  0  0  0
 38 39  1  0  0  0  0
 38 66  1  0  0  0  0
 39 40  2  0  0  0  0
 39 67  1  0  0  0  0
 40 68  1  0  0  0  0
 41 69  1  0  0  0  0
 42 70  1  0  0  0  0
 42 71  1  0  0  0  0
 42 72  1  0  0  0  0
M  END
$$$$
