MZL
 OpenBabel04121316163D

 47 50  0  0  0  0  0  0  0  0999 V2000
    0.9515   -0.0765    0.0285 C   0  0  0  0  0  0  0  0  0  0  0  0
    2.4754    0.0141   -0.0362 C   0  0  0  0  0  0  0  0  0  0  0  0
    2.9202    1.1443    0.8384 C   0  0  0  0  0  0  0  0  0  0  0  0
    2.6420    2.4691    0.6112 C   0  0  0  0  0  0  0  0  0  0  0  0
    3.1813    3.1646    1.7014 C   0  0  0  0  0  0  0  0  0  0  0  0
    3.8847    2.3604    2.5039 N   0  0  0  0  0  0  0  0  0  0  0  0
    3.6528    1.1116    2.0252 N   0  0  0  0  0  0  0  0  0  0  0  0
    4.1289   -0.0183    2.7251 C   0  0  0  0  0  0  0  0  0  0  0  0
    5.2554    0.0151    3.5589 C   0  0  0  0  0  0  0  0  0  0  0  0
    5.8037   -1.1968    4.0257 C   0  0  0  0  0  0  0  0  0  0  0  0
    5.1532   -2.4062    3.7535 C   0  0  0  0  0  0  0  0  0  0  0  0
    3.9345   -2.3670    3.0947 C   0  0  0  0  0  0  0  0  0  0  0  0
    3.4410   -1.2034    2.5704 C   0  0  0  0  0  0  0  0  0  0  0  0
    5.7049   -3.6440    4.1437 N   0  0  0  0  0  0  0  0  0  0  0  0
    5.1093   -4.8645    3.8557 C   0  0  0  0  0  0  0  0  0  0  0  0
    4.0584   -5.0419    3.2303 O   0  0  0  0  0  0  0  0  0  0  0  0
    5.7525   -6.1002    4.2919 C   0  0  0  0  0  0  0  0  0  0  0  0
    7.0530   -6.1885    4.7682 C   0  0  0  0  0  0  0  0  0  0  0  0
    7.5551   -7.4470    5.0764 C   0  0  0  0  0  0  0  0  0  0  0  0
    6.7740   -8.5640    4.8101 C   0  0  0  0  0  0  0  0  0  0  0  0
    5.5011   -8.5081    4.3761 N   0  0  0  0  0  0  0  0  0  0  0  0
    5.0065   -7.2732    4.1600 C   0  0  0  0  0  0  0  0  0  0  0  0
    3.0428    4.5821    1.9094 C   0  0  0  0  0  0  0  0  0  0  0  0
    1.7784    5.1733    1.9646 C   0  0  0  0  0  0  0  0  0  0  0  0
    1.6832    6.5561    2.0396 C   0  0  0  0  0  0  0  0  0  0  0  0
    2.8538    7.2936    1.9561 C   0  0  0  0  0  0  0  0  0  0  0  0
    4.0918    6.7508    1.9239 N   0  0  0  0  0  0  0  0  0  0  0  0
    4.1591    5.4000    1.9459 C   0  0  0  0  0  0  0  0  0  0  0  0
    0.5803   -0.9225   -0.5532 H   0  0  0  0  0  0  0  0  0  0  0  0
    0.4986    0.8373   -0.3741 H   0  0  0  0  0  0  0  0  0  0  0  0
    0.5985   -0.1811    1.0619 H   0  0  0  0  0  0  0  0  0  0  0  0
    2.7865    0.2157   -1.0675 H   0  0  0  0  0  0  0  0  0  0  0  0
    2.9290   -0.9534    0.1826 H   0  0  0  0  0  0  0  0  0  0  0  0
    2.0829    2.8633   -0.2257 H   0  0  0  0  0  0  0  0  0  0  0  0
    5.7339    0.9587    3.8148 H   0  0  0  0  0  0  0  0  0  0  0  0
    6.7342   -1.1724    4.5880 H   0  0  0  0  0  0  0  0  0  0  0  0
    3.2952   -3.2210    2.9369 H   0  0  0  0  0  0  0  0  0  0  0  0
    2.4845   -1.2829    2.0759 H   0  0  0  0  0  0  0  0  0  0  0  0
    6.5939   -3.6065    4.6223 H   0  0  0  0  0  0  0  0  0  0  0  0
    7.6887   -5.3202    4.8853 H   0  0  0  0  0  0  0  0  0  0  0  0
    8.5444   -7.5573    5.5021 H   0  0  0  0  0  0  0  0  0  0  0  0
    7.1649   -9.5668    4.9401 H   0  0  0  0  0  0  0  0  0  0  0  0
    3.9571   -7.2482    3.8653 H   0  0  0  0  0  0  0  0  0  0  0  0
    0.8769    4.5651    1.9472 H   0  0  0  0  0  0  0  0  0  0  0  0
    0.7222    7.0448    2.1474 H   0  0  0  0  0  0  0  0  0  0  0  0
    2.8258    8.3777    1.9106 H   0  0  0  0  0  0  0  0  0  0  0  0
    5.1594    4.9767    1.9691 H   0  0  0  0  0  0  0  0  0  0  0  0
  1  2  1  0  0  0  0
  1 29  1  0  0  0  0
  1 30  1  0  0  0  0
  1 31  1  0  0  0  0
  2  3  1  0  0  0  0
  2 32  1  0  0  0  0
  2 33  1  0  0  0  0
  3  4  2  0  0  0  0
  3  7  1  0  0  0  0
  4  5  1  0  0  0  0
  4 34  1  0  0  0  0
  5  6  2  0  0  0  0
  5 23  1  0  0  0  0
  6  7  1  0  0  0  0
  7  8  1  0  0  0  0
  8  9  2  0  0  0  0
  8 13  1  0  0  0  0
  9 10  1  0  0  0  0
  9 35  1  0  0  0  0
 10 11  2  0  0  0  0
 10 36  1  0  0  0  0
 11 12  1  0  0  0  0
 11 14  1  0  0  0  0
 12 13  2  0  0  0  0
 12 37  1  0  0  0  0
 13 38  1  0  0  0  0
 14 15  1  0  0  0  0
 14 39  1  0  0  0  0
 15 16  2  0  0  0  0
 15 17  1  0  0  0  0
 17 18  2  0  0  0  0
 17 22  1  0  0  0  0
 18 19  1  0  0  0  0
 18 40  1  0  0  0  0
 19 20  2  0  0  0  0
 19 41  1  0  0  0  0
 20 21  1  0  0  0  0
 20 42  1  0  0  0  0
 21 22  2  0  0  0  0
 22 43  1  0  0  0  0
 23 24  2  0  0  0  0
 23 28  1  0  0  0  0
 24 25  1  0  0  0  0
 24 44  1  0  0  0  0
 25 26  2  0  0  0  0
 25 45  1  0  0  0  0
 26 27  1  0  0  0  0
 26 46  1  0  0  0  0
 27 28  2  0  0  0  0
 28 47  1  0  0  0  0
M  END
$$$$
