MZO
 OpenBabel04121316163D

 29 31  0  0  0  0  0  0  0  0999 V2000
    1.0632    0.0004   -0.0034 C   0  0  0  0  0  0  0  0  0  0  0  0
    2.4875    0.1179    0.0847 O   0  0  0  0  0  0  0  0  0  0  0  0
    3.0765   -0.7910    0.9211 C   0  0  0  0  0  0  0  0  0  0  0  0
    4.1249   -0.3929    1.7275 C   0  0  0  0  0  0  0  0  0  0  0  0
    4.7379   -1.3270    2.5727 C   0  0  0  0  0  0  0  0  0  0  0  0
    4.3916   -2.6880    2.5155 C   0  0  0  0  0  0  0  0  0  0  0  0
    3.3822   -3.1171    1.6558 C   0  0  0  0  0  0  0  0  0  0  0  0
    2.7083   -2.1243    0.9359 C   0  0  0  0  0  0  0  0  0  0  0  0
    3.0195   -4.4735    1.5494 N   0  0  0  0  0  0  0  0  0  0  0  0
    2.0754   -5.0427    0.6673 C   0  0  0  0  0  0  0  0  0  0  0  0
    1.1634   -4.2617    0.0162 N   0  0  0  0  0  0  0  0  0  0  0  0
    0.2903   -4.7746   -0.8591 C   0  0  0  0  0  0  0  0  0  0  0  0
    0.1478   -6.0617   -1.1806 N   0  0  0  0  0  0  0  0  0  0  0  0
    1.0281   -6.8150   -0.5085 C   0  0  0  0  0  0  0  0  0  0  0  0
    2.0024   -6.4152    0.4000 C   0  0  0  0  0  0  0  0  0  0  0  0
    2.7163   -7.5019    0.8559 N   0  0  0  0  0  0  0  0  0  0  0  0
    2.1672   -8.5378    0.2499 C   0  0  0  0  0  0  0  0  0  0  0  0
    1.1485   -8.1639   -0.5781 N   0  0  0  0  0  0  0  0  0  0  0  0
    0.5646   -8.7631   -1.1502 H   0  0  0  0  0  0  0  0  0  0  0  0
    0.7093    0.7186   -0.7477 H   0  0  0  0  0  0  0  0  0  0  0  0
    0.6168    0.2480    0.9640 H   0  0  0  0  0  0  0  0  0  0  0  0
    0.7054   -0.9780   -0.3433 H   0  0  0  0  0  0  0  0  0  0  0  0
    4.4445    0.6433    1.7174 H   0  0  0  0  0  0  0  0  0  0  0  0
    5.4949   -0.9922    3.2761 H   0  0  0  0  0  0  0  0  0  0  0  0
    4.9268   -3.3977    3.1406 H   0  0  0  0  0  0  0  0  0  0  0  0
    1.8768   -2.3872    0.3167 H   0  0  0  0  0  0  0  0  0  0  0  0
    3.6674   -5.1554    1.9288 H   0  0  0  0  0  0  0  0  0  0  0  0
   -0.3563   -4.0515   -1.3457 H   0  0  0  0  0  0  0  0  0  0  0  0
    2.4612   -9.5688    0.3729 H   0  0  0  0  0  0  0  0  0  0  0  0
  1  2  1  0  0  0  0
  1 20  1  0  0  0  0
  1 21  1  0  0  0  0
  1 22  1  0  0  0  0
  2  3  1  0  0  0  0
  3  4  2  0  0  0  0
  3  8  1  0  0  0  0
  4  5  1  0  0  0  0
  4 23  1  0  0  0  0
  5  6  2  0  0  0  0
  5 24  1  0  0  0  0
  6  7  1  0  0  0  0
  6 25  1  0  0  0  0
  7  8  2  0  0  0  0
  7  9  1  0  0  0  0
  8 26  1  0  0  0  0
  9 10  1  0  0  0  0
  9 27  1  0  0  0  0
 10 11  2  0  0  0  0
 10 15  1  0  0  0  0
 11 12  1  0  0  0  0
 12 13  2  0  0  0  0
 12 28  1  0  0  0  0
 13 14  1  0  0  0  0
 14 15  2  0  0  0  0
 14 18  1  0  0  0  0
 15 16  1  0  0  0  0
 16 17  2  0  0  0  0
 17 18  1  0  0  0  0
 17 29  1  0  0  0  0
 18 19  1  0  0  0  0
M  END
$$$$
