N24
 OpenBabel04121316163D

 32 34  0  0  1  0  0  0  0  0999 V2000
    1.0355    0.0145    0.0578 Cl  0  0  0  0  0  0  0  0  0  0  0  0
    2.7569    0.0065   -0.0219 C   0  0  0  0  0  0  0  0  0  0  0  0
    3.4345    1.2189   -0.1146 C   0  0  0  0  0  0  0  0  0  0  0  0
    4.8211    1.2137   -0.2111 C   0  0  0  0  0  0  0  0  0  0  0  0
    5.4998   -0.0006   -0.3453 C   0  0  0  0  0  0  0  0  0  0  0  0
    4.8292   -1.2389   -0.3009 C   0  0  0  0  0  0  0  0  0  0  0  0
    3.4498   -1.2132   -0.0374 C   0  0  0  0  0  0  0  0  0  0  0  0
    5.4986   -2.4860   -0.5483 N   0  0  0  0  0  0  0  0  0  0  0  0
    6.4692   -2.6561   -1.5488 C   0  0  0  0  0  0  0  0  0  0  0  0
    7.1540   -1.8101   -2.1247 O   0  0  0  0  0  0  0  0  0  0  0  0
    6.4001   -4.0638   -2.0837 C   0  0  0  0  0  0  0  0  0  0  0  0
    5.7265   -5.0994   -0.7947 S   0  0  0  0  0  0  0  0  0  0  0  0
    5.2707   -3.6751    0.2729 C   0  0  1  0  0  0  0  0  0  0  0  0
    4.2145   -3.7961    0.5251 H   0  0  0  0  0  0  0  0  0  0  0  0
    6.1117   -3.6740    1.5589 C   0  0  0  0  0  0  0  0  0  0  0  0
    6.5301   -2.4730    2.1593 C   0  0  0  0  0  0  0  0  0  0  0  0
    7.3393   -2.4554    3.2933 C   0  0  0  0  0  0  0  0  0  0  0  0
    7.8374   -3.6460    3.8004 C   0  0  0  0  0  0  0  0  0  0  0  0
    7.4170   -4.8496    3.2476 C   0  0  0  0  0  0  0  0  0  0  0  0
    6.4982   -4.8688    2.1961 C   0  0  0  0  0  0  0  0  0  0  0  0
    8.1485   -6.4735    3.8812 Br  0  0  0  0  0  0  0  0  0  0  0  0
    6.8668    0.0321   -0.3471 O   0  0  0  0  0  0  0  0  0  0  0  0
    2.8953    2.1629   -0.0918 H   0  0  0  0  0  0  0  0  0  0  0  0
    5.3644    2.1527   -0.1571 H   0  0  0  0  0  0  0  0  0  0  0  0
    2.8761   -2.1255    0.0905 H   0  0  0  0  0  0  0  0  0  0  0  0
    7.3686   -4.4132   -2.4463 H   0  0  0  0  0  0  0  0  0  0  0  0
    5.6760   -4.0597   -2.9048 H   0  0  0  0  0  0  0  0  0  0  0  0
    6.2671   -1.5073    1.7451 H   0  0  0  0  0  0  0  0  0  0  0  0
    7.6024   -1.5037    3.7468 H   0  0  0  0  0  0  0  0  0  0  0  0
    8.5510   -3.6228    4.6172 H   0  0  0  0  0  0  0  0  0  0  0  0
    6.1315   -5.8306    1.8435 H   0  0  0  0  0  0  0  0  0  0  0  0
    7.1735    0.8670   -0.7357 H   0  0  0  0  0  0  0  0  0  0  0  0
  1  2  1  0  0  0  0
  2  3  2  0  0  0  0
  2  7  1  0  0  0  0
  3  4  1  0  0  0  0
  3 23  1  0  0  0  0
  4  5  2  0  0  0  0
  4 24  1  0  0  0  0
  5  6  1  0  0  0  0
  5 22  1  0  0  0  0
  6  7  2  0  0  0  0
  6  8  1  0  0  0  0
  7 25  1  0  0  0  0
  8  9  1  0  0  0  0
  8 13  1  0  0  0  0
  9 10  2  0  0  0  0
  9 11  1  0  0  0  0
 11 12  1  0  0  0  0
 11 26  1  0  0  0  0
 11 27  1  0  0  0  0
 12 13  1  0  0  0  0
 13 15  1  0  0  0  0
 13 14  1  1  0  0  0
 15 16  2  0  0  0  0
 15 20  1  0  0  0  0
 16 17  1  0  0  0  0
 16 28  1  0  0  0  0
 17 18  2  0  0  0  0
 17 29  1  0  0  0  0
 18 19  1  0  0  0  0
 18 30  1  0  0  0  0
 19 20  2  0  0  0  0
 19 21  1  0  0  0  0
 20 31  1  0  0  0  0
 22 32  1  0  0  0  0
M  END
$$$$
