N2A
 OpenBabel04121316163D

 79 84  0  0  0  0  0  0  0  0999 V2000
    0.8905   -0.0170    0.0448 F   0  0  0  0  0  0  0  0  0  0  0  0
    2.2252    0.0061   -0.0305 C   0  0  0  0  0  0  0  0  0  0  0  0
    2.8986    1.2232   -0.0376 C   0  0  0  0  0  0  0  0  0  0  0  0
    4.2751    1.2578   -0.2530 C   0  0  0  0  0  0  0  0  0  0  0  0
    4.9933    0.0704   -0.3450 C   0  0  0  0  0  0  0  0  0  0  0  0
    4.3046   -1.1437   -0.1771 C   0  0  0  0  0  0  0  0  0  0  0  0
    2.9176   -1.1859   -0.0956 C   0  0  0  0  0  0  0  0  0  0  0  0
    6.4519    0.1834   -0.6521 C   0  0  0  0  0  0  0  0  0  0  0  0
    6.9955    1.2672   -0.8342 O   0  0  0  0  0  0  0  0  0  0  0  0
    7.1172   -0.9932   -0.7468 N   0  0  0  0  0  0  0  0  0  0  0  0
    8.5077   -1.1089   -1.0276 C   0  0  0  0  0  0  0  0  0  0  0  0
    8.9708   -2.5409   -1.0209 C   0  0  0  0  0  0  0  0  0  0  0  0
   10.3029   -2.7257   -1.4312 C   0  0  0  0  0  0  0  0  0  0  0  0
   10.7977   -3.9940   -1.7195 C   0  0  0  0  0  0  0  0  0  0  0  0
    9.9589   -5.0843   -1.4042 C   0  0  0  0  0  0  0  0  0  0  0  0
    8.7280   -4.9391   -0.8170 C   0  0  0  0  0  0  0  0  0  0  0  0
    8.2048   -3.6792   -0.6968 C   0  0  0  0  0  0  0  0  0  0  0  0
    6.5679   -3.7448   -0.1968 Cl  0  0  0  0  0  0  0  0  0  0  0  0
   12.1327   -4.1689   -2.3599 C   0  0  0  0  0  0  0  0  0  0  0  0
   12.9498   -3.1902   -2.7778 C   0  0  0  0  0  0  0  0  0  0  0  0
   14.1628   -3.3479   -3.3952 N   0  0  0  0  0  0  0  0  0  0  0  0
   14.5672   -4.5546   -3.5880 C   0  0  0  0  0  0  0  0  0  0  0  0
   13.8978   -5.6719   -3.1956 N   0  0  0  0  0  0  0  0  0  0  0  0
   12.6909   -5.5239   -2.5396 C   0  0  0  0  0  0  0  0  0  0  0  0
   12.0713   -6.4401   -2.0207 O   0  0  0  0  0  0  0  0  0  0  0  0
   14.5491   -6.9805   -3.4265 C   0  0  0  0  0  0  0  0  0  0  0  0
   13.8866   -8.1072   -2.6925 C   0  0  0  0  0  0  0  0  0  0  0  0
   14.0328   -9.5254   -3.1996 C   0  0  0  0  0  0  0  0  0  0  0  0
   12.8071  -10.3282   -2.9625 N   0  0  0  0  0  0  0  0  0  0  0  0
   11.5799   -9.5037   -2.8271 C   0  0  0  0  0  0  0  0  0  0  0  0
   11.3884   -8.6657   -4.1277 C   0  0  0  0  0  0  0  0  0  0  0  0
   11.0778   -9.5399   -5.3047 C   0  0  0  0  0  0  0  0  0  0  0  0
   12.2329  -10.5482   -5.4295 C   0  0  0  0  0  0  0  0  0  0  0  0
   12.5451  -11.2581   -4.0646 C   0  0  0  0  0  0  0  0  0  0  0  0
    9.7655  -10.0610   -5.1314 N   0  0  0  0  0  0  0  0  0  0  0  0
    8.6761   -9.2100   -4.7785 C   0  0  0  0  0  0  0  0  0  0  0  0
    8.6418   -8.0078   -4.7524 O   0  0  0  0  0  0  0  0  0  0  0  0
    7.6400  -10.0876   -4.4218 N   0  0  0  0  0  0  0  0  0  0  0  0
    8.0790  -11.4103   -4.5410 C   0  0  0  0  0  0  0  0  0  0  0  0
    9.3931  -11.3972   -4.9802 C   0  0  0  0  0  0  0  0  0  0  0  0
   10.0989  -12.5721   -5.1745 C   0  0  0  0  0  0  0  0  0  0  0  0
    9.5154  -13.7715   -4.8429 C   0  0  0  0  0  0  0  0  0  0  0  0
   10.4789  -15.1951   -4.9191 Cl  0  0  0  0  0  0  0  0  0  0  0  0
    8.1803  -13.7961   -4.4562 C   0  0  0  0  0  0  0  0  0  0  0  0
    7.4410  -12.6059   -4.3153 C   0  0  0  0  0  0  0  0  0  0  0  0
    6.3274   -9.6355   -4.1107 C   0  0  0  0  0  0  0  0  0  0  0  0
    2.3494    2.1447    0.1052 H   0  0  0  0  0  0  0  0  0  0  0  0
    4.7923    2.2088   -0.3532 H   0  0  0  0  0  0  0  0  0  0  0  0
    4.7929   -2.0957   -0.1037 H   0  0  0  0  0  0  0  0  0  0  0  0
    2.3943   -2.1374   -0.0749 H   0  0  0  0  0  0  0  0  0  0  0  0
    6.6137   -1.8559   -0.6458 H   0  0  0  0  0  0  0  0  0  0  0  0
    9.0695   -0.5229   -0.2924 H   0  0  0  0  0  0  0  0  0  0  0  0
    8.6814   -0.6680   -2.0201 H   0  0  0  0  0  0  0  0  0  0  0  0
   10.9260   -1.8446   -1.5663 H   0  0  0  0  0  0  0  0  0  0  0  0
   10.1755   -6.1258   -1.6024 H   0  0  0  0  0  0  0  0  0  0  0  0
    8.1612   -5.8218   -0.5321 H   0  0  0  0  0  0  0  0  0  0  0  0
   12.6798   -2.1492   -2.6504 H   0  0  0  0  0  0  0  0  0  0  0  0
   15.5226   -4.7599   -4.0939 H   0  0  0  0  0  0  0  0  0  0  0  0
   15.5888   -6.9363   -3.1146 H   0  0  0  0  0  0  0  0  0  0  0  0
   14.5128   -7.1472   -4.5148 H   0  0  0  0  0  0  0  0  0  0  0  0
   12.9087   -7.8430   -2.9720 H   0  0  0  0  0  0  0  0  0  0  0  0
   13.8442   -8.0253   -1.6050 H   0  0  0  0  0  0  0  0  0  0  0  0
   14.8841   -9.9836   -2.6981 H   0  0  0  0  0  0  0  0  0  0  0  0
   14.2781   -9.4956   -4.2628 H   0  0  0  0  0  0  0  0  0  0  0  0
   11.6562   -8.8973   -1.9144 H   0  0  0  0  0  0  0  0  0  0  0  0
   10.6929  -10.1133   -2.5977 H   0  0  0  0  0  0  0  0  0  0  0  0
   12.2796   -8.1765   -4.5338 H   0  0  0  0  0  0  0  0  0  0  0  0
   10.7189   -7.8305   -3.9244 H   0  0  0  0  0  0  0  0  0  0  0  0
   11.0503   -8.8983   -6.1956 H   0  0  0  0  0  0  0  0  0  0  0  0
   13.1335  -10.0350   -5.7809 H   0  0  0  0  0  0  0  0  0  0  0  0
   12.0298  -11.2237   -6.2631 H   0  0  0  0  0  0  0  0  0  0  0  0
   13.3273  -12.0127   -4.1856 H   0  0  0  0  0  0  0  0  0  0  0  0
   11.6989  -11.8309   -3.6760 H   0  0  0  0  0  0  0  0  0  0  0  0
   11.1159  -12.6397   -5.5169 H   0  0  0  0  0  0  0  0  0  0  0  0
    7.7152  -14.7571   -4.2799 H   0  0  0  0  0  0  0  0  0  0  0  0
    6.3992  -12.6341   -4.0361 H   0  0  0  0  0  0  0  0  0  0  0  0
    6.2919   -8.5401   -4.1079 H   0  0  0  0  0  0  0  0  0  0  0  0
    6.0340  -10.0066   -3.1280 H   0  0  0  0  0  0  0  0  0  0  0  0
    5.6620  -10.0027   -4.8929 H   0  0  0  0  0  0  0  0  0  0  0  0
  1  2  1  0  0  0  0
  2  3  2  0  0  0  0
  2  7  1  0  0  0  0
  3  4  1  0  0  0  0
  3 47  1  0  0  0  0
  4  5  2  0  0  0  0
  4 48  1  0  0  0  0
  5  6  1  0  0  0  0
  5  8  1  0  0  0  0
  6  7  2  0  0  0  0
  6 49  1  0  0  0  0
  7 50  1  0  0  0  0
  8  9  2  0  0  0  0
  8 10  1  0  0  0  0
 10 11  1  0  0  0  0
 10 51  1  0  0  0  0
 11 12  1  0  0  0  0
 11 52  1  0  0  0  0
 11 53  1  0  0  0  0
 12 13  2  0  0  0  0
 12 17  1  0  0  0  0
 13 14  1  0  0  0  0
 13 54  1  0  0  0  0
 14 15  2  0  0  0  0
 14 19  1  0  0  0  0
 15 16  1  0  0  0  0
 15 55  1  0  0  0  0
 16 17  2  0  0  0  0
 16 56  1  0  0  0  0
 17 18  1  0  0  0  0
 19 20  2  0  0  0  0
 19 24  1  0  0  0  0
 20 21  1  0  0  0  0
 20 57  1  0  0  0  0
 21 22  2  0  0  0  0
 22 23  1  0  0  0  0
 22 58  1  0  0  0  0
 23 24  1  0  0  0  0
 23 26  1  0  0  0  0
 24 25  2  0  0  0  0
 26 27  1  0  0  0  0
 26 59  1  0  0  0  0
 26 60  1  0  0  0  0
 27 28  1  0  0  0  0
 27 61  1  0  0  0  0
 27 62  1  0  0  0  0
 28 29  1  0  0  0  0
 28 63  1  0  0  0  0
 28 64  1  0  0  0  0
 29 30  1  0  0  0  0
 29 34  1  0  0  0  0
 30 31  1  0  0  0  0
 30 65  1  0  0  0  0
 30 66  1  0  0  0  0
 31 32  1  0  0  0  0
 31 67  1  0  0  0  0
 31 68  1  0  0  0  0
 32 33  1  0  0  0  0
 32 35  1  0  0  0  0
 32 69  1  0  0  0  0
 33 34  1  0  0  0  0
 33 70  1  0  0  0  0
 33 71  1  0  0  0  0
 34 72  1  0  0  0  0
 34 73  1  0  0  0  0
 35 36  1  0  0  0  0
 35 40  1  0  0  0  0
 36 37  2  0  0  0  0
 36 38  1  0  0  0  0
 38 39  1  0  0  0  0
 38 46  1  0  0  0  0
 39 40  2  0  0  0  0
 39 45  1  0  0  0  0
 40 41  1  0  0  0  0
 41 42  2  0  0  0  0
 41 74  1  0  0  0  0
 42 43  1  0  0  0  0
 42 44  1  0  0  0  0
 44 45  2  0  0  0  0
 44 75  1  0  0  0  0
 45 76  1  0  0  0  0
 46 77  1  0  0  0  0
 46 78  1  0  0  0  0
 46 79  1  0  0  0  0
M  END
$$$$
