N2P
 OpenBabel04121316163D

 21 20  0  0  0  0  0  0  0  0999 V2000
    1.0642    0.0306   -0.0653 N   0  0  0  0  0  0  0  0  0  0  0  0
    2.5211    0.0347   -0.0583 C   0  0  0  0  0  0  0  0  0  0  0  0
    3.0465   -1.2563    0.5636 C   0  0  0  0  0  0  0  0  0  0  0  0
    4.5748   -1.2758    0.5733 C   0  0  0  0  0  0  0  0  0  0  0  0
    5.1047   -2.5686    1.1928 C   0  0  0  0  0  0  0  0  0  0  0  0
    6.6309   -2.5857    1.1981 C   0  0  0  0  0  0  0  0  0  0  0  0
    7.1159   -3.8280    1.7849 N   0  0  0  0  0  0  0  0  0  0  0  0
    0.7249    0.9146   -0.4427 H   0  0  0  0  0  0  0  0  0  0  0  0
    0.7164   -0.0264    0.8905 H   0  0  0  0  0  0  0  0  0  0  0  0
    2.8809    0.9013    0.5074 H   0  0  0  0  0  0  0  0  0  0  0  0
    2.8853    0.1326   -1.0865 H   0  0  0  0  0  0  0  0  0  0  0  0
    2.6733   -2.1206   -0.0004 H   0  0  0  0  0  0  0  0  0  0  0  0
    2.6737   -1.3558    1.5909 H   0  0  0  0  0  0  0  0  0  0  0  0
    4.9506   -0.4148    1.1396 H   0  0  0  0  0  0  0  0  0  0  0  0
    4.9509   -1.1777   -0.4524 H   0  0  0  0  0  0  0  0  0  0  0  0
    4.7243   -3.4283    0.6266 H   0  0  0  0  0  0  0  0  0  0  0  0
    4.7256   -2.6642    2.2183 H   0  0  0  0  0  0  0  0  0  0  0  0
    7.0171   -1.7360    1.7719 H   0  0  0  0  0  0  0  0  0  0  0  0
    7.0118   -2.4985    0.1750 H   0  0  0  0  0  0  0  0  0  0  0  0
    6.7937   -3.9014    2.7484 H   0  0  0  0  0  0  0  0  0  0  0  0
    8.1343   -3.8097    1.8225 H   0  0  0  0  0  0  0  0  0  0  0  0
  1  2  1  0  0  0  0
  1  8  1  0  0  0  0
  1  9  1  0  0  0  0
  2  3  1  0  0  0  0
  2 10  1  0  0  0  0
  2 11  1  0  0  0  0
  3  4  1  0  0  0  0
  3 12  1  0  0  0  0
  3 13  1  0  0  0  0
  4  5  1  0  0  0  0
  4 14  1  0  0  0  0
  4 15  1  0  0  0  0
  5  6  1  0  0  0  0
  5 16  1  0  0  0  0
  5 17  1  0  0  0  0
  6  7  1  0  0  0  0
  6 18  1  0  0  0  0
  6 19  1  0  0  0  0
  7 20  1  0  0  0  0
  7 21  1  0  0  0  0
M  END
$$$$
