N34
 OpenBabel04121316163D

 63 66  0  0  1  0  0  0  0  0999 V2000
    0.7780    0.0302    0.0899 O   0  0  0  0  0  0  0  0  0  0  0  0
    2.1626    0.0915    0.1817 C   0  0  0  0  0  0  0  0  0  0  0  0
    2.8720    1.2325    0.1386 C   0  0  0  0  0  0  0  0  0  0  0  0
    2.1705    2.5200   -0.0318 C   0  0  0  0  0  0  0  0  0  0  0  0
    0.8792    2.5319   -0.0727 N   0  0  0  0  0  0  0  0  0  0  0  0
    0.1385    3.6967   -0.0952 C   0  0  0  0  0  0  0  0  0  0  0  0
   -1.2444    3.5541   -0.0751 C   0  0  0  0  0  0  0  0  0  0  0  0
   -2.0531    4.6830   -0.0600 C   0  0  0  0  0  0  0  0  0  0  0  0
   -1.4976    5.9685   -0.0591 C   0  0  0  0  0  0  0  0  0  0  0  0
   -0.1200    6.1122   -0.0636 C   0  0  0  0  0  0  0  0  0  0  0  0
    0.6726    4.9719   -0.0807 C   0  0  0  0  0  0  0  0  0  0  0  0
    2.3917    5.1815   -0.1437 S   0  0  0  0  0  0  0  0  0  0  0  0
    2.7112    5.7779   -1.4110 O   0  0  0  0  0  0  0  0  0  0  0  0
    2.7936    5.7896    1.1159 O   0  0  0  0  0  0  0  0  0  0  0  0
    2.9722    3.6490   -0.1590 N   0  0  0  0  0  0  0  0  0  0  0  0
   -2.2851    7.1530   -0.0644 N   0  0  0  0  0  0  0  0  0  0  0  0
   -3.9489    7.0344   -0.0651 S   0  0  0  0  0  0  0  0  0  0  0  0
   -4.3431    6.4382   -1.3238 O   0  0  0  0  0  0  0  0  0  0  0  0
   -4.3425    6.4465    1.1981 O   0  0  0  0  0  0  0  0  0  0  0  0
   -4.4966    8.7168   -0.0704 C   0  0  0  0  0  0  0  0  0  0  0  0
    4.3252    1.1757    0.3557 C   0  0  0  0  0  0  0  0  0  0  0  0
    4.8309    2.1822    0.8547 O   0  0  0  0  0  0  0  0  0  0  0  0
    5.0080    0.0212   -0.0135 N   0  0  0  0  0  0  0  0  0  0  0  0
    4.2925   -1.1426   -0.4453 N   0  0  3  0  0  0  0  0  0  0  0  0
    2.8555   -1.1737   -0.1668 C   0  0  1  0  0  0  0  0  0  0  0  0
    2.4625   -1.1193   -1.1783 H   0  0  0  0  0  0  0  0  0  0  0  0
    2.3999   -2.6019    0.0653 C   0  0  0  0  0  0  0  0  0  0  0  0
    3.6676   -3.4308   -0.0301 C   0  0  0  0  0  0  0  0  0  0  0  0
    4.8435   -2.4588   -0.1148 C   0  0  0  0  0  0  0  0  0  0  0  0
    6.4829    0.0035   -0.0490 C   0  0  0  0  0  0  0  0  0  0  0  0
    7.1704    1.3869   -0.0857 C   0  0  0  0  0  0  0  0  0  0  0  0
    8.7060    1.3832   -0.0904 C   0  0  0  0  0  0  0  0  0  0  0  0
    9.2218    0.6828    1.1751 C   0  0  0  0  0  0  0  0  0  0  0  0
    9.2240    0.6856   -1.3470 C   0  0  0  0  0  0  0  0  0  0  0  0
    9.1960    2.8458   -0.0789 C   0  0  0  0  0  0  0  0  0  0  0  0
    0.4364    0.9459   -0.0440 H   0  0  0  0  0  0  0  0  0  0  0  0
   -1.7125    2.5706   -0.0710 H   0  0  0  0  0  0  0  0  0  0  0  0
   -3.1259    4.5160   -0.0540 H   0  0  0  0  0  0  0  0  0  0  0  0
    0.3641    7.0833   -0.0661 H   0  0  0  0  0  0  0  0  0  0  0  0
    3.9647    3.5847    0.0930 H   0  0  0  0  0  0  0  0  0  0  0  0
   -1.8215    8.0586   -0.0713 H   0  0  0  0  0  0  0  0  0  0  0  0
   -4.1434    9.2096   -0.9764 H   0  0  0  0  0  0  0  0  0  0  0  0
   -4.1409    9.2159    0.8311 H   0  0  0  0  0  0  0  0  0  0  0  0
   -5.5893    8.6830   -0.0688 H   0  0  0  0  0  0  0  0  0  0  0  0
    1.7787   -2.8895   -0.7973 H   0  0  0  0  0  0  0  0  0  0  0  0
    1.8116   -2.7991    0.9649 H   0  0  0  0  0  0  0  0  0  0  0  0
    3.6324   -4.0554   -0.9324 H   0  0  0  0  0  0  0  0  0  0  0  0
    3.7436   -4.0969    0.8342 H   0  0  0  0  0  0  0  0  0  0  0  0
    5.5157   -2.7664   -0.9251 H   0  0  0  0  0  0  0  0  0  0  0  0
    5.4092   -2.5025    0.8224 H   0  0  0  0  0  0  0  0  0  0  0  0
    6.7981   -0.5509    0.8384 H   0  0  0  0  0  0  0  0  0  0  0  0
    6.7878   -0.5668   -0.9346 H   0  0  0  0  0  0  0  0  0  0  0  0
    6.9081    1.9483    0.8149 H   0  0  0  0  0  0  0  0  0  0  0  0
    6.7925    1.9560   -0.9472 H   0  0  0  0  0  0  0  0  0  0  0  0
    8.9045   -0.3633    1.2160 H   0  0  0  0  0  0  0  0  0  0  0  0
    8.8433    1.1786    2.0781 H   0  0  0  0  0  0  0  0  0  0  0  0
   10.3140    0.6934    1.2158 H   0  0  0  0  0  0  0  0  0  0  0  0
    8.9064   -0.3603   -1.3847 H   0  0  0  0  0  0  0  0  0  0  0  0
   10.3167    0.6971   -1.3794 H   0  0  0  0  0  0  0  0  0  0  0  0
    8.8474    1.1834   -2.2482 H   0  0  0  0  0  0  0  0  0  0  0  0
    8.8375    3.3813    0.8091 H   0  0  0  0  0  0  0  0  0  0  0  0
    8.8375    3.3936   -0.9581 H   0  0  0  0  0  0  0  0  0  0  0  0
   10.2898    2.8929   -0.0750 H   0  0  0  0  0  0  0  0  0  0  0  0
  1  2  1  0  0  0  0
  1 36  1  0  0  0  0
  2  3  2  0  0  0  0
  2 25  1  0  0  0  0
  3 21  1  0  0  0  0
  3  4  1  0  0  0  0
  4  5  2  0  0  0  0
  4 15  1  0  0  0  0
  5  6  1  0  0  0  0
  6  7  2  0  0  0  0
  6 11  1  0  0  0  0
  7  8  1  0  0  0  0
  7 37  1  0  0  0  0
  8  9  2  0  0  0  0
  8 38  1  0  0  0  0
  9 10  1  0  0  0  0
  9 16  1  0  0  0  0
 10 11  2  0  0  0  0
 10 39  1  0  0  0  0
 11 12  1  0  0  0  0
 12 13  2  0  0  0  0
 12 14  2  0  0  0  0
 12 15  1  0  0  0  0
 15 40  1  0  0  0  0
 16 17  1  0  0  0  0
 16 41  1  0  0  0  0
 17 18  2  0  0  0  0
 17 19  2  0  0  0  0
 17 20  1  0  0  0  0
 20 42  1  0  0  0  0
 20 43  1  0  0  0  0
 20 44  1  0  0  0  0
 21 23  1  0  0  0  0
 21 22  2  0  0  0  0
 23 24  1  0  0  0  0
 23 30  1  0  0  0  0
 24 25  1  0  0  0  0
 24 29  1  0  0  0  0
 25 27  1  0  0  0  0
 25 26  1  6  0  0  0
 27 28  1  0  0  0  0
 27 45  1  0  0  0  0
 27 46  1  0  0  0  0
 28 29  1  0  0  0  0
 28 47  1  0  0  0  0
 28 48  1  0  0  0  0
 29 49  1  0  0  0  0
 29 50  1  0  0  0  0
 30 31  1  0  0  0  0
 30 51  1  0  0  0  0
 30 52  1  0  0  0  0
 31 32  1  0  0  0  0
 31 53  1  0  0  0  0
 31 54  1  0  0  0  0
 32 33  1  0  0  0  0
 32 34  1  0  0  0  0
 32 35  1  0  0  0  0
 33 55  1  0  0  0  0
 33 56  1  0  0  0  0
 33 57  1  0  0  0  0
 34 58  1  0  0  0  0
 34 59  1  0  0  0  0
 34 60  1  0  0  0  0
 35 61  1  0  0  0  0
 35 62  1  0  0  0  0
 35 63  1  0  0  0  0
M  END
$$$$
