N35
 OpenBabel04121316163D

 63 66  0  0  0  0  0  0  0  0999 V2000
    0.9148    0.0363    0.1389 C   0  0  0  0  0  0  0  0  0  0  0  0
    2.4429    0.0410    0.1118 C   0  0  0  0  0  0  0  0  0  0  0  0
    2.9700   -0.0431   -1.3176 C   0  0  0  0  0  0  0  0  0  0  0  0
    2.5116   -1.2952   -2.0274 C   0  0  0  0  0  0  0  0  0  0  0  0
    3.0277   -1.3807   -3.3799 N   0  0  0  0  0  0  0  0  0  0  0  0
    3.3168   -0.2157   -4.0724 N   0  0  0  0  0  0  0  0  0  0  0  0
    3.7024   -0.3032   -5.3160 C   0  0  0  0  0  0  0  0  0  0  0  0
    4.0497    0.8147   -6.0686 N   0  0  0  0  0  0  0  0  0  0  0  0
    4.8653    1.9094   -5.5706 C   0  0  0  0  0  0  0  0  0  0  0  0
    4.1321    3.1564   -6.0372 C   0  0  0  0  0  0  0  0  0  0  0  0
    3.4706    2.7444   -7.3435 C   0  0  0  0  0  0  0  0  0  0  0  0
    3.3559    1.2256   -7.2902 C   0  0  0  0  0  0  0  0  0  0  0  0
    3.8404   -1.6289   -5.9919 C   0  0  0  0  0  0  0  0  0  0  0  0
    3.5533   -2.7403   -5.3095 C   0  0  0  0  0  0  0  0  0  0  0  0
    3.0854   -2.6411   -3.9204 C   0  0  0  0  0  0  0  0  0  0  0  0
    2.7787   -3.6540   -3.2846 O   0  0  0  0  0  0  0  0  0  0  0  0
    3.7137   -4.0531   -5.9655 C   0  0  0  0  0  0  0  0  0  0  0  0
    3.9918   -4.1863   -7.2141 N   0  0  0  0  0  0  0  0  0  0  0  0
    4.0950   -5.4130   -7.8418 C   0  0  0  0  0  0  0  0  0  0  0  0
    4.4401   -5.4049   -9.1860 C   0  0  0  0  0  0  0  0  0  0  0  0
    4.5079   -6.6026   -9.8894 C   0  0  0  0  0  0  0  0  0  0  0  0
    4.2345   -7.8277   -9.2673 C   0  0  0  0  0  0  0  0  0  0  0  0
    3.8964   -7.8419   -7.9272 C   0  0  0  0  0  0  0  0  0  0  0  0
    3.8331   -6.6341   -7.2449 C   0  0  0  0  0  0  0  0  0  0  0  0
    3.3849   -6.6853   -5.5784 S   0  0  0  0  0  0  0  0  0  0  0  0
    1.9922   -7.0462   -5.5120 O   0  0  0  0  0  0  0  0  0  0  0  0
    4.4059   -7.4347   -4.8702 O   0  0  0  0  0  0  0  0  0  0  0  0
    3.5268   -5.1329   -5.1101 N   0  0  0  0  0  0  0  0  0  0  0  0
    4.2798   -9.0747   -9.9517 N   0  0  0  0  0  0  0  0  0  0  0  0
    4.6836   -9.1058  -11.5693 S   0  0  0  0  0  0  0  0  0  0  0  0
    3.6253   -8.4368  -12.2961 O   0  0  0  0  0  0  0  0  0  0  0  0
    6.0604   -8.6727  -11.6832 O   0  0  0  0  0  0  0  0  0  0  0  0
    4.6245  -10.8222  -11.9943 C   0  0  0  0  0  0  0  0  0  0  0  0
    4.3318   -1.6376   -7.2827 O   0  0  0  0  0  0  0  0  0  0  0  0
    2.9744    1.3236    0.7411 C   0  0  0  0  0  0  0  0  0  0  0  0
    0.5039   -0.8959   -0.2608 H   0  0  0  0  0  0  0  0  0  0  0  0
    0.5156    0.8628   -0.4593 H   0  0  0  0  0  0  0  0  0  0  0  0
    0.5434    0.1342    1.1617 H   0  0  0  0  0  0  0  0  0  0  0  0
    2.8127   -0.8183    0.6863 H   0  0  0  0  0  0  0  0  0  0  0  0
    4.0681   -0.0273   -1.3150 H   0  0  0  0  0  0  0  0  0  0  0  0
    2.6384    0.8353   -1.8829 H   0  0  0  0  0  0  0  0  0  0  0  0
    1.4208   -1.3657   -2.1064 H   0  0  0  0  0  0  0  0  0  0  0  0
    2.8346   -2.1742   -1.4490 H   0  0  0  0  0  0  0  0  0  0  0  0
    5.8422    1.8442   -6.0660 H   0  0  0  0  0  0  0  0  0  0  0  0
    5.0339    1.9001   -4.4897 H   0  0  0  0  0  0  0  0  0  0  0  0
    4.8075    4.0072   -6.1729 H   0  0  0  0  0  0  0  0  0  0  0  0
    3.3678    3.4417   -5.3070 H   0  0  0  0  0  0  0  0  0  0  0  0
    4.0872    3.0411   -8.2005 H   0  0  0  0  0  0  0  0  0  0  0  0
    2.4903    3.2133   -7.4710 H   0  0  0  0  0  0  0  0  0  0  0  0
    3.8734    0.8263   -8.1693 H   0  0  0  0  0  0  0  0  0  0  0  0
    2.3181    0.8816   -7.3212 H   0  0  0  0  0  0  0  0  0  0  0  0
    4.6453   -4.4689   -9.7025 H   0  0  0  0  0  0  0  0  0  0  0  0
    4.7743   -6.5361  -10.9390 H   0  0  0  0  0  0  0  0  0  0  0  0
    3.6684   -8.7569   -7.3900 H   0  0  0  0  0  0  0  0  0  0  0  0
    3.1720   -4.9736   -4.1605 H   0  0  0  0  0  0  0  0  0  0  0  0
    4.0669   -9.9299   -9.4430 H   0  0  0  0  0  0  0  0  0  0  0  0
    3.6131  -11.1989  -11.8415 H   0  0  0  0  0  0  0  0  0  0  0  0
    5.3582  -11.3679  -11.4008 H   0  0  0  0  0  0  0  0  0  0  0  0
    4.8862  -10.8835  -13.0541 H   0  0  0  0  0  0  0  0  0  0  0  0
    4.6654   -0.7439   -7.4524 H   0  0  0  0  0  0  0  0  0  0  0  0
    2.6326    2.2002    0.1792 H   0  0  0  0  0  0  0  0  0  0  0  0
    4.0696    1.3310    0.7411 H   0  0  0  0  0  0  0  0  0  0  0  0
    2.6292    1.4198    1.7734 H   0  0  0  0  0  0  0  0  0  0  0  0
  1  2  1  0  0  0  0
  1 36  1  0  0  0  0
  1 37  1  0  0  0  0
  1 38  1  0  0  0  0
  2  3  1  0  0  0  0
  2 35  1  0  0  0  0
  2 39  1  0  0  0  0
  3  4  1  0  0  0  0
  3 40  1  0  0  0  0
  3 41  1  0  0  0  0
  4  5  1  0  0  0  0
  4 42  1  0  0  0  0
  4 43  1  0  0  0  0
  5  6  1  0  0  0  0
  5 15  1  0  0  0  0
  6  7  2  0  0  0  0
  7  8  1  0  0  0  0
  7 13  1  0  0  0  0
  8  9  1  0  0  0  0
  8 12  1  0  0  0  0
  9 10  1  0  0  0  0
  9 44  1  0  0  0  0
  9 45  1  0  0  0  0
 10 11  1  0  0  0  0
 10 46  1  0  0  0  0
 10 47  1  0  0  0  0
 11 12  1  0  0  0  0
 11 48  1  0  0  0  0
 11 49  1  0  0  0  0
 12 50  1  0  0  0  0
 12 51  1  0  0  0  0
 13 14  2  0  0  0  0
 13 34  1  0  0  0  0
 14 15  1  0  0  0  0
 14 17  1  0  0  0  0
 15 16  2  0  0  0  0
 17 18  2  0  0  0  0
 17 28  1  0  0  0  0
 18 19  1  0  0  0  0
 19 20  2  0  0  0  0
 19 24  1  0  0  0  0
 20 21  1  0  0  0  0
 20 52  1  0  0  0  0
 21 22  2  0  0  0  0
 21 53  1  0  0  0  0
 22 23  1  0  0  0  0
 22 29  1  0  0  0  0
 23 24  2  0  0  0  0
 23 54  1  0  0  0  0
 24 25  1  0  0  0  0
 25 26  2  0  0  0  0
 25 27  2  0  0  0  0
 25 28  1  0  0  0  0
 28 55  1  0  0  0  0
 29 30  1  0  0  0  0
 29 56  1  0  0  0  0
 30 31  2  0  0  0  0
 30 32  2  0  0  0  0
 30 33  1  0  0  0  0
 33 57  1  0  0  0  0
 33 58  1  0  0  0  0
 33 59  1  0  0  0  0
 34 60  1  0  0  0  0
 35 61  1  0  0  0  0
 35 62  1  0  0  0  0
 35 63  1  0  0  0  0
M  END
$$$$
