N3D
 OpenBabel04121316163D

 18 17  0  0  0  0  0  0  0  0999 V2000
    1.0511   -0.0461    0.0796 C   0  0  0  0  0  0  0  0  0  0  0  0
    2.5076   -0.0401    0.0640 N   0  0  0  0  0  0  0  0  0  0  0  0
    3.0099   -0.2037   -1.3004 C   0  0  0  0  0  0  0  0  0  0  0  0
    4.5390   -0.2036   -1.3042 C   0  0  0  0  0  0  0  0  0  0  0  0
    5.0669   -0.3680   -2.7283 C   0  0  0  0  0  0  0  0  0  0  0  0
    6.5249   -0.3817   -2.7340 N   0  0  0  0  0  0  0  0  0  0  0  0
    0.6943    0.0765    1.1065 H   0  0  0  0  0  0  0  0  0  0  0  0
    0.6503   -0.9885   -0.3080 H   0  0  0  0  0  0  0  0  0  0  0  0
    0.6491    0.7834   -0.5112 H   0  0  0  0  0  0  0  0  0  0  0  0
    2.8559   -0.8008    0.6480 H   0  0  0  0  0  0  0  0  0  0  0  0
    2.6474    0.6181   -1.9296 H   0  0  0  0  0  0  0  0  0  0  0  0
    2.6436   -1.1452   -1.7272 H   0  0  0  0  0  0  0  0  0  0  0  0
    4.9138   -1.0198   -0.6729 H   0  0  0  0  0  0  0  0  0  0  0  0
    4.9111    0.7357   -0.8745 H   0  0  0  0  0  0  0  0  0  0  0  0
    4.7087    0.4510   -3.3621 H   0  0  0  0  0  0  0  0  0  0  0  0
    4.7004   -1.3061   -3.1588 H   0  0  0  0  0  0  0  0  0  0  0  0
    6.8754    0.5018   -2.3658 H   0  0  0  0  0  0  0  0  0  0  0  0
    6.8600   -0.4440   -3.6948 H   0  0  0  0  0  0  0  0  0  0  0  0
  1  2  1  0  0  0  0
  1  7  1  0  0  0  0
  1  8  1  0  0  0  0
  1  9  1  0  0  0  0
  2  3  1  0  0  0  0
  2 10  1  0  0  0  0
  3  4  1  0  0  0  0
  3 11  1  0  0  0  0
  3 12  1  0  0  0  0
  4  5  1  0  0  0  0
  4 13  1  0  0  0  0
  4 14  1  0  0  0  0
  5  6  1  0  0  0  0
  5 15  1  0  0  0  0
  5 16  1  0  0  0  0
  6 17  1  0  0  0  0
  6 18  1  0  0  0  0
M  END
$$$$
