N41
 OpenBabel04121316163D

 49 52  0  0  0  0  0  0  0  0999 V2000
    1.1102    0.0527    0.1118 N   0  0  0  0  0  0  0  0  0  0  0  0
    2.4715    0.0090    0.1499 C   0  0  0  0  0  0  0  0  0  0  0  0
    3.1028   -0.6972    0.9276 O   0  0  0  0  0  0  0  0  0  0  0  0
    3.1354    0.8251   -0.8707 C   0  0  0  0  0  0  0  0  0  0  0  0
    3.0383    2.2199   -0.8562 C   0  0  0  0  0  0  0  0  0  0  0  0
    3.4591    2.9612   -1.9716 C   0  0  0  0  0  0  0  0  0  0  0  0
    4.0930    2.3206   -3.0409 C   0  0  0  0  0  0  0  0  0  0  0  0
    4.3578    0.9446   -2.8972 C   0  0  0  0  0  0  0  0  0  0  0  0
    3.8098    0.1765   -1.8852 C   0  0  0  0  0  0  0  0  0  0  0  0
    4.4513    3.0052   -4.2180 N   0  0  0  0  0  0  0  0  0  0  0  0
    4.8869    2.4346   -5.4263 C   0  0  0  0  0  0  0  0  0  0  0  0
    5.5562    3.2066   -6.3090 N   0  0  0  0  0  0  0  0  0  0  0  0
    6.1014    2.6049   -7.4110 C   0  0  0  0  0  0  0  0  0  0  0  0
    6.8498    3.3011   -8.3224 O   0  0  0  0  0  0  0  0  0  0  0  0
    6.9445    4.6936   -8.0923 C   0  0  0  0  0  0  0  0  0  0  0  0
    7.6832    5.2933   -9.3050 C   0  0  0  0  0  0  0  0  0  0  0  0
    7.0076    4.9190  -10.6400 C   0  0  0  0  0  0  0  0  0  0  0  0
    5.6262    5.5555  -10.7559 C   0  0  0  0  0  0  0  0  0  0  0  0
    5.7238    7.0724  -10.6196 C   0  0  0  0  0  0  0  0  0  0  0  0
    6.4074    7.4811   -9.3151 C   0  0  0  0  0  0  0  0  0  0  0  0
    7.7796    6.8178   -9.1795 C   0  0  0  0  0  0  0  0  0  0  0  0
    5.9478    1.2382   -7.6203 C   0  0  0  0  0  0  0  0  0  0  0  0
    5.2191    0.5853   -6.6631 C   0  0  0  0  0  0  0  0  0  0  0  0
    4.6441    1.1227   -5.5994 N   0  0  0  0  0  0  0  0  0  0  0  0
    5.2230   -0.7288   -7.0169 N   0  0  0  0  0  0  0  0  0  0  0  0
    4.7992   -1.4804   -6.4933 H   0  0  0  0  0  0  0  0  0  0  0  0
    5.8927   -0.8185   -8.2048 C   0  0  0  0  0  0  0  0  0  0  0  0
    6.3575    0.3509   -8.5929 N   0  0  0  0  0  0  0  0  0  0  0  0
    0.5970   -0.5418    0.7477 H   0  0  0  0  0  0  0  0  0  0  0  0
    0.6046    0.5353   -0.6207 H   0  0  0  0  0  0  0  0  0  0  0  0
    2.6297    2.7189    0.0179 H   0  0  0  0  0  0  0  0  0  0  0  0
    3.2814    4.0333   -1.9845 H   0  0  0  0  0  0  0  0  0  0  0  0
    4.9927    0.4165   -3.5979 H   0  0  0  0  0  0  0  0  0  0  0  0
    3.9129   -0.9039   -1.9152 H   0  0  0  0  0  0  0  0  0  0  0  0
    4.2980    3.9994   -4.2823 H   0  0  0  0  0  0  0  0  0  0  0  0
    7.5171    4.8844   -7.1777 H   0  0  0  0  0  0  0  0  0  0  0  0
    5.9449    5.1255   -7.9775 H   0  0  0  0  0  0  0  0  0  0  0  0
    8.6955    4.8665   -9.3250 H   0  0  0  0  0  0  0  0  0  0  0  0
    6.9259    3.8319  -10.7534 H   0  0  0  0  0  0  0  0  0  0  0  0
    7.6345    5.2654  -11.4727 H   0  0  0  0  0  0  0  0  0  0  0  0
    4.9638    5.1575   -9.9783 H   0  0  0  0  0  0  0  0  0  0  0  0
    5.1726    5.2912  -11.7163 H   0  0  0  0  0  0  0  0  0  0  0  0
    4.7216    7.5094  -10.6686 H   0  0  0  0  0  0  0  0  0  0  0  0
    6.2963    7.4722  -11.4656 H   0  0  0  0  0  0  0  0  0  0  0  0
    5.7698    7.2019   -8.4683 H   0  0  0  0  0  0  0  0  0  0  0  0
    6.5129    8.5695   -9.2709 H   0  0  0  0  0  0  0  0  0  0  0  0
    8.2378    7.0900   -8.2220 H   0  0  0  0  0  0  0  0  0  0  0  0
    8.4410    7.2020   -9.9671 H   0  0  0  0  0  0  0  0  0  0  0  0
    6.0087   -1.7538   -8.7348 H   0  0  0  0  0  0  0  0  0  0  0  0
  1  2  1  0  0  0  0
  1 29  1  0  0  0  0
  1 30  1  0  0  0  0
  2  3  2  0  0  0  0
  2  4  1  0  0  0  0
  4  5  2  0  0  0  0
  4  9  1  0  0  0  0
  5  6  1  0  0  0  0
  5 31  1  0  0  0  0
  6  7  2  0  0  0  0
  6 32  1  0  0  0  0
  7  8  1  0  0  0  0
  7 10  1  0  0  0  0
  8  9  2  0  0  0  0
  8 33  1  0  0  0  0
  9 34  1  0  0  0  0
 10 11  1  0  0  0  0
 10 35  1  0  0  0  0
 11 12  2  0  0  0  0
 11 24  1  0  0  0  0
 12 13  1  0  0  0  0
 13 14  1  0  0  0  0
 13 22  2  0  0  0  0
 14 15  1  0  0  0  0
 15 16  1  0  0  0  0
 15 36  1  0  0  0  0
 15 37  1  0  0  0  0
 16 17  1  0  0  0  0
 16 21  1  0  0  0  0
 16 38  1  0  0  0  0
 17 18  1  0  0  0  0
 17 39  1  0  0  0  0
 17 40  1  0  0  0  0
 18 19  1  0  0  0  0
 18 41  1  0  0  0  0
 18 42  1  0  0  0  0
 19 20  1  0  0  0  0
 19 43  1  0  0  0  0
 19 44  1  0  0  0  0
 20 21  1  0  0  0  0
 20 45  1  0  0  0  0
 20 46  1  0  0  0  0
 21 47  1  0  0  0  0
 21 48  1  0  0  0  0
 22 23  1  0  0  0  0
 22 28  1  0  0  0  0
 23 24  2  0  0  0  0
 23 25  1  0  0  0  0
 25 26  1  0  0  0  0
 25 27  1  0  0  0  0
 27 28  2  0  0  0  0
 27 49  1  0  0  0  0
M  END
$$$$
