N4B
 OpenBabel04121316163D

 24 24  0  0  0  0  0  0  0  0999 V2000
    1.0513   -0.0083   -0.0617 C   0  0  0  0  0  0  0  0  0  0  0  0
    2.5710   -0.0120   -0.0607 C   0  0  0  0  0  0  0  0  0  0  0  0
    3.1118    1.2047   -0.7980 C   0  0  0  0  0  0  0  0  0  0  0  0
    4.6445    1.2365   -0.7944 C   0  0  0  0  0  0  0  0  0  0  0  0
    5.1066    2.4743   -1.5205 C   0  0  0  0  0  0  0  0  0  0  0  0
    4.9254    3.7303   -0.9228 C   0  0  0  0  0  0  0  0  0  0  0  0
    5.0721    4.8899   -1.6810 C   0  0  0  0  0  0  0  0  0  0  0  0
    5.4971    4.8069   -3.0022 C   0  0  0  0  0  0  0  0  0  0  0  0
    5.8015    3.5665   -3.5651 C   0  0  0  0  0  0  0  0  0  0  0  0
    5.5746    2.3994   -2.8346 C   0  0  0  0  0  0  0  0  0  0  0  0
    0.6698   -0.8831    0.4720 H   0  0  0  0  0  0  0  0  0  0  0  0
    0.6612   -0.0326   -1.0845 H   0  0  0  0  0  0  0  0  0  0  0  0
    0.6624    0.8895    0.4303 H   0  0  0  0  0  0  0  0  0  0  0  0
    2.9357   -0.9283   -0.5375 H   0  0  0  0  0  0  0  0  0  0  0  0
    2.9339   -0.0098    0.9732 H   0  0  0  0  0  0  0  0  0  0  0  0
    2.7133    2.1140   -0.3283 H   0  0  0  0  0  0  0  0  0  0  0  0
    2.7421    1.2061   -1.8325 H   0  0  0  0  0  0  0  0  0  0  0  0
    5.0408    0.3362   -1.2798 H   0  0  0  0  0  0  0  0  0  0  0  0
    5.0316    1.2415    0.2311 H   0  0  0  0  0  0  0  0  0  0  0  0
    4.6095    3.8026    0.1137 H   0  0  0  0  0  0  0  0  0  0  0  0
    4.8279    5.8536   -1.2413 H   0  0  0  0  0  0  0  0  0  0  0  0
    5.5872    5.7097   -3.6010 H   0  0  0  0  0  0  0  0  0  0  0  0
    6.1790    3.5068   -4.5802 H   0  0  0  0  0  0  0  0  0  0  0  0
    5.7291    1.4341   -3.3129 H   0  0  0  0  0  0  0  0  0  0  0  0
  1  2  1  0  0  0  0
  1 11  1  0  0  0  0
  1 12  1  0  0  0  0
  1 13  1  0  0  0  0
  2  3  1  0  0  0  0
  2 14  1  0  0  0  0
  2 15  1  0  0  0  0
  3  4  1  0  0  0  0
  3 16  1  0  0  0  0
  3 17  1  0  0  0  0
  4  5  1  0  0  0  0
  4 18  1  0  0  0  0
  4 19  1  0  0  0  0
  5  6  2  0  0  0  0
  5 10  1  0  0  0  0
  6  7  1  0  0  0  0
  6 20  1  0  0  0  0
  7  8  2  0  0  0  0
  7 21  1  0  0  0  0
  8  9  1  0  0  0  0
  8 22  1  0  0  0  0
  9 10  2  0  0  0  0
  9 23  1  0  0  0  0
 10 24  1  0  0  0  0
M  END
$$$$
