N4D
 OpenBabel04121316163D

 45 48  0  0  0  0  0  0  0  0999 V2000
    0.9335   -0.0954   -0.0027 C   0  0  0  0  0  0  0  0  0  0  0  0
    2.3708   -0.1361    0.0261 N   0  0  0  0  0  0  0  0  0  0  0  0
    3.0367   -0.4961    1.1806 C   0  0  0  0  0  0  0  0  0  0  0  0
    2.4529   -0.7861    2.2260 O   0  0  0  0  0  0  0  0  0  0  0  0
    4.5227   -0.4699    1.1421 C   0  0  0  0  0  0  0  0  0  0  0  0
    5.2416   -0.4050    2.3356 C   0  0  0  0  0  0  0  0  0  0  0  0
    6.6348   -0.3153    2.3097 C   0  0  0  0  0  0  0  0  0  0  0  0
    7.3151   -0.1689    1.0918 C   0  0  0  0  0  0  0  0  0  0  0  0
    6.6011   -0.2533   -0.1138 C   0  0  0  0  0  0  0  0  0  0  0  0
    5.2193   -0.4973   -0.0650 C   0  0  0  0  0  0  0  0  0  0  0  0
    7.2778   -0.1983   -1.3519 N   0  0  0  0  0  0  0  0  0  0  0  0
    6.6208   -0.1247   -2.5784 C   0  0  0  0  0  0  0  0  0  0  0  0
    6.2747   -1.2933   -3.1557 N   0  0  0  0  0  0  0  0  0  0  0  0
    5.5609   -1.2694   -4.2831 C   0  0  0  0  0  0  0  0  0  0  0  0
    5.1058   -0.1922   -4.9295 N   0  0  0  0  0  0  0  0  0  0  0  0
    5.4393    0.9684   -4.3237 C   0  0  0  0  0  0  0  0  0  0  0  0
    6.1919    1.0693   -3.1672 C   0  0  0  0  0  0  0  0  0  0  0  0
    6.2502    2.4453   -2.8972 C   0  0  0  0  0  0  0  0  0  0  0  0
    5.6380    3.1865   -3.8230 N   0  0  0  0  0  0  0  0  0  0  0  0
    5.1320    2.2749   -4.7123 N   0  0  0  0  0  0  0  0  0  0  0  0
    4.4527    2.7090   -5.8903 C   0  0  0  0  0  0  0  0  0  0  0  0
    3.8719    1.7802   -6.7615 C   0  0  0  0  0  0  0  0  0  0  0  0
    3.4228    2.1751   -8.0198 C   0  0  0  0  0  0  0  0  0  0  0  0
    3.4253    3.5207   -8.3674 C   0  0  0  0  0  0  0  0  0  0  0  0
    3.8555    4.4739   -7.4457 C   0  0  0  0  0  0  0  0  0  0  0  0
    4.4112    4.0713   -6.2260 C   0  0  0  0  0  0  0  0  0  0  0  0
    8.7882    0.1224    1.0835 C   0  0  0  0  0  0  0  0  0  0  0  0
    0.6061    0.2173   -0.9967 H   0  0  0  0  0  0  0  0  0  0  0  0
    0.5779    0.6127    0.7504 H   0  0  0  0  0  0  0  0  0  0  0  0
    0.5504   -1.0935    0.2233 H   0  0  0  0  0  0  0  0  0  0  0  0
    2.8709    0.2055   -0.7832 H   0  0  0  0  0  0  0  0  0  0  0  0
    4.7171   -0.4171    3.2889 H   0  0  0  0  0  0  0  0  0  0  0  0
    7.1833   -0.3368    3.2486 H   0  0  0  0  0  0  0  0  0  0  0  0
    4.6824   -0.7064   -0.9842 H   0  0  0  0  0  0  0  0  0  0  0  0
    8.1536    0.3058   -1.3383 H   0  0  0  0  0  0  0  0  0  0  0  0
    5.3231   -2.2396   -4.7062 H   0  0  0  0  0  0  0  0  0  0  0  0
    6.7171    2.9407   -2.0545 H   0  0  0  0  0  0  0  0  0  0  0  0
    3.7599    0.7341   -6.5005 H   0  0  0  0  0  0  0  0  0  0  0  0
    3.0754    1.4241   -8.7242 H   0  0  0  0  0  0  0  0  0  0  0  0
    3.0826    3.8235   -9.3529 H   0  0  0  0  0  0  0  0  0  0  0  0
    3.7805    5.5306   -7.6901 H   0  0  0  0  0  0  0  0  0  0  0  0
    4.8305    4.8306   -5.5681 H   0  0  0  0  0  0  0  0  0  0  0  0
    9.2048    0.1510    2.0932 H   0  0  0  0  0  0  0  0  0  0  0  0
    8.9566    1.1059    0.6280 H   0  0  0  0  0  0  0  0  0  0  0  0
    9.3261   -0.6372    0.5082 H   0  0  0  0  0  0  0  0  0  0  0  0
  1  2  1  0  0  0  0
  1 28  1  0  0  0  0
  1 29  1  0  0  0  0
  1 30  1  0  0  0  0
  2  3  1  0  0  0  0
  2 31  1  0  0  0  0
  3  4  2  0  0  0  0
  3  5  1  0  0  0  0
  5  6  2  0  0  0  0
  5 10  1  0  0  0  0
  6  7  1  0  0  0  0
  6 32  1  0  0  0  0
  7  8  2  0  0  0  0
  7 33  1  0  0  0  0
  8  9  1  0  0  0  0
  8 27  1  0  0  0  0
  9 10  2  0  0  0  0
  9 11  1  0  0  0  0
 10 34  1  0  0  0  0
 11 12  1  0  0  0  0
 11 35  1  0  0  0  0
 12 13  2  0  0  0  0
 12 17  1  0  0  0  0
 13 14  1  0  0  0  0
 14 15  2  0  0  0  0
 14 36  1  0  0  0  0
 15 16  1  0  0  0  0
 16 17  2  0  0  0  0
 16 20  1  0  0  0  0
 17 18  1  0  0  0  0
 18 19  2  0  0  0  0
 18 37  1  0  0  0  0
 19 20  1  0  0  0  0
 20 21  1  0  0  0  0
 21 22  2  0  0  0  0
 21 26  1  0  0  0  0
 22 23  1  0  0  0  0
 22 38  1  0  0  0  0
 23 24  2  0  0  0  0
 23 39  1  0  0  0  0
 24 25  1  0  0  0  0
 24 40  1  0  0  0  0
 25 26  2  0  0  0  0
 25 41  1  0  0  0  0
 26 42  1  0  0  0  0
 27 43  1  0  0  0  0
 27 44  1  0  0  0  0
 27 45  1  0  0  0  0
M  END
$$$$
