N5B
 OpenBabel04121316163D

 30 32  0  0  0  0  0  0  0  0999 V2000
    0.9964   -0.0518    0.0013 O   0  0  0  0  0  0  0  0  0  0  0  0
    2.2317   -0.0171    0.0141 C   0  0  0  0  0  0  0  0  0  0  0  0
    2.9240    0.7614   -1.0291 C   0  0  0  0  0  0  0  0  0  0  0  0
    2.8262    2.1502   -0.9681 C   0  0  0  0  0  0  0  0  0  0  0  0
    3.2582    2.9102   -2.0500 C   0  0  0  0  0  0  0  0  0  0  0  0
    3.8860    2.2916   -3.1327 C   0  0  0  0  0  0  0  0  0  0  0  0
    4.1129    0.9141   -3.1231 C   0  0  0  0  0  0  0  0  0  0  0  0
    3.5862    0.1339   -2.0932 C   0  0  0  0  0  0  0  0  0  0  0  0
    2.9425   -0.7279    0.9482 N   0  0  0  0  0  0  0  0  0  0  0  0
    4.3072   -0.8512    0.9142 C   0  0  0  0  0  0  0  0  0  0  0  0
    5.1852    0.2006    0.8911 N   0  0  0  0  0  0  0  0  0  0  0  0
    4.9775    1.1940    0.9000 H   0  0  0  0  0  0  0  0  0  0  0  0
    6.4680   -0.1912    0.9517 N   0  0  0  0  0  0  0  0  0  0  0  0
    6.3820   -1.5240    0.9202 C   0  0  0  0  0  0  0  0  0  0  0  0
    5.0634   -1.9930    0.9303 C   0  0  0  0  0  0  0  0  0  0  0  0
    7.6062   -2.3942    0.9308 C   0  0  0  0  0  0  0  0  0  0  0  0
    7.7035   -3.7963    0.4085 C   0  0  0  0  0  0  0  0  0  0  0  0
    8.2535   -2.6526   -0.4054 C   0  0  0  0  0  0  0  0  0  0  0  0
    2.3856    2.6281   -0.0978 H   0  0  0  0  0  0  0  0  0  0  0  0
    3.0854    3.9827   -2.0584 H   0  0  0  0  0  0  0  0  0  0  0  0
    4.1947    2.8867   -3.9890 H   0  0  0  0  0  0  0  0  0  0  0  0
    4.6720    0.4515   -3.9334 H   0  0  0  0  0  0  0  0  0  0  0  0
    3.6838   -0.9483   -2.1332 H   0  0  0  0  0  0  0  0  0  0  0  0
    2.3966   -1.4536    1.3997 H   0  0  0  0  0  0  0  0  0  0  0  0
    4.7152   -3.0138    0.9357 H   0  0  0  0  0  0  0  0  0  0  0  0
    8.2684   -2.1388    1.7511 H   0  0  0  0  0  0  0  0  0  0  0  0
    6.8352   -4.3068    0.0113 H   0  0  0  0  0  0  0  0  0  0  0  0
    8.4234   -4.4582    0.8776 H   0  0  0  0  0  0  0  0  0  0  0  0
    7.7171   -2.3866   -1.3111 H   0  0  0  0  0  0  0  0  0  0  0  0
    9.3180   -2.4617   -0.4594 H   0  0  0  0  0  0  0  0  0  0  0  0
  1  2  2  0  0  0  0
  2  3  1  0  0  0  0
  2  9  1  0  0  0  0
  3  4  2  0  0  0  0
  3  8  1  0  0  0  0
  4  5  1  0  0  0  0
  4 19  1  0  0  0  0
  5  6  2  0  0  0  0
  5 20  1  0  0  0  0
  6  7  1  0  0  0  0
  6 21  1  0  0  0  0
  7  8  2  0  0  0  0
  7 22  1  0  0  0  0
  8 23  1  0  0  0  0
  9 10  1  0  0  0  0
  9 24  1  0  0  0  0
 10 11  1  0  0  0  0
 10 15  2  0  0  0  0
 11 12  1  0  0  0  0
 11 13  1  0  0  0  0
 13 14  2  0  0  0  0
 14 15  1  0  0  0  0
 14 16  1  0  0  0  0
 15 25  1  0  0  0  0
 16 17  1  0  0  0  0
 16 18  1  0  0  0  0
 16 26  1  0  0  0  0
 17 18  1  0  0  0  0
 17 27  1  0  0  0  0
 17 28  1  0  0  0  0
 18 29  1  0  0  0  0
 18 30  1  0  0  0  0
M  END
$$$$
