N5P
 OpenBabel04121316163D

 49 51  0  0  1  0  0  0  0  0999 V2000
    5.3958   -7.0865    0.0569 O   0  0  0  0  0  0  0  0  0  0  0  0
    4.0278   -7.4231    0.0587 C   0  0  1  0  0  0  0  0  0  0  0  0
    3.6762   -7.5639   -0.9706 H   0  0  0  0  0  0  0  0  0  0  0  0
    3.7061   -8.6665    0.8673 C   0  0  0  0  0  0  0  0  0  0  0  0
    2.2078   -8.5264    1.1523 C   0  0  1  0  0  0  0  0  0  0  0  0
    1.9240   -9.0189    2.0906 H   0  0  0  0  0  0  0  0  0  0  0  0
    2.0634   -7.0882    1.3035 O   0  0  0  0  0  0  0  0  0  0  0  0
    3.2448   -6.3516    0.7762 C   0  0  2  0  0  0  0  0  0  0  0  0
    3.7613   -5.9115    1.6340 H   0  0  0  0  0  0  0  0  0  0  0  0
    2.7978   -5.1928   -0.1552 C   0  0  0  0  0  0  0  0  0  0  0  0
    3.2774   -4.8330   -1.4487 O   0  0  0  0  0  0  0  0  0  0  0  0
    2.5145   -3.6990   -2.3669 P   0  0  2  0  0  0  0  0  0  0  0  0
    2.7483   -2.3024   -1.8890 O   0  0  0  0  0  0  0  0  0  0  0  0
    0.8911   -3.9570   -2.7289 O   0  0  0  0  0  0  0  0  0  0  0  0
   -0.0564   -2.9190   -1.7202 P   0  0  1  0  0  0  0  0  0  0  0  0
   -1.1141   -2.7475   -2.8072 O   0  0  0  0  0  0  0  0  0  0  0  0
   -0.3136   -4.1665   -0.8870 O   0  0  0  0  0  0  0  0  0  0  0  0
    0.0167   -5.6347   -1.2669 P   0  0  0  0  0  0  0  0  0  0  0  0
    0.1709   -5.9925    0.1720 O   0  0  0  0  0  0  0  0  0  0  0  0
   -1.0570   -5.7708   -2.3701 O   0  0  0  0  0  0  0  0  0  0  0  0
    1.2493   -6.1147   -2.2030 O   0  0  0  0  0  0  0  0  0  0  0  0
   -1.0040   -1.8810   -0.7114 O   0  0  0  0  0  0  0  0  0  0  0  0
    3.1669   -3.9910   -3.8069 O   0  0  0  0  0  0  0  0  0  0  0  0
    1.3006   -9.1445    0.1243 N   0  0  0  0  0  0  0  0  0  0  0  0
    1.5008  -10.4249   -0.3772 C   0  0  0  0  0  0  0  0  0  0  0  0
    0.6489  -10.6182   -1.4455 C   0  0  0  0  0  0  0  0  0  0  0  0
   -0.2016   -9.4981   -1.5302 C   0  0  0  0  0  0  0  0  0  0  0  0
    0.0306   -8.7933   -0.3444 C   0  0  0  0  0  0  0  0  0  0  0  0
   -0.9902   -7.9667    0.1381 C   0  0  0  0  0  0  0  0  0  0  0  0
   -1.9758   -7.5015   -0.7820 C   0  0  0  0  0  0  0  0  0  0  0  0
   -2.0648   -8.0374   -2.0775 C   0  0  0  0  0  0  0  0  0  0  0  0
   -1.2408   -9.1124   -2.4146 C   0  0  0  0  0  0  0  0  0  0  0  0
   -2.8743   -7.3853   -3.1581 N   0  3  0  0  0  0  0  0  0  0  0  0
   -3.0781   -8.0419   -4.1892 O   0  0  0  0  0  0  0  0  0  0  0  0
   -3.2791   -6.2175   -2.9883 O   0  5  0  0  0  0  0  0  0  0  0  0
    5.8675   -7.7396   -0.4829 H   0  0  0  0  0  0  0  0  0  0  0  0
    4.2702   -8.6217    1.8093 H   0  0  0  0  0  0  0  0  0  0  0  0
    4.0008   -9.5852    0.3586 H   0  0  0  0  0  0  0  0  0  0  0  0
    2.2202   -4.3942    0.3157 H   0  0  0  0  0  0  0  0  0  0  0  0
    2.0947   -5.8564   -0.5323 H   0  0  0  0  0  0  0  0  0  0  0  0
   -1.8597   -5.2039   -2.3021 H   0  0  0  0  0  0  0  0  0  0  0  0
    1.6762   -6.9701   -1.9658 H   0  0  0  0  0  0  0  0  0  0  0  0
   -1.3548   -1.1754   -1.2897 H   0  0  0  0  0  0  0  0  0  0  0  0
    2.6987   -4.7033   -4.2819 H   0  0  0  0  0  0  0  0  0  0  0  0
    2.2190  -11.0977    0.0703 H   0  0  0  0  0  0  0  0  0  0  0  0
    0.5568  -11.5117   -2.0476 H   0  0  0  0  0  0  0  0  0  0  0  0
   -0.8285   -7.4318    1.0796 H   0  0  0  0  0  0  0  0  0  0  0  0
   -2.4337   -6.5284   -0.5425 H   0  0  0  0  0  0  0  0  0  0  0  0
   -1.3839   -9.6339   -3.3551 H   0  0  0  0  0  0  0  0  0  0  0  0
  1  2  1  0  0  0  0
  1 36  1  0  0  0  0
  2  3  1  6  0  0  0
  2  4  1  0  0  0  0
  2  8  1  0  0  0  0
  4  5  1  0  0  0  0
  4 37  1  0  0  0  0
  4 38  1  0  0  0  0
  5  6  1  1  0  0  0
  5  7  1  0  0  0  0
  5 24  1  0  0  0  0
  7  8  1  0  0  0  0
  8  9  1  1  0  0  0
  8 10  1  0  0  0  0
 10 11  1  0  0  0  0
 10 39  1  0  0  0  0
 10 40  1  0  0  0  0
 12 14  1  6  0  0  0
 12 23  1  0  0  0  0
 12 13  2  0  0  0  0
 12 11  1  0  0  0  0
 15 14  1  6  0  0  0
 15 16  2  0  0  0  0
 15 17  1  0  0  0  0
 15 22  1  0  0  0  0
 17 18  1  0  0  0  0
 18 19  2  0  0  0  0
 18 20  1  0  0  0  0
 18 21  1  0  0  0  0
 20 41  1  0  0  0  0
 21 42  1  0  0  0  0
 22 43  1  0  0  0  0
 23 44  1  0  0  0  0
 24 25  1  0  0  0  0
 24 28  1  0  0  0  0
 25 26  2  0  0  0  0
 25 45  1  0  0  0  0
 26 27  1  0  0  0  0
 26 46  1  0  0  0  0
 27 28  2  0  0  0  0
 27 32  1  0  0  0  0
 28 29  1  0  0  0  0
 29 30  2  0  0  0  0
 29 47  1  0  0  0  0
 30 31  1  0  0  0  0
 30 48  1  0  0  0  0
 31 32  2  0  0  0  0
 31 33  1  0  0  0  0
 32 49  1  0  0  0  0
 33 34  2  0  0  0  0
 33 35  1  0  0  0  0
M  CHG  2  33   1  35  -1
M  END
$$$$
