N76
 OpenBabel04121316163D

 50 53  0  0  0  0  0  0  0  0999 V2000
    1.1636    0.0231   -0.0393 N   0  0  0  0  0  0  0  0  0  0  0  0
    2.8485    0.0744   -0.1142 S   0  0  0  0  0  0  0  0  0  0  0  0
    3.2349   -0.9666   -1.0591 O   0  0  0  0  0  0  0  0  0  0  0  0
    3.1916    1.4497   -0.3152 O   0  0  0  0  0  0  0  0  0  0  0  0
    3.3461   -0.4197    1.5110 C   0  0  0  0  0  0  0  0  0  0  0  0
    3.9971    0.4292    2.3870 C   0  0  0  0  0  0  0  0  0  0  0  0
    4.4209   -0.0826    3.6198 C   0  0  0  0  0  0  0  0  0  0  0  0
    4.3211   -1.4632    3.9092 C   0  0  0  0  0  0  0  0  0  0  0  0
    3.6970   -2.3386    3.0091 C   0  0  0  0  0  0  0  0  0  0  0  0
    3.1406   -1.7437    1.8667 C   0  0  0  0  0  0  0  0  0  0  0  0
    3.5932   -3.7368    3.2419 N   0  0  0  0  0  0  0  0  0  0  0  0
    3.0430   -4.7162    2.3694 C   0  0  0  0  0  0  0  0  0  0  0  0
    3.3236   -6.0343    2.5156 N   0  0  0  0  0  0  0  0  0  0  0  0
    2.7955   -6.9527    1.5951 C   0  0  0  0  0  0  0  0  0  0  0  0
    2.8939   -8.3550    1.6970 O   0  0  0  0  0  0  0  0  0  0  0  0
    3.8479   -8.5686    2.6698 C   0  0  0  0  0  0  0  0  0  0  0  0
    4.6298   -9.8641    2.8744 C   0  0  0  0  0  0  0  0  0  0  0  0
    5.7004   -9.1957    3.7820 C   0  0  0  0  0  0  0  0  0  0  0  0
    5.1090   -9.0373    5.2007 C   0  0  0  0  0  0  0  0  0  0  0  0
    5.0437  -10.3939    5.8370 C   0  0  0  0  0  0  0  0  0  0  0  0
    4.0831  -11.2746    5.0400 C   0  0  0  0  0  0  0  0  0  0  0  0
    4.3890  -11.2511    3.5413 C   0  0  0  0  0  0  0  0  0  0  0  0
    2.0853   -6.5028    0.5210 C   0  0  0  0  0  0  0  0  0  0  0  0
    1.8336   -5.1634    0.5125 C   0  0  0  0  0  0  0  0  0  0  0  0
    2.2254   -4.2713    1.4092 N   0  0  0  0  0  0  0  0  0  0  0  0
    1.0640   -4.9694   -0.5922 N   0  0  0  0  0  0  0  0  0  0  0  0
    0.6888   -4.0863   -0.8979 H   0  0  0  0  0  0  0  0  0  0  0  0
    0.8864   -6.1922   -1.1786 C   0  0  0  0  0  0  0  0  0  0  0  0
    1.5071   -7.1465   -0.5310 N   0  0  0  0  0  0  0  0  0  0  0  0
    0.7933    0.2232   -0.9713 H   0  0  0  0  0  0  0  0  0  0  0  0
    0.8066    0.6870    0.6469 H   0  0  0  0  0  0  0  0  0  0  0  0
    4.1743    1.4668    2.1216 H   0  0  0  0  0  0  0  0  0  0  0  0
    4.8510    0.5971    4.3536 H   0  0  0  0  0  0  0  0  0  0  0  0
    4.7501   -1.8242    4.8423 H   0  0  0  0  0  0  0  0  0  0  0  0
    2.5366   -2.2930    1.1644 H   0  0  0  0  0  0  0  0  0  0  0  0
    4.1824   -4.1298    3.9631 H   0  0  0  0  0  0  0  0  0  0  0  0
    3.4493   -8.1548    3.5914 H   0  0  0  0  0  0  0  0  0  0  0  0
    4.6625   -7.9355    2.2704 H   0  0  0  0  0  0  0  0  0  0  0  0
    4.8573  -10.1581    1.8405 H   0  0  0  0  0  0  0  0  0  0  0  0
    5.9650   -8.1697    3.4922 H   0  0  0  0  0  0  0  0  0  0  0  0
    6.6409   -9.7401    3.7273 H   0  0  0  0  0  0  0  0  0  0  0  0
    4.0829   -8.6414    5.2343 H   0  0  0  0  0  0  0  0  0  0  0  0
    5.6990   -8.3167    5.7658 H   0  0  0  0  0  0  0  0  0  0  0  0
    4.7107  -10.2984    6.8734 H   0  0  0  0  0  0  0  0  0  0  0  0
    6.0562  -10.8099    5.8337 H   0  0  0  0  0  0  0  0  0  0  0  0
    3.0472  -10.9501    5.1772 H   0  0  0  0  0  0  0  0  0  0  0  0
    4.1574  -12.2978    5.4326 H   0  0  0  0  0  0  0  0  0  0  0  0
    3.6989  -11.9080    3.0000 H   0  0  0  0  0  0  0  0  0  0  0  0
    5.3637  -11.7710    3.4457 H   0  0  0  0  0  0  0  0  0  0  0  0
    0.2945   -6.3500   -2.0645 H   0  0  0  0  0  0  0  0  0  0  0  0
  1  2  1  0  0  0  0
  1 30  1  0  0  0  0
  1 31  1  0  0  0  0
  2  3  2  0  0  0  0
  2  4  2  0  0  0  0
  2  5  1  0  0  0  0
  5  6  2  0  0  0  0
  5 10  1  0  0  0  0
  6  7  1  0  0  0  0
  6 32  1  0  0  0  0
  7  8  2  0  0  0  0
  7 33  1  0  0  0  0
  8  9  1  0  0  0  0
  8 34  1  0  0  0  0
  9 10  2  0  0  0  0
  9 11  1  0  0  0  0
 10 35  1  0  0  0  0
 11 12  1  0  0  0  0
 11 36  1  0  0  0  0
 12 13  2  0  0  0  0
 12 25  1  0  0  0  0
 13 14  1  0  0  0  0
 14 15  1  0  0  0  0
 14 23  2  0  0  0  0
 15 16  1  0  0  0  0
 16 17  1  0  0  0  0
 16 37  1  0  0  0  0
 16 38  1  0  0  0  0
 17 18  1  0  0  0  0
 17 22  1  0  0  0  0
 17 39  1  0  0  0  0
 18 19  1  0  0  0  0
 18 40  1  0  0  0  0
 18 41  1  0  0  0  0
 19 20  1  0  0  0  0
 19 42  1  0  0  0  0
 19 43  1  0  0  0  0
 20 21  1  0  0  0  0
 20 44  1  0  0  0  0
 20 45  1  0  0  0  0
 21 22  1  0  0  0  0
 21 46  1  0  0  0  0
 21 47  1  0  0  0  0
 22 48  1  0  0  0  0
 22 49  1  0  0  0  0
 23 24  1  0  0  0  0
 23 29  1  0  0  0  0
 24 25  2  0  0  0  0
 24 26  1  0  0  0  0
 26 27  1  0  0  0  0
 26 28  1  0  0  0  0
 28 29  2  0  0  0  0
 28 50  1  0  0  0  0
M  END
$$$$
