NAF
 OpenBabel04121316163D

 32 32  0  0  0  0  0  0  0  0999 V2000
    1.1053    0.0596   -0.3061 F   0  0  0  0  0  0  0  0  0  0  0  0
    2.4646    0.0202   -0.3031 C   0  0  0  0  0  0  0  0  0  0  0  0
    2.9842    0.5827    1.0595 C   0  0  0  0  0  0  0  0  0  0  0  0
    2.3540   -0.2909    2.1521 C   0  0  0  0  0  0  0  0  0  0  0  0
    2.8386   -1.6002    2.3962 C   0  0  0  0  0  0  0  0  0  0  0  0
    2.3007   -2.3150    3.4549 C   0  0  0  0  0  0  0  0  0  0  0  0
    1.2815   -1.7878    4.2565 C   0  0  0  0  0  0  0  0  0  0  0  0
    0.7609   -0.4694    4.0604 C   0  0  0  0  0  0  0  0  0  0  0  0
    1.2870    0.1946    2.9413 C   0  0  0  0  0  0  0  0  0  0  0  0
    0.4947    0.4003    5.3391 N   0  3  0  0  0  0  0  0  0  0  0  0
    1.9126    1.0051    5.4860 C   0  0  0  0  0  0  0  0  0  0  0  0
   -0.1395   -0.4386    6.4703 C   0  0  0  0  0  0  0  0  0  0  0  0
   -0.3747    1.6737    5.3003 C   0  0  0  0  0  0  0  0  0  0  0  0
    4.4022    0.5916    1.2068 O   0  0  0  0  0  0  0  0  0  0  0  0
    2.5921    1.9489    1.2907 O   0  0  0  0  0  0  0  0  0  0  0  0
    2.8448   -1.2599   -0.5062 F   0  0  0  0  0  0  0  0  0  0  0  0
    2.8916    0.7568   -1.3487 F   0  0  0  0  0  0  0  0  0  0  0  0
    3.6390   -2.0292    1.8032 H   0  0  0  0  0  0  0  0  0  0  0  0
    2.7685   -3.2733    3.7303 H   0  0  0  0  0  0  0  0  0  0  0  0
    1.0672   -2.3832    5.1336 H   0  0  0  0  0  0  0  0  0  0  0  0
    1.0817    1.2662    2.8327 H   0  0  0  0  0  0  0  0  0  0  0  0
    2.6724    0.2240    5.4105 H   0  0  0  0  0  0  0  0  0  0  0  0
    2.0067    1.7055    6.3089 H   0  0  0  0  0  0  0  0  0  0  0  0
    2.0243    1.6570    4.6085 H   0  0  0  0  0  0  0  0  0  0  0  0
    0.2029   -1.4700    6.5087 H   0  0  0  0  0  0  0  0  0  0  0  0
   -1.2312   -0.4671    6.3151 H   0  0  0  0  0  0  0  0  0  0  0  0
    0.0754    0.0366    7.4290 H   0  0  0  0  0  0  0  0  0  0  0  0
   -0.0060    2.3951    4.5689 H   0  0  0  0  0  0  0  0  0  0  0  0
   -0.2347    2.1379    6.2971 H   0  0  0  0  0  0  0  0  0  0  0  0
   -1.4405    1.4636    5.1883 H   0  0  0  0  0  0  0  0  0  0  0  0
    4.7495    1.1218    0.4655 H   0  0  0  0  0  0  0  0  0  0  0  0
    1.6816    2.0473    0.9640 H   0  0  0  0  0  0  0  0  0  0  0  0
  1  2  1  0  0  0  0
  2  3  1  0  0  0  0
  2 16  1  0  0  0  0
  2 17  1  0  0  0  0
  3  4  1  0  0  0  0
  3 14  1  0  0  0  0
  3 15  1  0  0  0  0
  4  5  2  0  0  0  0
  4  9  1  0  0  0  0
  5  6  1  0  0  0  0
  5 18  1  0  0  0  0
  6  7  2  0  0  0  0
  6 19  1  0  0  0  0
  7  8  1  0  0  0  0
  7 20  1  0  0  0  0
  8  9  2  0  0  0  0
  8 10  1  0  0  0  0
  9 21  1  0  0  0  0
 10 11  1  0  0  0  0
 10 12  1  0  0  0  0
 10 13  1  0  0  0  0
 11 22  1  0  0  0  0
 11 23  1  0  0  0  0
 11 24  1  0  0  0  0
 12 25  1  0  0  0  0
 12 26  1  0  0  0  0
 12 27  1  0  0  0  0
 13 28  1  0  0  0  0
 13 29  1  0  0  0  0
 13 30  1  0  0  0  0
 14 31  1  0  0  0  0
 15 32  1  0  0  0  0
M  CHG  1  10   1
M  END
$$$$
