NAJ
 OpenBabel04121316163D

 71 75  0  0  1  0  0  0  0  0999 V2000
    2.9529   -0.3503   -1.4058 O   0  0  0  0  0  0  0  0  0  0  0  0
    2.4859   -0.1896   -0.0494 C   0  0  2  0  0  0  0  0  0  0  0  0
    1.4132   -0.0057   -0.1067 H   0  0  0  0  0  0  0  0  0  0  0  0
    3.0983    0.9838    0.6396 C   0  0  2  0  0  0  0  0  0  0  0  0
    2.4200    1.2308    1.4735 H   0  0  0  0  0  0  0  0  0  0  0  0
    3.1892    1.8918   -0.4492 O   0  0  0  0  0  0  0  0  0  0  0  0
    4.3950    0.4576    1.1946 C   0  0  2  0  0  0  0  0  0  0  0  0
    5.1811    0.5156    0.4318 H   0  0  0  0  0  0  0  0  0  0  0  0
    4.1635   -0.9471    1.4726 O   0  0  0  0  0  0  0  0  0  0  0  0
    2.9931   -1.3662    0.7406 C   0  0  1  0  0  0  0  0  0  0  0  0
    3.3003   -2.1754    0.0683 H   0  0  0  0  0  0  0  0  0  0  0  0
    1.9777   -1.9571    1.6367 N   0  3  0  0  0  0  0  0  0  0  0  0
    0.6621   -1.9255    1.3207 C   0  0  0  0  0  0  0  0  0  0  0  0
   -0.2952   -2.4004    2.1955 C   0  0  0  0  0  0  0  0  0  0  0  0
    0.1082   -2.8690    3.4335 C   0  0  0  0  0  0  0  0  0  0  0  0
    1.4684   -2.9600    3.7337 C   0  0  0  0  0  0  0  0  0  0  0  0
    2.3907   -2.5564    2.7780 C   0  0  0  0  0  0  0  0  0  0  0  0
    1.8762   -3.4585    5.0602 C   0  0  0  0  0  0  0  0  0  0  0  0
    1.0193   -3.7470    5.9024 O   0  0  0  0  0  0  0  0  0  0  0  0
    3.1995   -3.5969    5.3431 N   0  0  0  0  0  0  0  0  0  0  0  0
    4.9255    1.1801    2.4305 C   0  0  0  0  0  0  0  0  0  0  0  0
    3.9335    1.5879    3.4046 O   0  0  0  0  0  0  0  0  0  0  0  0
    4.5570    2.3900    4.8049 P   0  0  1  0  0  0  0  0  0  0  0  0
    5.9945    2.2294    4.2513 O   0  0  0  0  0  0  0  0  0  0  0  0
    3.9073    3.8888    4.2357 O   0  0  0  0  0  0  0  0  0  0  0  0
    3.1028    3.6323    2.7257 P   0  0  1  0  0  0  0  0  0  0  0  0
    1.8571    3.1823    3.5424 O   0  0  0  0  0  0  0  0  0  0  0  0
    2.9791    5.3123    2.5837 O   0  0  0  0  0  0  0  0  0  0  0  0
    3.3568    6.1106    3.7092 C   0  0  0  0  0  0  0  0  0  0  0  0
    2.9815    7.5724    3.5953 C   0  0  1  0  0  0  0  0  0  0  0  0
    3.0076    7.9799    4.6172 H   0  0  0  0  0  0  0  0  0  0  0  0
    3.9097    8.3767    2.8188 O   0  0  0  0  0  0  0  0  0  0  0  0
    3.1757    9.5851    2.5715 C   0  0  2  0  0  0  0  0  0  0  0  0
    3.2233   10.2285    3.4607 H   0  0  0  0  0  0  0  0  0  0  0  0
    1.7460    9.1223    2.2634 C   0  0  1  0  0  0  0  0  0  0  0  0
    1.6227    8.9550    1.1868 H   0  0  0  0  0  0  0  0  0  0  0  0
    1.6172    7.7779    2.9624 C   0  0  2  0  0  0  0  0  0  0  0  0
    1.3963    7.0175    2.2058 H   0  0  0  0  0  0  0  0  0  0  0  0
    0.5819    7.7745    3.9344 O   0  0  0  0  0  0  0  0  0  0  0  0
    0.7448   10.0543    2.6804 O   0  0  0  0  0  0  0  0  0  0  0  0
    3.7882   10.3531    1.4930 N   0  0  0  0  0  0  0  0  0  0  0  0
    5.1184   10.3910    1.1624 C   0  0  0  0  0  0  0  0  0  0  0  0
    5.3564   11.2261    0.1661 N   0  0  0  0  0  0  0  0  0  0  0  0
    4.1293   11.7242   -0.1929 C   0  0  0  0  0  0  0  0  0  0  0  0
    3.1495   11.2482    0.6654 C   0  0  0  0  0  0  0  0  0  0  0  0
    1.8510   11.6041    0.6636 N   0  0  0  0  0  0  0  0  0  0  0  0
    1.5683   12.3644   -0.4064 C   0  0  0  0  0  0  0  0  0  0  0  0
    2.4404   12.7702   -1.3291 N   0  3  0  0  0  0  0  0  0  0  0  0
    2.0923   13.2348   -2.1603 H   0  0  0  0  0  0  0  0  0  0  0  0
    3.7611   12.6120   -1.2212 C   0  0  0  0  0  0  0  0  0  0  0  0
    4.6230   13.2817   -2.0708 N   0  0  0  0  0  0  0  0  0  0  0  0
    2.2983    3.3757    1.2158 O   0  5  0  0  0  0  0  0  0  0  0  0
    5.1805    3.1920    6.2052 O   0  5  0  0  0  0  0  0  0  0  0  0
    3.7679    0.1868   -1.4675 H   0  0  0  0  0  0  0  0  0  0  0  0
    4.0774    2.2166   -0.6161 H   0  0  0  0  0  0  0  0  0  0  0  0
    0.3513   -1.5169    0.3649 H   0  0  0  0  0  0  0  0  0  0  0  0
   -1.3456   -2.3672    1.9209 H   0  0  0  0  0  0  0  0  0  0  0  0
   -0.6422   -3.1626    4.1660 H   0  0  0  0  0  0  0  0  0  0  0  0
    3.4605   -2.6900    2.8881 H   0  0  0  0  0  0  0  0  0  0  0  0
    3.9754   -3.2630    4.7891 H   0  0  0  0  0  0  0  0  0  0  0  0
    3.4243   -3.8244    6.3063 H   0  0  0  0  0  0  0  0  0  0  0  0
    5.6417    0.5051    2.9179 H   0  0  0  0  0  0  0  0  0  0  0  0
    5.4342    2.0887    2.0805 H   0  0  0  0  0  0  0  0  0  0  0  0
    4.4434    6.0340    3.8139 H   0  0  0  0  0  0  0  0  0  0  0  0
    2.8401    5.7408    4.6063 H   0  0  0  0  0  0  0  0  0  0  0  0
   -0.2368    7.9573    3.4428 H   0  0  0  0  0  0  0  0  0  0  0  0
    0.9457   10.8969    2.2371 H   0  0  0  0  0  0  0  0  0  0  0  0
    5.8614    9.7929    1.6811 H   0  0  0  0  0  0  0  0  0  0  0  0
    0.5455   12.7169   -0.5111 H   0  0  0  0  0  0  0  0  0  0  0  0
    4.3486   14.1125   -2.5781 H   0  0  0  0  0  0  0  0  0  0  0  0
    5.5883   13.2979   -1.7288 H   0  0  0  0  0  0  0  0  0  0  0  0
  1 54  1  0  0  0  0
  2  4  1  0  0  0  0
  2 10  1  0  0  0  0
  2  3  1  1  0  0  0
  2  1  1  0  0  0  0
  4  7  1  0  0  0  0
  4  6  1  0  0  0  0
  4  5  1  1  0  0  0
  6 55  1  0  0  0  0
  7  9  1  0  0  0  0
  7 21  1  0  0  0  0
  7  8  1  6  0  0  0
  9 10  1  0  0  0  0
 10 12  1  0  0  0  0
 10 11  1  6  0  0  0
 12 13  2  0  0  0  0
 12 17  1  0  0  0  0
 13 14  1  0  0  0  0
 13 56  1  0  0  0  0
 14 15  2  0  0  0  0
 14 57  1  0  0  0  0
 15 16  1  0  0  0  0
 15 58  1  0  0  0  0
 16 17  2  0  0  0  0
 16 18  1  0  0  0  0
 17 59  1  0  0  0  0
 18 19  2  0  0  0  0
 18 20  1  0  0  0  0
 20 60  1  0  0  0  0
 20 61  1  0  0  0  0
 21 22  1  0  0  0  0
 21 62  1  0  0  0  0
 21 63  1  0  0  0  0
 23 22  1  1  0  0  0
 23 24  2  0  0  0  0
 23 25  1  0  0  0  0
 23 53  1  0  0  0  0
 26 25  1  1  0  0  0
 26 27  2  0  0  0  0
 26 28  1  0  0  0  0
 26 52  1  0  0  0  0
 28 29  1  0  0  0  0
 29 30  1  0  0  0  0
 29 64  1  0  0  0  0
 29 65  1  0  0  0  0
 30 31  1  1  0  0  0
 30 32  1  0  0  0  0
 30 37  1  0  0  0  0
 32 33  1  0  0  0  0
 33 35  1  0  0  0  0
 33 41  1  0  0  0  0
 33 34  1  1  0  0  0
 35 36  1  6  0  0  0
 35 37  1  0  0  0  0
 35 40  1  0  0  0  0
 37 38  1  6  0  0  0
 37 39  1  0  0  0  0
 39 66  1  0  0  0  0
 40 67  1  0  0  0  0
 41 42  1  0  0  0  0
 41 45  1  0  0  0  0
 42 43  2  0  0  0  0
 42 68  1  0  0  0  0
 43 44  1  0  0  0  0
 44 45  2  0  0  0  0
 44 50  1  0  0  0  0
 45 46  1  0  0  0  0
 46 47  2  0  0  0  0
 47 48  1  0  0  0  0
 47 69  1  0  0  0  0
 48 49  1  0  0  0  0
 48 50  2  0  0  0  0
 50 51  1  0  0  0  0
 51 70  1  0  0  0  0
 51 71  1  0  0  0  0
M  CHG  4  12   1  48   1  52  -1  53  -1
M  END
$$$$
