NAR
 OpenBabel04121316163D

 32 34  0  0  1  0  0  0  0  0999 V2000
    0.9435   -0.0188    0.0022 O   0  0  0  0  0  0  0  0  0  0  0  0
    2.3015    0.0541   -0.0672 C   0  0  0  0  0  0  0  0  0  0  0  0
    2.9798    1.2690   -0.0774 C   0  0  0  0  0  0  0  0  0  0  0  0
    4.3663    1.2932   -0.2796 C   0  0  0  0  0  0  0  0  0  0  0  0
    5.0974    0.1016   -0.3559 C   0  0  0  0  0  0  0  0  0  0  0  0
    4.3831   -1.1119   -0.2342 C   0  0  0  0  0  0  0  0  0  0  0  0
    2.9951   -1.1378   -0.1383 C   0  0  0  0  0  0  0  0  0  0  0  0
    6.5962    0.1016   -0.6661 C   0  0  2  0  0  0  0  0  0  0  0  0
    6.6816   -0.0027   -1.7593 H   0  0  0  0  0  0  0  0  0  0  0  0
    7.2819   -1.0422    0.0593 C   0  0  0  0  0  0  0  0  0  0  0  0
    8.6551   -1.1281   -0.4979 C   0  0  0  0  0  0  0  0  0  0  0  0
    9.1133   -2.1881   -0.8894 O   0  0  0  0  0  0  0  0  0  0  0  0
    9.3742    0.1559   -0.5346 C   0  0  0  0  0  0  0  0  0  0  0  0
    8.6228    1.3371   -0.4306 C   0  0  0  0  0  0  0  0  0  0  0  0
    7.2446    1.3554   -0.3136 O   0  0  0  0  0  0  0  0  0  0  0  0
    9.2917    2.5687   -0.4070 C   0  0  0  0  0  0  0  0  0  0  0  0
   10.6874    2.5923   -0.5073 C   0  0  0  0  0  0  0  0  0  0  0  0
   11.4271    1.4165   -0.6134 C   0  0  0  0  0  0  0  0  0  0  0  0
   10.7671    0.1949   -0.6205 C   0  0  0  0  0  0  0  0  0  0  0  0
   11.4813   -0.9655   -0.6716 O   0  0  0  0  0  0  0  0  0  0  0  0
   11.3994    3.7574   -0.5028 O   0  0  0  0  0  0  0  0  0  0  0  0
    0.5827    0.8805   -0.0425 H   0  0  0  0  0  0  0  0  0  0  0  0
    2.4497    2.2054    0.0592 H   0  0  0  0  0  0  0  0  0  0  0  0
    4.8694    2.2521   -0.3814 H   0  0  0  0  0  0  0  0  0  0  0  0
    4.8745   -2.0804   -0.2265 H   0  0  0  0  0  0  0  0  0  0  0  0
    2.4681   -2.0878   -0.1256 H   0  0  0  0  0  0  0  0  0  0  0  0
    6.8281   -2.0157   -0.1315 H   0  0  0  0  0  0  0  0  0  0  0  0
    7.3272   -0.8775    1.1409 H   0  0  0  0  0  0  0  0  0  0  0  0
    8.7268    3.4918   -0.3142 H   0  0  0  0  0  0  0  0  0  0  0  0
   12.5094    1.4679   -0.6761 H   0  0  0  0  0  0  0  0  0  0  0  0
   12.4277   -0.7894   -0.7766 H   0  0  0  0  0  0  0  0  0  0  0  0
   10.7946    4.5144   -0.4391 H   0  0  0  0  0  0  0  0  0  0  0  0
  1  2  1  0  0  0  0
  1 22  1  0  0  0  0
  2  3  2  0  0  0  0
  2  7  1  0  0  0  0
  3  4  1  0  0  0  0
  3 23  1  0  0  0  0
  4  5  2  0  0  0  0
  4 24  1  0  0  0  0
  5  6  1  0  0  0  0
  5  8  1  0  0  0  0
  6  7  2  0  0  0  0
  6 25  1  0  0  0  0
  7 26  1  0  0  0  0
  8  9  1  6  0  0  0
  8 10  1  0  0  0  0
  8 15  1  0  0  0  0
 10 11  1  0  0  0  0
 10 27  1  0  0  0  0
 10 28  1  0  0  0  0
 11 12  2  0  0  0  0
 11 13  1  0  0  0  0
 13 14  2  0  0  0  0
 13 19  1  0  0  0  0
 14 15  1  0  0  0  0
 14 16  1  0  0  0  0
 16 17  2  0  0  0  0
 16 29  1  0  0  0  0
 17 18  1  0  0  0  0
 17 21  1  0  0  0  0
 18 19  2  0  0  0  0
 18 30  1  0  0  0  0
 19 20  1  0  0  0  0
 20 31  1  0  0  0  0
 21 32  1  0  0  0  0
M  END
$$$$
