NBP
 OpenBabel04121316163D

 76 80  0  0  1  0  0  0  0  0999 V2000
    4.6039    0.5595    3.5242 O   0  0  0  0  0  0  0  0  0  0  0  0
    3.7067    0.9901    4.5582 C   0  0  2  0  0  0  0  0  0  0  0  0
    3.5965    0.1525    5.2517 H   0  0  0  0  0  0  0  0  0  0  0  0
    2.3663    1.4455    4.0347 C   0  0  2  0  0  0  0  0  0  0  0  0
    1.6755    1.4138    4.8856 H   0  0  0  0  0  0  0  0  0  0  0  0
    1.8664    0.5967    3.0298 O   0  0  0  0  0  0  0  0  0  0  0  0
    2.6510    2.8879    3.6300 C   0  0  2  0  0  0  0  0  0  0  0  0
    3.1506    2.9507    2.6536 H   0  0  0  0  0  0  0  0  0  0  0  0
    3.6025    3.3918    4.6035 O   0  0  0  0  0  0  0  0  0  0  0  0
    4.2362    2.2621    5.2142 C   0  0  1  0  0  0  0  0  0  0  0  0
    5.3162    2.3792    5.0531 H   0  0  0  0  0  0  0  0  0  0  0  0
    4.0382    2.2406    6.6841 N   0  3  0  0  0  0  0  0  0  0  0  0
    3.0899    3.0053    7.2743 C   0  0  0  0  0  0  0  0  0  0  0  0
    2.9801    3.0367    8.6593 C   0  0  0  0  0  0  0  0  0  0  0  0
    3.9165    2.3620    9.4348 C   0  0  0  0  0  0  0  0  0  0  0  0
    4.8893    1.5760    8.8188 C   0  0  0  0  0  0  0  0  0  0  0  0
    4.8798    1.4813    7.4329 C   0  0  0  0  0  0  0  0  0  0  0  0
    5.9187    0.9150    9.6524 C   0  0  0  0  0  0  0  0  0  0  0  0
    5.9342    1.0840   10.8742 O   0  0  0  0  0  0  0  0  0  0  0  0
    6.8765    0.1518    9.0568 N   0  0  0  0  0  0  0  0  0  0  0  0
    1.4147    3.7742    3.5970 C   0  0  0  0  0  0  0  0  0  0  0  0
    0.3944    3.2222    4.3943 O   0  0  0  0  0  0  0  0  0  0  0  0
   -1.1773    3.0969    3.9838 P   0  0  2  0  0  0  0  0  0  0  0  0
   -1.3444    2.7795    2.5215 O   0  0  0  0  0  0  0  0  0  0  0  0
   -1.7342    4.5588    4.2927 O   0  0  0  0  0  0  0  0  0  0  0  0
   -1.6960    5.9690    3.5127 P   0  0  2  0  0  0  0  0  0  0  0  0
   -2.9115    6.5464    4.2704 O   0  0  0  0  0  0  0  0  0  0  0  0
   -2.6049    5.7303    2.1292 O   0  0  0  0  0  0  0  0  0  0  0  0
   -3.9247    6.3414    2.2041 C   0  0  0  0  0  0  0  0  0  0  0  0
   -4.7405    6.3167    0.9483 C   0  0  1  0  0  0  0  0  0  0  0  0
   -5.7401    6.7111    1.1794 H   0  0  0  0  0  0  0  0  0  0  0  0
   -4.1875    7.1294   -0.1106 O   0  0  0  0  0  0  0  0  0  0  0  0
   -4.7584    6.5866   -1.3225 C   0  0  2  0  0  0  0  0  0  0  0  0
   -5.7566    7.0118   -1.4922 H   0  0  0  0  0  0  0  0  0  0  0  0
   -4.7919    5.1115   -1.0271 C   0  0  1  0  0  0  0  0  0  0  0  0
   -3.8086    4.7478   -1.3324 H   0  0  0  0  0  0  0  0  0  0  0  0
   -4.8285    4.9029    0.4599 C   0  0  2  0  0  0  0  0  0  0  0  0
   -3.9672    4.2947    0.7636 H   0  0  0  0  0  0  0  0  0  0  0  0
   -6.0124    4.2422    0.9119 O   0  0  0  0  0  0  0  0  0  0  0  0
   -5.8572    4.4536   -1.6681 O   0  0  0  0  0  0  0  0  0  0  0  0
   -5.8327    2.7534   -1.3490 P   0  0  0  0  0  0  0  0  0  0  0  0
   -6.4292    2.4497   -2.7184 O   0  0  0  0  0  0  0  0  0  0  0  0
   -4.2130    2.6938   -1.4666 O   0  0  0  0  0  0  0  0  0  0  0  0
   -5.8081    1.0533   -1.0298 O   0  0  0  0  0  0  0  0  0  0  0  0
   -3.9445    6.9271   -2.4918 N   0  0  0  0  0  0  0  0  0  0  0  0
   -3.5049    8.1872   -2.8295 C   0  0  0  0  0  0  0  0  0  0  0  0
   -3.7559    9.7618   -1.8380 Br  0  0  0  0  0  0  0  0  0  0  0  0
   -2.8681    8.2047   -3.9828 N   0  0  0  0  0  0  0  0  0  0  0  0
   -2.9059    6.9063   -4.4343 C   0  0  0  0  0  0  0  0  0  0  0  0
   -3.5691    6.0894   -3.5335 C   0  0  0  0  0  0  0  0  0  0  0  0
   -3.7702    4.7622   -3.6788 N   0  0  0  0  0  0  0  0  0  0  0  0
   -3.2676    4.2969   -4.8403 C   0  0  0  0  0  0  0  0  0  0  0  0
   -2.5991    4.9792   -5.7887 N   0  0  0  0  0  0  0  0  0  0  0  0
   -2.4016    6.3016   -5.6014 C   0  0  0  0  0  0  0  0  0  0  0  0
   -1.7037    6.9969   -6.5624 N   0  0  0  0  0  0  0  0  0  0  0  0
   -0.3343    5.3223    2.6640 O   0  0  0  0  0  0  0  0  0  0  0  0
   -1.7306    2.1774    5.0466 O   0  5  0  0  0  0  0  0  0  0  0  0
    4.5931    1.1927    2.7835 H   0  0  0  0  0  0  0  0  0  0  0  0
    2.3820    0.6557    2.2126 H   0  0  0  0  0  0  0  0  0  0  0  0
    2.4292    3.5950    6.6428 H   0  0  0  0  0  0  0  0  0  0  0  0
    2.1783    3.6018    9.1301 H   0  0  0  0  0  0  0  0  0  0  0  0
    3.8832    2.4500   10.5217 H   0  0  0  0  0  0  0  0  0  0  0  0
    5.5393    0.8205    6.8828 H   0  0  0  0  0  0  0  0  0  0  0  0
    6.9817   -0.0687    8.0789 H   0  0  0  0  0  0  0  0  0  0  0  0
    7.5641   -0.2651    9.6783 H   0  0  0  0  0  0  0  0  0  0  0  0
    1.6363    4.7521    4.0435 H   0  0  0  0  0  0  0  0  0  0  0  0
    1.1625    3.8848    2.5406 H   0  0  0  0  0  0  0  0  0  0  0  0
   -3.8217    7.3966    2.4852 H   0  0  0  0  0  0  0  0  0  0  0  0
   -4.5046    5.7866    2.9576 H   0  0  0  0  0  0  0  0  0  0  0  0
   -5.7437    3.3291    1.1384 H   0  0  0  0  0  0  0  0  0  0  0  0
   -3.9045    2.9069   -2.3650 H   0  0  0  0  0  0  0  0  0  0  0  0
   -6.7173    0.7216   -1.1352 H   0  0  0  0  0  0  0  0  0  0  0  0
   -3.4103    3.2356   -5.0341 H   0  0  0  0  0  0  0  0  0  0  0  0
   -1.4114    6.5047   -7.3912 H   0  0  0  0  0  0  0  0  0  0  0  0
   -1.5957    7.9950   -6.4582 H   0  0  0  0  0  0  0  0  0  0  0  0
   -0.2841    5.7841    1.8079 H   0  0  0  0  0  0  0  0  0  0  0  0
  1 58  1  0  0  0  0
  2  4  1  0  0  0  0
  2 10  1  0  0  0  0
  2  3  1  1  0  0  0
  2  1  1  0  0  0  0
  4  7  1  0  0  0  0
  4  6  1  0  0  0  0
  4  5  1  1  0  0  0
  6 59  1  0  0  0  0
  7  9  1  0  0  0  0
  7 21  1  0  0  0  0
  7  8  1  6  0  0  0
  9 10  1  0  0  0  0
 10 12  1  0  0  0  0
 10 11  1  6  0  0  0
 12 13  2  0  0  0  0
 12 17  1  0  0  0  0
 13 14  1  0  0  0  0
 13 60  1  0  0  0  0
 14 15  2  0  0  0  0
 14 61  1  0  0  0  0
 15 16  1  0  0  0  0
 15 62  1  0  0  0  0
 16 17  2  0  0  0  0
 16 18  1  0  0  0  0
 17 63  1  0  0  0  0
 18 19  2  0  0  0  0
 18 20  1  0  0  0  0
 20 64  1  0  0  0  0
 20 65  1  0  0  0  0
 21 22  1  0  0  0  0
 21 66  1  0  0  0  0
 21 67  1  0  0  0  0
 23 25  1  1  0  0  0
 23 57  1  0  0  0  0
 23 24  2  0  0  0  0
 23 22  1  0  0  0  0
 26 28  1  6  0  0  0
 26 56  1  0  0  0  0
 26 27  2  0  0  0  0
 26 25  1  0  0  0  0
 28 29  1  0  0  0  0
 29 30  1  0  0  0  0
 29 68  1  0  0  0  0
 29 69  1  0  0  0  0
 30 31  1  1  0  0  0
 30 32  1  0  0  0  0
 30 37  1  0  0  0  0
 32 33  1  0  0  0  0
 33 35  1  0  0  0  0
 33 45  1  0  0  0  0
 33 34  1  6  0  0  0
 35 36  1  6  0  0  0
 35 37  1  0  0  0  0
 35 40  1  0  0  0  0
 37 38  1  1  0  0  0
 37 39  1  0  0  0  0
 39 70  1  0  0  0  0
 40 41  1  0  0  0  0
 41 42  2  0  0  0  0
 41 43  1  0  0  0  0
 41 44  1  0  0  0  0
 43 71  1  0  0  0  0
 44 72  1  0  0  0  0
 45 46  1  0  0  0  0
 45 50  1  0  0  0  0
 46 47  1  0  0  0  0
 46 48  2  0  0  0  0
 48 49  1  0  0  0  0
 49 50  2  0  0  0  0
 49 54  1  0  0  0  0
 50 51  1  0  0  0  0
 51 52  2  0  0  0  0
 52 53  1  0  0  0  0
 52 73  1  0  0  0  0
 53 54  2  0  0  0  0
 54 55  1  0  0  0  0
 55 74  1  0  0  0  0
 55 75  1  0  0  0  0
 56 76  1  0  0  0  0
M  CHG  2  12   1  57  -1
M  END
$$$$
