NCA
 OpenBabel04121316163D

 15 15  0  0  0  0  0  0  0  0999 V2000
    1.0724    0.0898    0.0362 N   0  0  0  0  0  0  0  0  0  0  0  0
    2.4352    0.0537    0.0922 C   0  0  0  0  0  0  0  0  0  0  0  0
    3.0560   -0.0550    1.1415 O   0  0  0  0  0  0  0  0  0  0  0  0
    3.1247    0.1655   -1.1943 C   0  0  0  0  0  0  0  0  0  0  0  0
    3.3478    1.4118   -1.7730 C   0  0  0  0  0  0  0  0  0  0  0  0
    3.9866    1.4713   -3.0084 C   0  0  0  0  0  0  0  0  0  0  0  0
    4.2944    0.2789   -3.6483 C   0  0  0  0  0  0  0  0  0  0  0  0
    4.1179   -0.9409   -3.0904 N   0  0  0  0  0  0  0  0  0  0  0  0
    3.5782   -0.9686   -1.8467 C   0  0  0  0  0  0  0  0  0  0  0  0
    0.5586    0.0106    0.9050 H   0  0  0  0  0  0  0  0  0  0  0  0
    0.5500    0.1526   -0.8281 H   0  0  0  0  0  0  0  0  0  0  0  0
    3.0484    2.3204   -1.2599 H   0  0  0  0  0  0  0  0  0  0  0  0
    4.2387    2.4228   -3.4632 H   0  0  0  0  0  0  0  0  0  0  0  0
    4.7063    0.2749   -4.6543 H   0  0  0  0  0  0  0  0  0  0  0  0
    3.5280   -1.9497   -1.3838 H   0  0  0  0  0  0  0  0  0  0  0  0
  1  2  1  0  0  0  0
  1 10  1  0  0  0  0
  1 11  1  0  0  0  0
  2  3  2  0  0  0  0
  2  4  1  0  0  0  0
  4  5  2  0  0  0  0
  4  9  1  0  0  0  0
  5  6  1  0  0  0  0
  5 12  1  0  0  0  0
  6  7  2  0  0  0  0
  6 13  1  0  0  0  0
  7  8  1  0  0  0  0
  7 14  1  0  0  0  0
  8  9  2  0  0  0  0
  9 15  1  0  0  0  0
M  END
$$$$
