NCD
 OpenBabel04121316163D

 20 19  0  0  1  0  0  0  0  0999 V2000
    0.8901    0.2654    0.2869 O   0  0  0  0  0  0  0  0  0  0  0  0
    2.1859   -0.0626    0.1483 C   0  0  0  0  0  0  0  0  0  0  0  0
    2.6000   -0.8039   -0.7397 O   0  0  0  0  0  0  0  0  0  0  0  0
    3.0260    0.7523    1.0792 C   0  0  0  0  0  0  0  0  0  0  0  0
    4.5236    0.6089    0.8061 C   0  0  1  0  0  0  0  0  0  0  0  0
    4.8353   -0.4415    0.8434 H   0  0  0  0  0  0  0  0  0  0  0  0
    4.9134    1.2097   -0.5813 C   0  0  0  0  0  0  0  0  0  0  0  0
    5.5695    2.2341   -0.7292 O   0  0  0  0  0  0  0  0  0  0  0  0
    4.4391    0.5535   -1.6660 O   0  0  0  0  0  0  0  0  0  0  0  0
    5.2807    1.3101    1.8633 N   0  0  0  0  0  0  0  0  0  0  0  0
    6.6429    1.2638    1.8623 C   0  0  0  0  0  0  0  0  0  0  0  0
    7.3083    0.5788    1.0999 O   0  0  0  0  0  0  0  0  0  0  0  0
    7.2266    2.0434    2.7983 N   0  0  0  0  0  0  0  0  0  0  0  0
    0.4903    0.3375   -0.6043 H   0  0  0  0  0  0  0  0  0  0  0  0
    2.7780    0.4395    2.0994 H   0  0  0  0  0  0  0  0  0  0  0  0
    2.7248    1.8007    0.9528 H   0  0  0  0  0  0  0  0  0  0  0  0
    3.8989   -0.2539   -1.4936 H   0  0  0  0  0  0  0  0  0  0  0  0
    4.8213    1.9643    2.4791 H   0  0  0  0  0  0  0  0  0  0  0  0
    6.7375    2.6613    3.4229 H   0  0  0  0  0  0  0  0  0  0  0  0
    8.2369    2.0927    2.7617 H   0  0  0  0  0  0  0  0  0  0  0  0
  1  2  1  0  0  0  0
  1 14  1  0  0  0  0
  2  3  2  0  0  0  0
  2  4  1  0  0  0  0
  4  5  1  0  0  0  0
  4 15  1  0  0  0  0
  4 16  1  0  0  0  0
  5  6  1  1  0  0  0
  5  7  1  0  0  0  0
  5 10  1  0  0  0  0
  7  8  2  0  0  0  0
  7  9  1  0  0  0  0
  9 17  1  0  0  0  0
 10 11  1  0  0  0  0
 10 18  1  0  0  0  0
 11 12  2  0  0  0  0
 11 13  1  0  0  0  0
 13 19  1  0  0  0  0
 13 20  1  0  0  0  0
M  END
$$$$
