NCK
 OpenBabel04121316163D

 79 83  0  0  0  0  0  0  0  0999 V2000
    1.0140    0.0369    0.0283 C   0  0  0  0  0  0  0  0  0  0  0  0
    2.5442    0.0248   -0.0353 C   0  0  0  0  0  0  0  0  0  0  0  0
    3.0481   -1.3746   -0.4189 C   0  0  0  0  0  0  0  0  0  0  0  0
    2.6731   -1.7106   -1.8690 C   0  0  0  0  0  0  0  0  0  0  0  0
    3.1467   -0.6973   -2.8338 N   0  0  0  0  0  0  0  0  0  0  0  0
    2.6433    0.6416   -2.4764 C   0  0  0  0  0  0  0  0  0  0  0  0
    3.0352    1.0619   -1.0552 C   0  0  0  0  0  0  0  0  0  0  0  0
    4.6152   -0.7349   -2.8804 C   0  0  0  0  0  0  0  0  0  0  0  0
    5.1905    0.2135   -3.9188 C   0  0  0  0  0  0  0  0  0  0  0  0
    6.6837    0.1249   -3.8288 C   0  0  0  0  0  0  0  0  0  0  0  0
    7.2500   -0.5684   -2.9988 O   0  0  0  0  0  0  0  0  0  0  0  0
    7.3173    0.9692   -4.7258 N   0  0  0  0  0  0  0  0  0  0  0  0
    8.7132    1.0276   -4.7357 C   0  0  0  0  0  0  0  0  0  0  0  0
    9.3415    2.2669   -4.7624 C   0  0  0  0  0  0  0  0  0  0  0  0
   10.7239    2.3045   -4.7154 C   0  0  0  0  0  0  0  0  0  0  0  0
   11.4463    1.1052   -4.6873 C   0  0  0  0  0  0  0  0  0  0  0  0
   10.8239   -0.1588   -4.6851 C   0  0  0  0  0  0  0  0  0  0  0  0
    9.4512   -0.1642   -4.6994 C   0  0  0  0  0  0  0  0  0  0  0  0
   11.5005   -1.3296   -4.6774 N   0  0  0  0  0  0  0  0  0  0  0  0
   12.8426   -1.2940   -4.6664 C   0  0  0  0  0  0  0  0  0  0  0  0
   13.5146   -0.0522   -4.6614 C   0  0  0  0  0  0  0  0  0  0  0  0
   12.8199    1.1413   -4.6677 C   0  0  0  0  0  0  0  0  0  0  0  0
   14.8829    0.0273   -4.6546 C   0  0  0  0  0  0  0  0  0  0  0  0
   15.6110   -1.1372   -4.6514 C   0  0  0  0  0  0  0  0  0  0  0  0
   15.0151   -2.4019   -4.6523 C   0  0  0  0  0  0  0  0  0  0  0  0
   13.6149   -2.4660   -4.6617 C   0  0  0  0  0  0  0  0  0  0  0  0
   15.8102   -3.5837   -4.6386 N   0  0  0  0  0  0  0  0  0  0  0  0
   17.1964   -3.5571   -4.6072 C   0  0  0  0  0  0  0  0  0  0  0  0
   17.8741   -2.5287   -4.6095 O   0  0  0  0  0  0  0  0  0  0  0  0
   17.9161   -4.8870   -4.5822 C   0  0  0  0  0  0  0  0  0  0  0  0
   19.4157   -4.5430   -4.5030 C   0  0  0  0  0  0  0  0  0  0  0  0
   20.3742   -5.5777   -4.7969 N   0  0  0  0  0  0  0  0  0  0  0  0
   20.5939   -6.7474   -3.9699 C   0  0  0  0  0  0  0  0  0  0  0  0
   20.1943   -8.0539   -4.6711 C   0  0  0  0  0  0  0  0  0  0  0  0
   20.7609   -8.1286   -6.0983 C   0  0  0  0  0  0  0  0  0  0  0  0
   20.2931   -6.8916   -6.8647 C   0  0  0  0  0  0  0  0  0  0  0  0
   20.7858   -5.6263   -6.1853 C   0  0  0  0  0  0  0  0  0  0  0  0
   22.2924   -8.2174   -6.0925 C   0  0  0  0  0  0  0  0  0  0  0  0
    0.6521   -0.7049    0.7438 H   0  0  0  0  0  0  0  0  0  0  0  0
    0.5513   -0.2010   -0.9345 H   0  0  0  0  0  0  0  0  0  0  0  0
    0.6502    1.0257    0.3183 H   0  0  0  0  0  0  0  0  0  0  0  0
    2.9382    0.2844    0.9545 H   0  0  0  0  0  0  0  0  0  0  0  0
    2.6398   -2.1329    0.2580 H   0  0  0  0  0  0  0  0  0  0  0  0
    4.1369   -1.4247   -0.2855 H   0  0  0  0  0  0  0  0  0  0  0  0
    1.5849   -1.8044   -1.9615 H   0  0  0  0  0  0  0  0  0  0  0  0
    3.0607   -2.7021   -2.1341 H   0  0  0  0  0  0  0  0  0  0  0  0
    1.5541    0.6524   -2.5926 H   0  0  0  0  0  0  0  0  0  0  0  0
    2.9727    1.3993   -3.1943 H   0  0  0  0  0  0  0  0  0  0  0  0
    2.6231    2.0520   -0.8311 H   0  0  0  0  0  0  0  0  0  0  0  0
    4.1247    1.1757   -0.9756 H   0  0  0  0  0  0  0  0  0  0  0  0
    4.9454   -1.7578   -3.1073 H   0  0  0  0  0  0  0  0  0  0  0  0
    5.0593   -0.4942   -1.9070 H   0  0  0  0  0  0  0  0  0  0  0  0
    4.9259    1.2550   -3.7118 H   0  0  0  0  0  0  0  0  0  0  0  0
    4.8516   -0.0563   -4.9225 H   0  0  0  0  0  0  0  0  0  0  0  0
    6.7942    1.7375   -5.1238 H   0  0  0  0  0  0  0  0  0  0  0  0
    8.7809    3.1956   -4.7420 H   0  0  0  0  0  0  0  0  0  0  0  0
   11.2389    3.2620   -4.6920 H   0  0  0  0  0  0  0  0  0  0  0  0
    8.9426   -1.1252   -4.6932 H   0  0  0  0  0  0  0  0  0  0  0  0
   13.3506    2.0890   -4.6658 H   0  0  0  0  0  0  0  0  0  0  0  0
   15.4149    0.9730   -4.6521 H   0  0  0  0  0  0  0  0  0  0  0  0
   16.6751   -0.9661   -4.6466 H   0  0  0  0  0  0  0  0  0  0  0  0
   13.0914   -3.4196   -4.6625 H   0  0  0  0  0  0  0  0  0  0  0  0
   15.3320   -4.4773   -4.6438 H   0  0  0  0  0  0  0  0  0  0  0  0
   17.6776   -5.4242   -5.5052 H   0  0  0  0  0  0  0  0  0  0  0  0
   17.6000   -5.4678   -3.7124 H   0  0  0  0  0  0  0  0  0  0  0  0
   19.6531   -4.0533   -3.5493 H   0  0  0  0  0  0  0  0  0  0  0  0
   19.6097   -3.7453   -5.2363 H   0  0  0  0  0  0  0  0  0  0  0  0
   20.1226   -6.6879   -2.9814 H   0  0  0  0  0  0  0  0  0  0  0  0
   21.6702   -6.7999   -3.7579 H   0  0  0  0  0  0  0  0  0  0  0  0
   19.0991   -8.1221   -4.7080 H   0  0  0  0  0  0  0  0  0  0  0  0
   20.5449   -8.9191   -4.0946 H   0  0  0  0  0  0  0  0  0  0  0  0
   20.3643   -9.0217   -6.5955 H   0  0  0  0  0  0  0  0  0  0  0  0
   19.1950   -6.8797   -6.9099 H   0  0  0  0  0  0  0  0  0  0  0  0
   20.6523   -6.9098   -7.8981 H   0  0  0  0  0  0  0  0  0  0  0  0
   20.4287   -4.7674   -6.7645 H   0  0  0  0  0  0  0  0  0  0  0  0
   21.8762   -5.5429   -6.2162 H   0  0  0  0  0  0  0  0  0  0  0  0
   22.7658   -7.3610   -5.6019 H   0  0  0  0  0  0  0  0  0  0  0  0
   22.6789   -8.2489   -7.1157 H   0  0  0  0  0  0  0  0  0  0  0  0
   22.6279   -9.1085   -5.5572 H   0  0  0  0  0  0  0  0  0  0  0  0
  1  2  1  0  0  0  0
  1 39  1  0  0  0  0
  1 40  1  0  0  0  0
  1 41  1  0  0  0  0
  2  3  1  0  0  0  0
  2  7  1  0  0  0  0
  2 42  1  0  0  0  0
  3  4  1  0  0  0  0
  3 43  1  0  0  0  0
  3 44  1  0  0  0  0
  4  5  1  0  0  0  0
  4 45  1  0  0  0  0
  4 46  1  0  0  0  0
  5  6  1  0  0  0  0
  5  8  1  0  0  0  0
  6  7  1  0  0  0  0
  6 47  1  0  0  0  0
  6 48  1  0  0  0  0
  7 49  1  0  0  0  0
  7 50  1  0  0  0  0
  8  9  1  0  0  0  0
  8 51  1  0  0  0  0
  8 52  1  0  0  0  0
  9 10  1  0  0  0  0
  9 53  1  0  0  0  0
  9 54  1  0  0  0  0
 10 11  2  0  0  0  0
 10 12  1  0  0  0  0
 12 13  1  0  0  0  0
 12 55  1  0  0  0  0
 13 14  2  0  0  0  0
 13 18  1  0  0  0  0
 14 15  1  0  0  0  0
 14 56  1  0  0  0  0
 15 16  2  0  0  0  0
 15 57  1  0  0  0  0
 16 17  1  0  0  0  0
 16 22  1  0  0  0  0
 17 18  2  0  0  0  0
 17 19  1  0  0  0  0
 18 58  1  0  0  0  0
 19 20  2  0  0  0  0
 20 21  1  0  0  0  0
 20 26  1  0  0  0  0
 21 22  2  0  0  0  0
 21 23  1  0  0  0  0
 22 59  1  0  0  0  0
 23 24  2  0  0  0  0
 23 60  1  0  0  0  0
 24 25  1  0  0  0  0
 24 61  1  0  0  0  0
 25 26  2  0  0  0  0
 25 27  1  0  0  0  0
 26 62  1  0  0  0  0
 27 28  1  0  0  0  0
 27 63  1  0  0  0  0
 28 29  2  0  0  0  0
 28 30  1  0  0  0  0
 30 31  1  0  0  0  0
 30 64  1  0  0  0  0
 30 65  1  0  0  0  0
 31 32  1  0  0  0  0
 31 66  1  0  0  0  0
 31 67  1  0  0  0  0
 32 33  1  0  0  0  0
 32 37  1  0  0  0  0
 33 34  1  0  0  0  0
 33 68  1  0  0  0  0
 33 69  1  0  0  0  0
 34 35  1  0  0  0  0
 34 70  1  0  0  0  0
 34 71  1  0  0  0  0
 35 36  1  0  0  0  0
 35 38  1  0  0  0  0
 35 72  1  0  0  0  0
 36 37  1  0  0  0  0
 36 73  1  0  0  0  0
 36 74  1  0  0  0  0
 37 75  1  0  0  0  0
 37 76  1  0  0  0  0
 38 77  1  0  0  0  0
 38 78  1  0  0  0  0
 38 79  1  0  0  0  0
M  END
$$$$
