NCN
 OpenBabel04121316163D

 36 37  0  0  1  0  0  0  0  0999 V2000
    2.9926    0.0846   -1.3914 O   0  0  0  0  0  0  0  0  0  0  0  0
    2.5375    0.0411   -0.0325 C   0  0  2  0  0  0  0  0  0  0  0  0
    1.4566    0.1460   -0.0951 H   0  0  0  0  0  0  0  0  0  0  0  0
    3.0813    1.1605    0.8240 C   0  0  2  0  0  0  0  0  0  0  0  0
    2.4245    1.2400    1.7001 H   0  0  0  0  0  0  0  0  0  0  0  0
    3.0900    2.4020    0.1590 O   0  0  0  0  0  0  0  0  0  0  0  0
    4.4428    0.6191    1.2226 C   0  0  2  0  0  0  0  0  0  0  0  0
    5.1675    0.7054    0.4035 H   0  0  0  0  0  0  0  0  0  0  0  0
    4.2246   -0.8054    1.4460 O   0  0  0  0  0  0  0  0  0  0  0  0
    3.0604   -1.2167    0.6829 C   0  0  1  0  0  0  0  0  0  0  0  0
    3.3727   -1.9974   -0.0225 H   0  0  0  0  0  0  0  0  0  0  0  0
    2.0502   -1.8694    1.5761 N   0  3  0  0  0  0  0  0  0  0  0  0
    0.7332   -1.8609    1.2552 C   0  0  0  0  0  0  0  0  0  0  0  0
   -0.2216   -2.3461    2.1293 C   0  0  0  0  0  0  0  0  0  0  0  0
    0.1816   -2.8085    3.3698 C   0  0  0  0  0  0  0  0  0  0  0  0
    1.5430   -2.8997    3.6756 C   0  0  0  0  0  0  0  0  0  0  0  0
    2.4650   -2.4957    2.7128 C   0  0  0  0  0  0  0  0  0  0  0  0
    1.9116   -3.3976    5.0193 C   0  0  0  0  0  0  0  0  0  0  0  0
    1.0330   -3.6874    5.8350 O   0  0  0  0  0  0  0  0  0  0  0  0
    3.2088   -3.5429    5.3008 O   0  0  0  0  0  0  0  0  0  0  0  0
    5.0342    1.3181    2.4442 C   0  0  0  0  0  0  0  0  0  0  0  0
    3.9917    1.6400    3.3507 O   0  0  0  0  0  0  0  0  0  0  0  0
    4.6152    2.4421    4.7509 P   0  0  1  0  0  0  0  0  0  0  0  0
    3.5111    3.4567    4.4486 O   0  0  0  0  0  0  0  0  0  0  0  0
    3.9756    1.1623    5.5483 O   0  0  0  0  0  0  0  0  0  0  0  0
    5.2388    3.2442    6.1512 O   0  5  0  0  0  0  0  0  0  0  0  0
    3.9625    0.1454   -1.4362 H   0  0  0  0  0  0  0  0  0  0  0  0
    3.5843    2.3488   -0.6730 H   0  0  0  0  0  0  0  0  0  0  0  0
    0.4212   -1.4562    0.2981 H   0  0  0  0  0  0  0  0  0  0  0  0
   -1.2744   -2.3300    1.8564 H   0  0  0  0  0  0  0  0  0  0  0  0
   -0.5741   -3.1062    4.0990 H   0  0  0  0  0  0  0  0  0  0  0  0
    3.5333   -2.6482    2.8111 H   0  0  0  0  0  0  0  0  0  0  0  0
    3.9235   -3.2279    4.7223 H   0  0  0  0  0  0  0  0  0  0  0  0
    5.7588    0.6718    2.9516 H   0  0  0  0  0  0  0  0  0  0  0  0
    5.5265    2.2499    2.1469 H   0  0  0  0  0  0  0  0  0  0  0  0
    3.1246    0.9839    5.1223 H   0  0  0  0  0  0  0  0  0  0  0  0
  1 27  1  0  0  0  0
  2  4  1  0  0  0  0
  2 10  1  0  0  0  0
  2  3  1  1  0  0  0
  2  1  1  0  0  0  0
  4  7  1  0  0  0  0
  4  6  1  0  0  0  0
  4  5  1  1  0  0  0
  6 28  1  0  0  0  0
  7  9  1  0  0  0  0
  7 21  1  0  0  0  0
  7  8  1  6  0  0  0
  9 10  1  0  0  0  0
 10 12  1  0  0  0  0
 10 11  1  6  0  0  0
 12 13  2  0  0  0  0
 12 17  1  0  0  0  0
 13 14  1  0  0  0  0
 13 29  1  0  0  0  0
 14 15  2  0  0  0  0
 14 30  1  0  0  0  0
 15 16  1  0  0  0  0
 15 31  1  0  0  0  0
 16 17  2  0  0  0  0
 16 18  1  0  0  0  0
 17 32  1  0  0  0  0
 18 19  2  0  0  0  0
 18 20  1  0  0  0  0
 20 33  1  0  0  0  0
 21 22  1  0  0  0  0
 21 34  1  0  0  0  0
 21 35  1  0  0  0  0
 23 22  1  6  0  0  0
 23 24  2  0  0  0  0
 23 25  1  0  0  0  0
 23 26  1  0  0  0  0
 25 36  1  0  0  0  0
M  CHG  2  12   1  26  -1
M  END
$$$$
