NCQ
 OpenBabel04121316163D

 79 83  0  0  0  0  0  0  0  0999 V2000
    0.9600   -0.0930    0.0973 O   0  0  0  0  0  0  0  0  0  0  0  0
    2.1868   -0.0660    0.1346 C   0  0  0  0  0  0  0  0  0  0  0  0
    2.9374    0.4824    1.1499 N   0  0  0  0  0  0  0  0  0  0  0  0
    2.2922    1.1085    2.2011 C   0  0  0  0  0  0  0  0  0  0  0  0
    1.5302    0.3193    3.0528 C   0  0  0  0  0  0  0  0  0  0  0  0
    0.9393    0.9115    4.1394 C   0  0  0  0  0  0  0  0  0  0  0  0
    1.0979    2.2827    4.3197 C   0  0  0  0  0  0  0  0  0  0  0  0
    1.8453    3.1047    3.4417 C   0  0  0  0  0  0  0  0  0  0  0  0
    2.4622    2.4801    2.3844 C   0  0  0  0  0  0  0  0  0  0  0  0
    1.9806    4.4375    3.6082 N   0  0  0  0  0  0  0  0  0  0  0  0
    1.3840    5.0028    4.6710 C   0  0  0  0  0  0  0  0  0  0  0  0
    0.6432    4.2115    5.5813 C   0  0  0  0  0  0  0  0  0  0  0  0
    0.4990    2.8585    5.4059 C   0  0  0  0  0  0  0  0  0  0  0  0
    0.0296    4.7341    6.6844 C   0  0  0  0  0  0  0  0  0  0  0  0
    0.1395    6.0753    6.9026 C   0  0  0  0  0  0  0  0  0  0  0  0
    0.8449    6.9192    6.0447 C   0  0  0  0  0  0  0  0  0  0  0  0
    1.4739    6.3736    4.9219 C   0  0  0  0  0  0  0  0  0  0  0  0
    0.9035    8.2976    6.3223 N   0  0  0  0  0  0  0  0  0  0  0  0
    0.2742    8.8558    7.4203 C   0  0  0  0  0  0  0  0  0  0  0  0
   -0.3774    8.2720    8.2925 O   0  0  0  0  0  0  0  0  0  0  0  0
    0.4443   10.3111    7.5438 C   0  0  0  0  0  0  0  0  0  0  0  0
   -0.2761   10.7644    8.8295 C   0  0  0  0  0  0  0  0  0  0  0  0
   -0.1695   12.2019    9.0967 N   0  0  0  0  0  0  0  0  0  0  0  0
    1.1022   12.7002    8.5706 C   0  0  0  0  0  0  0  0  0  0  0  0
    1.4174   14.1586    8.7905 C   0  0  0  0  0  0  0  0  0  0  0  0
    0.5579   15.0071    7.8639 C   0  0  0  0  0  0  0  0  0  0  0  0
   -0.7628   15.3978    8.5109 C   0  0  0  0  0  0  0  0  0  0  0  0
   -1.4489   14.2894    9.3074 C   0  0  0  0  0  0  0  0  0  0  0  0
   -1.3668   12.9162    8.6415 C   0  0  0  0  0  0  0  0  0  0  0  0
    2.9683   -0.6595   -0.9890 C   0  0  0  0  0  0  0  0  0  0  0  0
    4.4886   -0.5783   -0.8543 C   0  0  0  0  0  0  0  0  0  0  0  0
    5.1994   -1.1967   -1.9762 N   0  0  0  0  0  0  0  0  0  0  0  0
    4.9799   -2.6502   -1.9417 C   0  0  0  0  0  0  0  0  0  0  0  0
    5.6367   -3.4338   -3.0677 C   0  0  0  0  0  0  0  0  0  0  0  0
    4.8768   -3.2202   -4.3736 C   0  0  0  0  0  0  0  0  0  0  0  0
    5.4112   -2.0388   -5.1775 C   0  0  0  0  0  0  0  0  0  0  0  0
    5.8019   -0.8165   -4.3512 C   0  0  0  0  0  0  0  0  0  0  0  0
    4.8139   -0.5327   -3.2324 C   0  0  0  0  0  0  0  0  0  0  0  0
    3.8906    0.7713    0.9870 H   0  0  0  0  0  0  0  0  0  0  0  0
    1.4288   -0.7486    2.8861 H   0  0  0  0  0  0  0  0  0  0  0  0
    0.3649    0.3053    4.8331 H   0  0  0  0  0  0  0  0  0  0  0  0
    3.0247    3.0753    1.6715 H   0  0  0  0  0  0  0  0  0  0  0  0
   -0.0739    2.2639    6.1114 H   0  0  0  0  0  0  0  0  0  0  0  0
   -0.5388    4.1426    7.3932 H   0  0  0  0  0  0  0  0  0  0  0  0
   -0.3737    6.3936    7.7934 H   0  0  0  0  0  0  0  0  0  0  0  0
    2.0376    6.9914    4.2264 H   0  0  0  0  0  0  0  0  0  0  0  0
    1.4302    8.8950    5.6912 H   0  0  0  0  0  0  0  0  0  0  0  0
    0.0288   10.8081    6.6615 H   0  0  0  0  0  0  0  0  0  0  0  0
    1.5270   10.4752    7.6037 H   0  0  0  0  0  0  0  0  0  0  0  0
    0.1596   10.2406    9.6937 H   0  0  0  0  0  0  0  0  0  0  0  0
   -1.3278   10.4391    8.8145 H   0  0  0  0  0  0  0  0  0  0  0  0
    1.1420   12.5523    7.4836 H   0  0  0  0  0  0  0  0  0  0  0  0
    1.9166   12.1107    9.0111 H   0  0  0  0  0  0  0  0  0  0  0  0
    2.4730   14.2988    8.5337 H   0  0  0  0  0  0  0  0  0  0  0  0
    1.3022   14.4248    9.8455 H   0  0  0  0  0  0  0  0  0  0  0  0
    0.3546   14.4743    6.9227 H   0  0  0  0  0  0  0  0  0  0  0  0
    1.1096   15.9056    7.5748 H   0  0  0  0  0  0  0  0  0  0  0  0
   -1.4425   15.7482    7.7258 H   0  0  0  0  0  0  0  0  0  0  0  0
   -0.5863   16.2469    9.1797 H   0  0  0  0  0  0  0  0  0  0  0  0
   -2.4983   14.5651    9.4648 H   0  0  0  0  0  0  0  0  0  0  0  0
   -1.0151   14.2366   10.3164 H   0  0  0  0  0  0  0  0  0  0  0  0
   -1.4082   12.9831    7.5476 H   0  0  0  0  0  0  0  0  0  0  0  0
   -2.2683   12.3671    8.9484 H   0  0  0  0  0  0  0  0  0  0  0  0
    2.6300   -0.1475   -1.8952 H   0  0  0  0  0  0  0  0  0  0  0  0
    2.6338   -1.6993   -1.0390 H   0  0  0  0  0  0  0  0  0  0  0  0
    4.8205   -1.0435    0.0846 H   0  0  0  0  0  0  0  0  0  0  0  0
    4.8105    0.4703   -0.7837 H   0  0  0  0  0  0  0  0  0  0  0  0
    3.9125   -2.8924   -1.9675 H   0  0  0  0  0  0  0  0  0  0  0  0
    5.3538   -3.0398   -0.9859 H   0  0  0  0  0  0  0  0  0  0  0  0
    5.5965   -4.4958   -2.8019 H   0  0  0  0  0  0  0  0  0  0  0  0
    6.6968   -3.1726   -3.1596 H   0  0  0  0  0  0  0  0  0  0  0  0
    3.8062   -3.0695   -4.1704 H   0  0  0  0  0  0  0  0  0  0  0  0
    4.9300   -4.1252   -4.9860 H   0  0  0  0  0  0  0  0  0  0  0  0
    4.6467   -1.7466   -5.9082 H   0  0  0  0  0  0  0  0  0  0  0  0
    6.2865   -2.3615   -5.7499 H   0  0  0  0  0  0  0  0  0  0  0  0
    5.8619    0.0557   -5.0129 H   0  0  0  0  0  0  0  0  0  0  0  0
    6.8106   -0.9419   -3.9372 H   0  0  0  0  0  0  0  0  0  0  0  0
    3.7981   -0.8052   -3.5441 H   0  0  0  0  0  0  0  0  0  0  0  0
    4.8051    0.5549   -3.0758 H   0  0  0  0  0  0  0  0  0  0  0  0
  1  2  2  0  0  0  0
  2  3  1  0  0  0  0
  2 30  1  0  0  0  0
  3  4  1  0  0  0  0
  3 39  1  0  0  0  0
  4  5  2  0  0  0  0
  4  9  1  0  0  0  0
  5  6  1  0  0  0  0
  5 40  1  0  0  0  0
  6  7  2  0  0  0  0
  6 41  1  0  0  0  0
  7  8  1  0  0  0  0
  7 13  1  0  0  0  0
  8  9  2  0  0  0  0
  8 10  1  0  0  0  0
  9 42  1  0  0  0  0
 10 11  2  0  0  0  0
 11 12  1  0  0  0  0
 11 17  1  0  0  0  0
 12 13  2  0  0  0  0
 12 14  1  0  0  0  0
 13 43  1  0  0  0  0
 14 15  2  0  0  0  0
 14 44  1  0  0  0  0
 15 16  1  0  0  0  0
 15 45  1  0  0  0  0
 16 17  2  0  0  0  0
 16 18  1  0  0  0  0
 17 46  1  0  0  0  0
 18 19  1  0  0  0  0
 18 47  1  0  0  0  0
 19 20  2  0  0  0  0
 19 21  1  0  0  0  0
 21 22  1  0  0  0  0
 21 48  1  0  0  0  0
 21 49  1  0  0  0  0
 22 23  1  0  0  0  0
 22 50  1  0  0  0  0
 22 51  1  0  0  0  0
 23 24  1  0  0  0  0
 23 29  1  0  0  0  0
 24 25  1  0  0  0  0
 24 52  1  0  0  0  0
 24 53  1  0  0  0  0
 25 26  1  0  0  0  0
 25 54  1  0  0  0  0
 25 55  1  0  0  0  0
 26 27  1  0  0  0  0
 26 56  1  0  0  0  0
 26 57  1  0  0  0  0
 27 28  1  0  0  0  0
 27 58  1  0  0  0  0
 27 59  1  0  0  0  0
 28 29  1  0  0  0  0
 28 60  1  0  0  0  0
 28 61  1  0  0  0  0
 29 62  1  0  0  0  0
 29 63  1  0  0  0  0
 30 31  1  0  0  0  0
 30 64  1  0  0  0  0
 30 65  1  0  0  0  0
 31 32  1  0  0  0  0
 31 66  1  0  0  0  0
 31 67  1  0  0  0  0
 32 33  1  0  0  0  0
 32 38  1  0  0  0  0
 33 34  1  0  0  0  0
 33 68  1  0  0  0  0
 33 69  1  0  0  0  0
 34 35  1  0  0  0  0
 34 70  1  0  0  0  0
 34 71  1  0  0  0  0
 35 36  1  0  0  0  0
 35 72  1  0  0  0  0
 35 73  1  0  0  0  0
 36 37  1  0  0  0  0
 36 74  1  0  0  0  0
 36 75  1  0  0  0  0
 37 38  1  0  0  0  0
 37 76  1  0  0  0  0
 37 77  1  0  0  0  0
 38 78  1  0  0  0  0
 38 79  1  0  0  0  0
M  END
$$$$
