NCT
 OpenBabel04121316163D

 26 27  0  0  1  0  0  0  0  0999 V2000
    1.2108    0.2674   -0.1454 C   0  0  0  0  0  0  0  0  0  0  0  0
    2.6137    0.0301    0.1363 N   0  0  0  0  0  0  0  0  0  0  0  0
    3.1408    1.1167    0.9544 C   0  0  0  0  0  0  0  0  0  0  0  0
    4.5291    0.6375    1.2792 C   0  0  0  0  0  0  0  0  0  0  0  0
    4.3485   -0.8592    1.4809 C   0  0  0  0  0  0  0  0  0  0  0  0
    3.0267   -1.2669    0.7571 C   0  0  1  0  0  0  0  0  0  0  0  0
    3.2854   -1.9613   -0.0542 H   0  0  0  0  0  0  0  0  0  0  0  0
    2.0303   -1.9955    1.6650 C   0  0  0  0  0  0  0  0  0  0  0  0
    0.6725   -2.1393    1.3624 C   0  0  0  0  0  0  0  0  0  0  0  0
   -0.2518   -2.5447    2.3141 C   0  0  0  0  0  0  0  0  0  0  0  0
    0.2325   -2.9508    3.5382 C   0  0  0  0  0  0  0  0  0  0  0  0
    1.5459   -3.0673    3.8007 N   0  0  0  0  0  0  0  0  0  0  0  0
    2.4081   -2.6217    2.8522 C   0  0  0  0  0  0  0  0  0  0  0  0
    1.0392    1.2335   -0.6287 H   0  0  0  0  0  0  0  0  0  0  0  0
    0.6148    0.2895    0.7752 H   0  0  0  0  0  0  0  0  0  0  0  0
    0.8290   -0.4767   -0.8496 H   0  0  0  0  0  0  0  0  0  0  0  0
    2.5508    1.2481    1.8694 H   0  0  0  0  0  0  0  0  0  0  0  0
    3.1632    2.0664    0.4092 H   0  0  0  0  0  0  0  0  0  0  0  0
    4.9220    1.1282    2.1761 H   0  0  0  0  0  0  0  0  0  0  0  0
    5.2214    0.8338    0.4528 H   0  0  0  0  0  0  0  0  0  0  0  0
    4.3242   -1.0208    2.5619 H   0  0  0  0  0  0  0  0  0  0  0  0
    5.2149   -1.4042    1.0898 H   0  0  0  0  0  0  0  0  0  0  0  0
    0.2694   -1.8893    0.3888 H   0  0  0  0  0  0  0  0  0  0  0  0
   -1.3117   -2.5168    2.0992 H   0  0  0  0  0  0  0  0  0  0  0  0
   -0.4422   -3.2169    4.3421 H   0  0  0  0  0  0  0  0  0  0  0  0
    3.4478   -2.8049    3.1028 H   0  0  0  0  0  0  0  0  0  0  0  0
  1  2  1  0  0  0  0
  1 14  1  0  0  0  0
  1 15  1  0  0  0  0
  1 16  1  0  0  0  0
  2  3  1  0  0  0  0
  2  6  1  0  0  0  0
  3  4  1  0  0  0  0
  3 17  1  0  0  0  0
  3 18  1  0  0  0  0
  4  5  1  0  0  0  0
  4 19  1  0  0  0  0
  4 20  1  0  0  0  0
  5  6  1  0  0  0  0
  5 21  1  0  0  0  0
  5 22  1  0  0  0  0
  6  8  1  0  0  0  0
  6  7  1  6  0  0  0
  8  9  2  0  0  0  0
  8 13  1  0  0  0  0
  9 10  1  0  0  0  0
  9 23  1  0  0  0  0
 10 11  2  0  0  0  0
 10 24  1  0  0  0  0
 11 12  1  0  0  0  0
 11 25  1  0  0  0  0
 12 13  2  0  0  0  0
 13 26  1  0  0  0  0
M  END
$$$$
