NDG
 OpenBabel04121316163D

 30 30  0  0  1  0  0  0  0  0999 V2000
    0.9687    0.1561    0.0083 O   0  0  0  0  0  0  0  0  0  0  0  0
    2.3874    0.0759   -0.0119 C   0  0  0  0  0  0  0  0  0  0  0  0
    2.8779   -0.9867   -1.0220 C   0  0  1  0  0  0  0  0  0  0  0  0
    3.3460   -0.4523   -1.8599 H   0  0  0  0  0  0  0  0  0  0  0  0
    3.9425   -1.7718   -0.4323 O   0  0  0  0  0  0  0  0  0  0  0  0
    3.5035   -2.6850    0.5744 C   0  0  2  0  0  0  0  0  0  0  0  0
    3.0839   -2.1350    1.4220 H   0  0  0  0  0  0  0  0  0  0  0  0
    4.6444   -3.3810    1.0576 O   0  0  0  0  0  0  0  0  0  0  0  0
    2.4612   -3.6936    0.0410 C   0  0  1  0  0  0  0  0  0  0  0  0
    2.1212   -4.3138    0.8793 H   0  0  0  0  0  0  0  0  0  0  0  0
    1.2730   -2.9082   -0.5427 C   0  0  2  0  0  0  0  0  0  0  0  0
    0.5604   -3.5722   -1.0342 H   0  0  0  0  0  0  0  0  0  0  0  0
    1.7717   -1.8970   -1.6030 C   0  0  2  0  0  0  0  0  0  0  0  0
    0.9436   -1.2982   -1.9947 H   0  0  0  0  0  0  0  0  0  0  0  0
    2.3218   -2.5864   -2.7485 O   0  0  0  0  0  0  0  0  0  0  0  0
    0.5276   -2.3514    0.5466 O   0  0  0  0  0  0  0  0  0  0  0  0
    3.0593   -4.6080   -0.9287 N   0  0  0  0  0  0  0  0  0  0  0  0
    2.3078   -5.5676   -1.5521 C   0  0  0  0  0  0  0  0  0  0  0  0
    1.1320   -5.7787   -1.2988 O   0  0  0  0  0  0  0  0  0  0  0  0
    3.0171   -6.3238   -2.6304 C   0  0  0  0  0  0  0  0  0  0  0  0
    0.6859    0.6987    0.7660 H   0  0  0  0  0  0  0  0  0  0  0  0
    2.7159   -0.1535    1.0045 H   0  0  0  0  0  0  0  0  0  0  0  0
    2.7915    1.0609   -0.2569 H   0  0  0  0  0  0  0  0  0  0  0  0
    5.1890   -2.7081    1.4967 H   0  0  0  0  0  0  0  0  0  0  0  0
    1.6734   -3.2601   -3.0253 H   0  0  0  0  0  0  0  0  0  0  0  0
    0.8862   -1.4771    0.7681 H   0  0  0  0  0  0  0  0  0  0  0  0
    3.9933   -4.3742   -1.2495 H   0  0  0  0  0  0  0  0  0  0  0  0
    4.0500   -5.9937   -2.7566 H   0  0  0  0  0  0  0  0  0  0  0  0
    2.4782   -6.1672   -3.5693 H   0  0  0  0  0  0  0  0  0  0  0  0
    3.0007   -7.3812   -2.3603 H   0  0  0  0  0  0  0  0  0  0  0  0
  1  2  1  0  0  0  0
  1 21  1  0  0  0  0
  2  3  1  0  0  0  0
  2 22  1  0  0  0  0
  2 23  1  0  0  0  0
  3  4  1  6  0  0  0
  3  5  1  0  0  0  0
  3 13  1  0  0  0  0
  5  6  1  0  0  0  0
  6  7  1  1  0  0  0
  6  8  1  0  0  0  0
  6  9  1  0  0  0  0
  8 24  1  0  0  0  0
  9 10  1  1  0  0  0
  9 11  1  0  0  0  0
  9 17  1  0  0  0  0
 11 13  1  0  0  0  0
 11 16  1  0  0  0  0
 11 12  1  6  0  0  0
 13 14  1  6  0  0  0
 13 15  1  0  0  0  0
 15 25  1  0  0  0  0
 16 26  1  0  0  0  0
 17 18  1  0  0  0  0
 17 27  1  0  0  0  0
 18 19  2  0  0  0  0
 18 20  1  0  0  0  0
 20 28  1  0  0  0  0
 20 29  1  0  0  0  0
 20 30  1  0  0  0  0
M  END
$$$$
