NDH
 OpenBabel04121316163D

 22 23  0  0  1  0  0  0  0  0999 V2000
    0.9396    0.0390   -0.2155 O   0  0  0  0  0  0  0  0  0  0  0  0
    2.3637   -0.0356   -0.0968 C   0  0  1  0  0  0  0  0  0  0  0  0
    2.7623   -0.0146   -1.1185 H   0  0  0  0  0  0  0  0  0  0  0  0
    2.8408    1.2128    0.5882 C   0  0  0  0  0  0  0  0  0  0  0  0
    3.6099    1.2217    1.6801 C   0  0  0  0  0  0  0  0  0  0  0  0
    4.0511   -0.0242    2.3112 C   0  0  0  0  0  0  0  0  0  0  0  0
    3.6763   -1.2747    1.7886 C   0  0  0  0  0  0  0  0  0  0  0  0
    2.8071   -1.3879    0.5504 C   0  0  1  0  0  0  0  0  0  0  0  0
    3.4116   -1.9164   -0.1986 H   0  0  0  0  0  0  0  0  0  0  0  0
    1.6698   -2.2286    0.8005 O   0  0  0  0  0  0  0  0  0  0  0  0
    4.1537   -2.4455    2.4068 C   0  0  0  0  0  0  0  0  0  0  0  0
    4.9509   -2.3790    3.5455 C   0  0  0  0  0  0  0  0  0  0  0  0
    5.3072   -1.1407    4.0678 C   0  0  0  0  0  0  0  0  0  0  0  0
    4.8674    0.0320    3.4499 C   0  0  0  0  0  0  0  0  0  0  0  0
    0.6867    0.9502   -0.4177 H   0  0  0  0  0  0  0  0  0  0  0  0
    2.5477    2.1615    0.1453 H   0  0  0  0  0  0  0  0  0  0  0  0
    3.9261    2.1650    2.1201 H   0  0  0  0  0  0  0  0  0  0  0  0
    1.9158   -2.9241    1.4247 H   0  0  0  0  0  0  0  0  0  0  0  0
    3.9036   -3.4226    2.0000 H   0  0  0  0  0  0  0  0  0  0  0  0
    5.2919   -3.2951    4.0201 H   0  0  0  0  0  0  0  0  0  0  0  0
    5.9309   -1.0876    4.9559 H   0  0  0  0  0  0  0  0  0  0  0  0
    5.1684    0.9893    3.8704 H   0  0  0  0  0  0  0  0  0  0  0  0
  1  2  1  0  0  0  0
  1 15  1  0  0  0  0
  2  3  1  6  0  0  0
  2  4  1  0  0  0  0
  2  8  1  0  0  0  0
  4  5  2  0  0  0  0
  4 16  1  0  0  0  0
  5  6  1  0  0  0  0
  5 17  1  0  0  0  0
  6  7  2  0  0  0  0
  6 14  1  0  0  0  0
  7  8  1  0  0  0  0
  7 11  1  0  0  0  0
  8  9  1  6  0  0  0
  8 10  1  0  0  0  0
 10 18  1  0  0  0  0
 11 12  2  0  0  0  0
 11 19  1  0  0  0  0
 12 13  1  0  0  0  0
 12 20  1  0  0  0  0
 13 14  2  0  0  0  0
 13 21  1  0  0  0  0
 14 22  1  0  0  0  0
M  END
$$$$
