NDZ
 OpenBabel04121316163D

 37 38  0  0  1  0  0  0  0  0999 V2000
    0.9362    3.9523    0.0232 O   0  0  0  0  0  0  0  0  0  0  0  0
    0.9243    2.7155   -0.5184 C   0  0  0  0  0  0  0  0  0  0  0  0
    1.6455    1.8269   -0.0823 O   0  0  0  0  0  0  0  0  0  0  0  0
    0.0097    2.6168   -1.7622 C   0  0  2  0  0  0  0  0  0  0  0  0
   -0.9000    2.0727   -1.4811 H   0  0  0  0  0  0  0  0  0  0  0  0
    0.6760    1.9312   -2.9586 C   0  0  0  0  0  0  0  0  0  0  0  0
    1.2704    0.5418   -2.6377 C   0  0  2  0  0  0  0  0  0  0  0  0
    0.9764   -0.3921   -3.8366 C   0  0  0  0  0  0  0  0  0  0  0  0
   -0.2695   -1.1486   -3.3985 C   0  0  2  0  0  0  0  0  0  0  0  0
   -1.1343   -0.4908   -3.5691 H   0  0  0  0  0  0  0  0  0  0  0  0
   -0.0667   -1.2974   -1.9096 C   0  0  2  0  0  0  0  0  0  0  0  0
   -1.0452   -1.4080   -1.4158 H   0  0  0  0  0  0  0  0  0  0  0  0
    0.5225   -0.0399   -1.5360 O   0  0  0  0  0  0  0  0  0  0  0  0
    0.8128   -2.4993   -1.4964 C   0  0  2  0  0  0  0  0  0  0  0  0
    0.6139   -2.7344   -0.4439 H   0  0  0  0  0  0  0  0  0  0  0  0
    2.2116   -2.2323   -1.5125 O   0  0  0  0  0  0  0  0  0  0  0  0
    0.6184   -3.7410   -2.3739 C   0  0  1  0  0  0  0  0  0  0  0  0
   -0.2408   -4.3125   -2.0109 H   0  0  0  0  0  0  0  0  0  0  0  0
    0.4291   -3.3783   -3.8462 C   0  0  0  0  0  0  0  0  0  0  0  0
   -0.5393   -2.3620   -4.0673 O   0  0  0  0  0  0  0  0  0  0  0  0
    1.7803   -4.5859   -2.2918 O   0  0  0  0  0  0  0  0  0  0  0  0
    2.8444    0.6004   -2.4260 C   0  0  0  0  0  0  0  0  0  0  0  0
    3.5469   -0.4046   -2.3900 O   0  0  0  0  0  0  0  0  0  0  0  0
    3.4597    1.8014   -2.4362 O   0  0  0  0  0  0  0  0  0  0  0  0
   -0.3986    3.9910   -2.1811 N   0  0  0  0  0  0  0  0  0  0  0  0
    0.2615    4.4933   -0.4456 H   0  0  0  0  0  0  0  0  0  0  0  0
    1.4274    2.5778   -3.4256 H   0  0  0  0  0  0  0  0  0  0  0  0
   -0.0811    1.8356   -3.7503 H   0  0  0  0  0  0  0  0  0  0  0  0
    1.8113   -1.0601   -4.0521 H   0  0  0  0  0  0  0  0  0  0  0  0
    0.8160    0.1431   -4.7769 H   0  0  0  0  0  0  0  0  0  0  0  0
    2.4925   -1.8378   -2.3568 H   0  0  0  0  0  0  0  0  0  0  0  0
    0.1123   -4.2697   -4.3957 H   0  0  0  0  0  0  0  0  0  0  0  0
    1.3796   -3.0849   -4.3039 H   0  0  0  0  0  0  0  0  0  0  0  0
    2.5517   -3.9771   -2.2814 H   0  0  0  0  0  0  0  0  0  0  0  0
    2.9451    2.6131   -2.3183 H   0  0  0  0  0  0  0  0  0  0  0  0
   -1.0286    3.8952   -2.9871 H   0  0  0  0  0  0  0  0  0  0  0  0
    0.4101    4.4875   -2.5657 H   0  0  0  0  0  0  0  0  0  0  0  0
  1  2  1  0  0  0  0
  1 26  1  0  0  0  0
  2  3  2  0  0  0  0
  4  6  1  0  0  0  0
  4 25  1  0  0  0  0
  4  5  1  1  0  0  0
  4  2  1  0  0  0  0
  6 27  1  0  0  0  0
  6 28  1  0  0  0  0
  7  8  1  0  0  0  0
  7 13  1  0  0  0  0
  7 22  1  1  0  0  0
  7  6  1  0  0  0  0
  8  9  1  0  0  0  0
  8 29  1  0  0  0  0
  8 30  1  0  0  0  0
  9 10  1  6  0  0  0
  9 11  1  0  0  0  0
  9 20  1  0  0  0  0
 11 12  1  1  0  0  0
 11 13  1  0  0  0  0
 11 14  1  0  0  0  0
 14 17  1  0  0  0  0
 14 16  1  0  0  0  0
 14 15  1  1  0  0  0
 16 31  1  0  0  0  0
 17 19  1  0  0  0  0
 17 21  1  0  0  0  0
 17 18  1  1  0  0  0
 19 20  1  0  0  0  0
 19 32  1  0  0  0  0
 19 33  1  0  0  0  0
 21 34  1  0  0  0  0
 22 23  2  0  0  0  0
 22 24  1  0  0  0  0
 24 35  1  0  0  0  0
 25 36  1  0  0  0  0
 25 37  1  0  0  0  0
M  END
$$$$
