NEA
 OpenBabel04121316163D

 40 42  0  0  1  0  0  0  0  0999 V2000
    0.9373   -0.0278   -0.0522 N   0  0  0  0  0  0  0  0  0  0  0  0
    2.4027   -0.0143   -0.0672 C   0  0  0  0  0  0  0  0  0  0  0  0
    2.9681    1.3605   -0.4781 C   0  0  0  0  0  0  0  0  0  0  0  0
    4.7863    1.2361   -0.5077 S   0  0  0  0  0  0  0  0  0  0  0  0
    5.3199    2.9396   -0.9631 C   0  0  0  0  0  0  0  0  0  0  0  0
    6.8663    3.0185   -0.9134 C   0  0  1  0  0  0  0  0  0  0  0  0
    7.2816    2.2110   -1.5344 H   0  0  0  0  0  0  0  0  0  0  0  0
    7.4169    4.2756   -1.4267 O   0  0  0  0  0  0  0  0  0  0  0  0
    8.7748    4.3039   -0.9042 C   0  0  2  0  0  0  0  0  0  0  0  0
    9.4102    3.6592   -1.5284 H   0  0  0  0  0  0  0  0  0  0  0  0
    8.6430    3.7659    0.5243 C   0  0  1  0  0  0  0  0  0  0  0  0
    8.4513    4.5785    1.2349 H   0  0  0  0  0  0  0  0  0  0  0  0
    7.3895    2.9168    0.5207 C   0  0  2  0  0  0  0  0  0  0  0  0
    6.6691    3.3629    1.2166 H   0  0  0  0  0  0  0  0  0  0  0  0
    7.6375    1.5881    0.9507 O   0  0  0  0  0  0  0  0  0  0  0  0
    9.7905    3.0343    0.9574 O   0  0  0  0  0  0  0  0  0  0  0  0
    9.3956    5.6304   -0.9662 N   0  0  0  0  0  0  0  0  0  0  0  0
    9.4452    6.4827   -2.0398 C   0  0  0  0  0  0  0  0  0  0  0  0
   10.2940    7.4789   -1.8458 N   0  0  0  0  0  0  0  0  0  0  0  0
   10.8319    7.2645   -0.5937 C   0  0  0  0  0  0  0  0  0  0  0  0
   10.2875    6.1209   -0.0330 C   0  0  0  0  0  0  0  0  0  0  0  0
   10.6003    5.5922    1.1597 N   0  0  0  0  0  0  0  0  0  0  0  0
   11.4933    6.3365    1.8311 C   0  0  0  0  0  0  0  0  0  0  0  0
   12.1071    7.4534    1.4078 N   0  0  0  0  0  0  0  0  0  0  0  0
   11.8017    7.9311    0.1790 C   0  0  0  0  0  0  0  0  0  0  0  0
   12.4737    9.0526   -0.2497 N   0  0  0  0  0  0  0  0  0  0  0  0
    0.6216   -0.9655    0.2012 H   0  0  0  0  0  0  0  0  0  0  0  0
    0.5861    0.1360   -0.9948 H   0  0  0  0  0  0  0  0  0  0  0  0
    2.7460   -0.7937   -0.7591 H   0  0  0  0  0  0  0  0  0  0  0  0
    2.7553   -0.2879    0.9350 H   0  0  0  0  0  0  0  0  0  0  0  0
    2.6477    2.1260    0.2364 H   0  0  0  0  0  0  0  0  0  0  0  0
    2.6115    1.6289   -1.4770 H   0  0  0  0  0  0  0  0  0  0  0  0
    4.8852    3.6710   -0.2716 H   0  0  0  0  0  0  0  0  0  0  0  0
    4.9586    3.1796   -1.9671 H   0  0  0  0  0  0  0  0  0  0  0  0
    8.2233    1.6620    1.7286 H   0  0  0  0  0  0  0  0  0  0  0  0
   10.5174    3.6928    0.9939 H   0  0  0  0  0  0  0  0  0  0  0  0
    8.8686    6.3287   -2.9430 H   0  0  0  0  0  0  0  0  0  0  0  0
   11.7487    5.9879    2.8270 H   0  0  0  0  0  0  0  0  0  0  0  0
   13.1582    9.4602    0.3672 H   0  0  0  0  0  0  0  0  0  0  0  0
   12.2794    9.4199   -1.1676 H   0  0  0  0  0  0  0  0  0  0  0  0
  1  2  1  0  0  0  0
  1 27  1  0  0  0  0
  1 28  1  0  0  0  0
  2  3  1  0  0  0  0
  2 29  1  0  0  0  0
  2 30  1  0  0  0  0
  3  4  1  0  0  0  0
  3 31  1  0  0  0  0
  3 32  1  0  0  0  0
  4  5  1  0  0  0  0
  5  6  1  0  0  0  0
  5 33  1  0  0  0  0
  5 34  1  0  0  0  0
  6  7  1  6  0  0  0
  6  8  1  0  0  0  0
  6 13  1  0  0  0  0
  8  9  1  0  0  0  0
  9 11  1  0  0  0  0
  9 17  1  0  0  0  0
  9 10  1  6  0  0  0
 11 12  1  1  0  0  0
 11 13  1  0  0  0  0
 11 16  1  0  0  0  0
 13 14  1  1  0  0  0
 13 15  1  0  0  0  0
 15 35  1  0  0  0  0
 16 36  1  0  0  0  0
 17 18  1  0  0  0  0
 17 21  1  0  0  0  0
 18 19  2  0  0  0  0
 18 37  1  0  0  0  0
 19 20  1  0  0  0  0
 20 21  2  0  0  0  0
 20 25  1  0  0  0  0
 21 22  1  0  0  0  0
 22 23  2  0  0  0  0
 23 24  1  0  0  0  0
 23 38  1  0  0  0  0
 24 25  2  0  0  0  0
 25 26  1  0  0  0  0
 26 39  1  0  0  0  0
 26 40  1  0  0  0  0
M  END
$$$$
