NET
 OpenBabel04121316163D

 29 28  0  0  0  0  0  0  0  0999 V2000
    0.9336    0.1005    0.4322 C   0  0  0  0  0  0  0  0  0  0  0  0
    2.4246    0.0993    0.1229 C   0  0  0  0  0  0  0  0  0  0  0  0
    2.8545   -0.7825   -1.0899 N   0  3  0  0  0  0  0  0  0  0  0  0
    2.3926   -2.2505   -0.9275 C   0  0  0  0  0  0  0  0  0  0  0  0
    2.9120   -2.9095    0.3459 C   0  0  0  0  0  0  0  0  0  0  0  0
    2.3634   -0.1666   -2.4304 C   0  0  0  0  0  0  0  0  0  0  0  0
    0.8661   -0.1742   -2.6771 C   0  0  0  0  0  0  0  0  0  0  0  0
    4.4335   -0.7227   -1.1310 C   0  0  0  0  0  0  0  0  0  0  0  0
    5.0539   -1.5577   -2.2500 C   0  0  0  0  0  0  0  0  0  0  0  0
    0.7635    0.4827    1.4437 H   0  0  0  0  0  0  0  0  0  0  0  0
    0.4684   -0.8844    0.3801 H   0  0  0  0  0  0  0  0  0  0  0  0
    0.3869    0.7844   -0.2172 H   0  0  0  0  0  0  0  0  0  0  0  0
    2.9715   -0.2759    0.9966 H   0  0  0  0  0  0  0  0  0  0  0  0
    2.7779    1.1159   -0.0729 H   0  0  0  0  0  0  0  0  0  0  0  0
    2.7170   -2.8014   -1.8152 H   0  0  0  0  0  0  0  0  0  0  0  0
    1.3027   -2.2688   -0.9261 H   0  0  0  0  0  0  0  0  0  0  0  0
    4.0031   -2.9630    0.3791 H   0  0  0  0  0  0  0  0  0  0  0  0
    2.5422   -3.9378    0.4059 H   0  0  0  0  0  0  0  0  0  0  0  0
    2.5637   -2.3952    1.2462 H   0  0  0  0  0  0  0  0  0  0  0  0
    2.8130   -0.7579   -3.2330 H   0  0  0  0  0  0  0  0  0  0  0  0
    2.7599    0.8519   -2.4807 H   0  0  0  0  0  0  0  0  0  0  0  0
    0.3962   -1.1319   -2.4557 H   0  0  0  0  0  0  0  0  0  0  0  0
    0.6792    0.0402   -3.7352 H   0  0  0  0  0  0  0  0  0  0  0  0
    0.3520    0.6215   -2.1390 H   0  0  0  0  0  0  0  0  0  0  0  0
    4.8019   -1.0611   -0.1562 H   0  0  0  0  0  0  0  0  0  0  0  0
    4.7103    0.3303   -1.2435 H   0  0  0  0  0  0  0  0  0  0  0  0
    4.7710   -2.6112   -2.2004 H   0  0  0  0  0  0  0  0  0  0  0  0
    6.1458   -1.5209   -2.1812 H   0  0  0  0  0  0  0  0  0  0  0  0
    4.7979   -1.1771   -3.2428 H   0  0  0  0  0  0  0  0  0  0  0  0
  1  2  1  0  0  0  0
  1 10  1  0  0  0  0
  1 11  1  0  0  0  0
  1 12  1  0  0  0  0
  2  3  1  0  0  0  0
  2 13  1  0  0  0  0
  2 14  1  0  0  0  0
  3  4  1  0  0  0  0
  3  6  1  0  0  0  0
  3  8  1  0  0  0  0
  4  5  1  0  0  0  0
  4 15  1  0  0  0  0
  4 16  1  0  0  0  0
  5 17  1  0  0  0  0
  5 18  1  0  0  0  0
  5 19  1  0  0  0  0
  6  7  1  0  0  0  0
  6 20  1  0  0  0  0
  6 21  1  0  0  0  0
  7 22  1  0  0  0  0
  7 23  1  0  0  0  0
  7 24  1  0  0  0  0
  8  9  1  0  0  0  0
  8 25  1  0  0  0  0
  8 26  1  0  0  0  0
  9 27  1  0  0  0  0
  9 28  1  0  0  0  0
  9 29  1  0  0  0  0
M  CHG  1   3   1
M  END
$$$$
