NEZ
 OpenBabel04121316163D

 41 44  0  0  0  0  0  0  0  0999 V2000
    0.9528    0.1042    0.0896 C   0  0  0  0  0  0  0  0  0  0  0  0
    2.4479    0.1277    0.0850 C   0  0  0  0  0  0  0  0  0  0  0  0
    3.1529    1.3337    0.0872 C   0  0  0  0  0  0  0  0  0  0  0  0
    4.5300    1.3319   -0.1224 C   0  0  0  0  0  0  0  0  0  0  0  0
    5.2338    0.1218   -0.2193 C   0  0  0  0  0  0  0  0  0  0  0  0
    4.5390   -1.0778   -0.0511 C   0  0  0  0  0  0  0  0  0  0  0  0
    3.1512   -1.0776    0.0330 C   0  0  0  0  0  0  0  0  0  0  0  0
    6.7036    0.1770   -0.5572 C   0  0  0  0  0  0  0  0  0  0  0  0
    7.4389   -1.1624   -0.6871 C   0  0  0  0  0  0  0  0  0  0  0  0
    8.9273   -1.1215   -1.0044 C   0  0  0  0  0  0  0  0  0  0  0  0
    9.6441   -2.3589   -1.1535 C   0  0  0  0  0  0  0  0  0  0  0  0
    9.2152   -3.6781   -1.2645 N   0  0  0  0  0  0  0  0  0  0  0  0
   10.3024   -4.4067   -1.4346 C   0  0  0  0  0  0  0  0  0  0  0  0
   11.4255   -3.6419   -1.3649 N   0  0  0  0  0  0  0  0  0  0  0  0
   12.3829   -3.9446   -1.4825 H   0  0  0  0  0  0  0  0  0  0  0  0
   11.0313   -2.3462   -1.1899 C   0  0  0  0  0  0  0  0  0  0  0  0
   11.7971   -1.2097   -1.0853 C   0  0  0  0  0  0  0  0  0  0  0  0
   11.1019   -0.0105   -1.1572 C   0  0  0  0  0  0  0  0  0  0  0  0
    9.7030    0.0882   -1.1238 C   0  0  0  0  0  0  0  0  0  0  0  0
    9.1149    1.3841   -1.2261 N   0  0  0  0  0  0  0  0  0  0  0  0
    9.8632    2.4313   -1.3946 C   0  0  0  0  0  0  0  0  0  0  0  0
    9.3642    3.6825   -1.5174 N   0  0  0  0  0  0  0  0  0  0  0  0
   11.2189    2.3600   -1.4587 N   0  0  0  0  0  0  0  0  0  0  0  0
   11.7807    3.1817   -1.6025 H   0  0  0  0  0  0  0  0  0  0  0  0
   11.9051    1.1982   -1.3389 C   0  0  0  0  0  0  0  0  0  0  0  0
   13.1349    1.1583   -1.4111 O   0  0  0  0  0  0  0  0  0  0  0  0
    0.5394    1.1152    0.1447 H   0  0  0  0  0  0  0  0  0  0  0  0
    0.5864   -0.4709    0.9439 H   0  0  0  0  0  0  0  0  0  0  0  0
    0.5938   -0.3553   -0.8382 H   0  0  0  0  0  0  0  0  0  0  0  0
    2.6341    2.2798    0.2156 H   0  0  0  0  0  0  0  0  0  0  0  0
    5.0542    2.2795   -0.2323 H   0  0  0  0  0  0  0  0  0  0  0  0
    5.0543   -2.0328   -0.0217 H   0  0  0  0  0  0  0  0  0  0  0  0
    2.6238   -2.0280    0.0374 H   0  0  0  0  0  0  0  0  0  0  0  0
    7.1862    0.7847    0.2175 H   0  0  0  0  0  0  0  0  0  0  0  0
    6.7748    0.6963   -1.5215 H   0  0  0  0  0  0  0  0  0  0  0  0
    6.9274   -1.7865   -1.4335 H   0  0  0  0  0  0  0  0  0  0  0  0
    7.3318   -1.6895    0.2743 H   0  0  0  0  0  0  0  0  0  0  0  0
   10.3669   -5.4738   -1.6109 H   0  0  0  0  0  0  0  0  0  0  0  0
   12.8777   -1.2423   -1.0536 H   0  0  0  0  0  0  0  0  0  0  0  0
    8.3629    3.8179   -1.4954 H   0  0  0  0  0  0  0  0  0  0  0  0
    9.9450    4.4953   -1.6669 H   0  0  0  0  0  0  0  0  0  0  0  0
  1  2  1  0  0  0  0
  1 27  1  0  0  0  0
  1 28  1  0  0  0  0
  1 29  1  0  0  0  0
  2  3  2  0  0  0  0
  2  7  1  0  0  0  0
  3  4  1  0  0  0  0
  3 30  1  0  0  0  0
  4  5  2  0  0  0  0
  4 31  1  0  0  0  0
  5  6  1  0  0  0  0
  5  8  1  0  0  0  0
  6  7  2  0  0  0  0
  6 32  1  0  0  0  0
  7 33  1  0  0  0  0
  8  9  1  0  0  0  0
  8 34  1  0  0  0  0
  8 35  1  0  0  0  0
  9 10  1  0  0  0  0
  9 36  1  0  0  0  0
  9 37  1  0  0  0  0
 10 11  2  0  0  0  0
 10 19  1  0  0  0  0
 11 12  1  0  0  0  0
 11 16  1  0  0  0  0
 12 13  2  0  0  0  0
 13 14  1  0  0  0  0
 13 38  1  0  0  0  0
 14 15  1  0  0  0  0
 14 16  1  0  0  0  0
 16 17  2  0  0  0  0
 17 18  1  0  0  0  0
 17 39  1  0  0  0  0
 18 19  2  0  0  0  0
 18 25  1  0  0  0  0
 19 20  1  0  0  0  0
 20 21  2  0  0  0  0
 21 22  1  0  0  0  0
 21 23  1  0  0  0  0
 22 40  1  0  0  0  0
 22 41  1  0  0  0  0
 23 24  1  0  0  0  0
 23 25  1  0  0  0  0
 25 26  2  0  0  0  0
M  END
$$$$
