NFA
 OpenBabel04121316163D

 24 24  0  0  1  0  0  0  0  0999 V2000
    2.7746   -1.3502    0.2823 N   0  0  0  0  0  0  0  0  0  0  0  0
    2.4836    0.0828    0.0057 C   0  0  2  0  0  0  0  0  0  0  0  0
    1.3907    0.1840   -0.0008 H   0  0  0  0  0  0  0  0  0  0  0  0
    2.9821    0.4619   -1.4123 C   0  0  0  0  0  0  0  0  0  0  0  0
    3.5886    1.4828   -1.7007 O   0  0  0  0  0  0  0  0  0  0  0  0
    2.6673   -0.4252   -2.4062 N   0  0  0  0  0  0  0  0  0  0  0  0
    3.0512    1.0672    1.0715 C   0  0  0  0  0  0  0  0  0  0  0  0
    4.5675    1.1458    1.1450 C   0  0  0  0  0  0  0  0  0  0  0  0
    5.2200    2.3815    1.0632 C   0  0  0  0  0  0  0  0  0  0  0  0
    6.5990    2.4330    0.8376 C   0  0  0  0  0  0  0  0  0  0  0  0
    7.3454    1.2584    0.7555 C   0  0  0  0  0  0  0  0  0  0  0  0
    6.7299    0.0383    0.9908 C   0  0  0  0  0  0  0  0  0  0  0  0
    5.3589   -0.0067    1.2176 C   0  0  0  0  0  0  0  0  0  0  0  0
    3.7582   -1.4977    0.0510 H   0  0  0  0  0  0  0  0  0  0  0  0
    2.2908   -1.9476   -0.3803 H   0  0  0  0  0  0  0  0  0  0  0  0
    2.0337   -1.1982   -2.2852 H   0  0  0  0  0  0  0  0  0  0  0  0
    2.9646   -0.1701   -3.3391 H   0  0  0  0  0  0  0  0  0  0  0  0
    2.6529    0.8341    2.0659 H   0  0  0  0  0  0  0  0  0  0  0  0
    2.6602    2.0650    0.8164 H   0  0  0  0  0  0  0  0  0  0  0  0
    4.6594    3.3111    1.1325 H   0  0  0  0  0  0  0  0  0  0  0  0
    7.0886    3.3923    0.6987 H   0  0  0  0  0  0  0  0  0  0  0  0
    8.4075    1.2933    0.5355 H   0  0  0  0  0  0  0  0  0  0  0  0
    7.3006   -0.8853    0.9916 H   0  0  0  0  0  0  0  0  0  0  0  0
    4.9237   -0.9739    1.4337 H   0  0  0  0  0  0  0  0  0  0  0  0
  1 14  1  0  0  0  0
  1 15  1  0  0  0  0
  2  4  1  0  0  0  0
  2  7  1  0  0  0  0
  2  3  1  1  0  0  0
  2  1  1  0  0  0  0
  4  5  2  0  0  0  0
  4  6  1  0  0  0  0
  6 16  1  0  0  0  0
  6 17  1  0  0  0  0
  7  8  1  0  0  0  0
  7 18  1  0  0  0  0
  7 19  1  0  0  0  0
  8  9  2  0  0  0  0
  8 13  1  0  0  0  0
  9 10  1  0  0  0  0
  9 20  1  0  0  0  0
 10 11  2  0  0  0  0
 10 21  1  0  0  0  0
 11 12  1  0  0  0  0
 11 22  1  0  0  0  0
 12 13  2  0  0  0  0
 12 23  1  0  0  0  0
 13 24  1  0  0  0  0
M  END
$$$$
