NFT
 OpenBabel04121316163D

 62 63  0  0  1  0  0  0  0  0999 V2000
    5.3545   -5.5805    2.7952 N   0  0  0  0  0  0  0  0  0  0  0  0
    5.3899   -4.1898    2.3784 C   0  0  0  0  0  0  0  0  0  0  0  0
    5.9007   -4.1063    0.9313 C   0  0  0  0  0  0  0  0  0  0  0  0
    6.0029   -2.7459    0.5159 N   0  0  0  0  0  0  0  0  0  0  0  0
    6.3494   -2.3490   -0.7595 C   0  0  0  0  0  0  0  0  0  0  0  0
    6.6477   -3.1564   -1.6323 O   0  0  0  0  0  0  0  0  0  0  0  0
    6.3222   -0.8025   -0.9827 C   0  0  1  0  0  0  0  0  0  0  0  0
    5.2930   -0.4304   -0.9637 H   0  0  0  0  0  0  0  0  0  0  0  0
    7.1292   -0.1508    0.0705 N   0  0  0  0  0  0  0  0  0  0  0  0
    6.5021   -0.1350    1.4128 C   0  0  2  0  0  0  0  0  0  0  0  0
    6.8732   -1.0258    1.9341 H   0  0  0  0  0  0  0  0  0  0  0  0
    4.9181   -0.0586    1.4954 C   0  0  0  0  0  0  0  0  0  0  0  0
    4.4929   -0.0998    2.7723 F   0  0  0  0  0  0  0  0  0  0  0  0
    4.3989    1.0273    0.8839 F   0  0  0  0  0  0  0  0  0  0  0  0
    4.3200   -1.1073    0.8786 F   0  0  0  0  0  0  0  0  0  0  0  0
    7.0580    1.0414    2.1793 C   0  0  0  0  0  0  0  0  0  0  0  0
    6.5111    2.2939    1.9225 C   0  0  0  0  0  0  0  0  0  0  0  0
    6.9558    3.4010    2.5824 C   0  0  0  0  0  0  0  0  0  0  0  0
    7.9063    3.3096    3.5968 C   0  0  0  0  0  0  0  0  0  0  0  0
    8.4288    2.0347    3.8887 C   0  0  0  0  0  0  0  0  0  0  0  0
    8.0675    0.9170    3.1340 C   0  0  0  0  0  0  0  0  0  0  0  0
    8.3468    4.5522    4.2425 C   0  0  0  0  0  0  0  0  0  0  0  0
    7.6412    5.7557    4.0207 C   0  0  0  0  0  0  0  0  0  0  0  0
    8.1506    6.9810    4.4016 C   0  0  0  0  0  0  0  0  0  0  0  0
    9.3025    7.0051    5.1694 C   0  0  0  0  0  0  0  0  0  0  0  0
    9.9373    5.8218    5.5517 C   0  0  0  0  0  0  0  0  0  0  0  0
    9.5036    4.6110    5.0237 C   0  0  0  0  0  0  0  0  0  0  0  0
    9.9298    8.5928    5.6025 S   0  0  0  0  0  0  0  0  0  0  0  0
   10.4220    9.1953    4.3768 O   0  0  0  0  0  0  0  0  0  0  0  0
    8.9631    9.2139    6.4616 O   0  0  0  0  0  0  0  0  0  0  0  0
   11.2689    8.2271    6.5311 N   0  0  0  0  0  0  0  0  0  0  0  0
    6.8204   -0.4615   -2.4007 C   0  0  0  0  0  0  0  0  0  0  0  0
    6.7929    1.0357   -2.8036 C   0  0  0  0  0  0  0  0  0  0  0  0
    7.7345    1.9500   -2.0140 C   0  0  0  0  0  0  0  0  0  0  0  0
    7.2157    1.1567   -4.2682 C   0  0  0  0  0  0  0  0  0  0  0  0
    5.0709   -5.6511    3.7691 H   0  0  0  0  0  0  0  0  0  0  0  0
    6.2960   -5.9667    2.7284 H   0  0  0  0  0  0  0  0  0  0  0  0
    6.0331   -3.6075    3.0527 H   0  0  0  0  0  0  0  0  0  0  0  0
    4.3870   -3.7476    2.4618 H   0  0  0  0  0  0  0  0  0  0  0  0
    5.2125   -4.6037    0.2442 H   0  0  0  0  0  0  0  0  0  0  0  0
    6.9017   -4.5322    0.8387 H   0  0  0  0  0  0  0  0  0  0  0  0
    5.3598   -2.1622    1.0105 H   0  0  0  0  0  0  0  0  0  0  0  0
    7.1914    0.8232   -0.1660 H   0  0  0  0  0  0  0  0  0  0  0  0
    5.7240    2.4742    1.2017 H   0  0  0  0  0  0  0  0  0  0  0  0
    6.5150    4.3323    2.2498 H   0  0  0  0  0  0  0  0  0  0  0  0
    9.1268    1.8841    4.7077 H   0  0  0  0  0  0  0  0  0  0  0  0
    8.5631   -0.0357    3.3151 H   0  0  0  0  0  0  0  0  0  0  0  0
    6.6839    5.7782    3.5085 H   0  0  0  0  0  0  0  0  0  0  0  0
    7.6431    7.8919    4.0948 H   0  0  0  0  0  0  0  0  0  0  0  0
   10.7820    5.8056    6.2282 H   0  0  0  0  0  0  0  0  0  0  0  0
   10.1004    3.7233    5.2154 H   0  0  0  0  0  0  0  0  0  0  0  0
   12.0380    7.8246    6.0021 H   0  0  0  0  0  0  0  0  0  0  0  0
   11.0362    7.8424    7.4431 H   0  0  0  0  0  0  0  0  0  0  0  0
    6.1636   -1.0016   -3.1029 H   0  0  0  0  0  0  0  0  0  0  0  0
    7.8224   -0.8794   -2.5557 H   0  0  0  0  0  0  0  0  0  0  0  0
    5.7655    1.4099   -2.7020 H   0  0  0  0  0  0  0  0  0  0  0  0
    8.7207    1.4834   -1.9107 H   0  0  0  0  0  0  0  0  0  0  0  0
    7.3492    2.2283   -1.0349 H   0  0  0  0  0  0  0  0  0  0  0  0
    7.8488    2.9235   -2.4941 H   0  0  0  0  0  0  0  0  0  0  0  0
    8.2325    0.7698   -4.4012 H   0  0  0  0  0  0  0  0  0  0  0  0
    7.2128    2.2072   -4.5774 H   0  0  0  0  0  0  0  0  0  0  0  0
    6.5443    0.6044   -4.9302 H   0  0  0  0  0  0  0  0  0  0  0  0
  1  2  1  0  0  0  0
  1 36  1  0  0  0  0
  1 37  1  0  0  0  0
  2  3  1  0  0  0  0
  2 38  1  0  0  0  0
  2 39  1  0  0  0  0
  3  4  1  0  0  0  0
  3 40  1  0  0  0  0
  3 41  1  0  0  0  0
  4  5  1  0  0  0  0
  4 42  1  0  0  0  0
  5  6  2  0  0  0  0
  5  7  1  0  0  0  0
  7  8  1  1  0  0  0
  7  9  1  0  0  0  0
  7 32  1  0  0  0  0
  9 43  1  0  0  0  0
 10 12  1  0  0  0  0
 10 16  1  0  0  0  0
 10 11  1  1  0  0  0
 10  9  1  0  0  0  0
 12 13  1  0  0  0  0
 12 14  1  0  0  0  0
 12 15  1  0  0  0  0
 16 17  2  0  0  0  0
 16 21  1  0  0  0  0
 17 18  1  0  0  0  0
 17 44  1  0  0  0  0
 18 19  2  0  0  0  0
 18 45  1  0  0  0  0
 19 20  1  0  0  0  0
 19 22  1  0  0  0  0
 20 21  2  0  0  0  0
 20 46  1  0  0  0  0
 21 47  1  0  0  0  0
 22 23  2  0  0  0  0
 22 27  1  0  0  0  0
 23 24  1  0  0  0  0
 23 48  1  0  0  0  0
 24 25  2  0  0  0  0
 24 49  1  0  0  0  0
 25 26  1  0  0  0  0
 25 28  1  0  0  0  0
 26 27  2  0  0  0  0
 26 50  1  0  0  0  0
 27 51  1  0  0  0  0
 28 29  2  0  0  0  0
 28 30  2  0  0  0  0
 28 31  1  0  0  0  0
 31 52  1  0  0  0  0
 31 53  1  0  0  0  0
 32 33  1  0  0  0  0
 32 54  1  0  0  0  0
 32 55  1  0  0  0  0
 33 34  1  0  0  0  0
 33 35  1  0  0  0  0
 33 56  1  0  0  0  0
 34 57  1  0  0  0  0
 34 58  1  0  0  0  0
 34 59  1  0  0  0  0
 35 60  1  0  0  0  0
 35 61  1  0  0  0  0
 35 62  1  0  0  0  0
M  END
$$$$
