NGA
 OpenBabel04121316163D

 30 30  0  0  1  0  0  0  0  0999 V2000
    0.8320    0.1333   -0.0332 O   0  0  0  0  0  0  0  0  0  0  0  0
    2.2193   -0.0526   -0.2536 C   0  0  0  0  0  0  0  0  0  0  0  0
    3.0790    1.2357   -0.1761 C   0  0  1  0  0  0  0  0  0  0  0  0
    3.8437    1.0565   -0.9424 H   0  0  0  0  0  0  0  0  0  0  0  0
    2.5184    2.4910   -0.6098 O   0  0  0  0  0  0  0  0  0  0  0  0
    1.9248    3.3580    0.3579 C   0  0  1  0  0  0  0  0  0  0  0  0
    1.8671    4.3658   -0.0812 H   0  0  0  0  0  0  0  0  0  0  0  0
    0.5950    2.9205    0.5547 O   0  0  0  0  0  0  0  0  0  0  0  0
    2.6845    3.4653    1.7052 C   0  0  1  0  0  0  0  0  0  0  0  0
    2.0601    4.0097    2.4258 H   0  0  0  0  0  0  0  0  0  0  0  0
    2.9420    2.0414    2.2206 C   0  0  2  0  0  0  0  0  0  0  0  0
    3.5010    2.0527    3.1550 H   0  0  0  0  0  0  0  0  0  0  0  0
    3.7924    1.3066    1.1839 C   0  0  1  0  0  0  0  0  0  0  0  0
    4.7402    1.8318    1.0286 H   0  0  0  0  0  0  0  0  0  0  0  0
    4.1326    0.0188    1.7067 O   0  0  0  0  0  0  0  0  0  0  0  0
    1.7724    1.2796    2.5626 O   0  0  0  0  0  0  0  0  0  0  0  0
    3.9607    4.2158    1.6013 N   0  0  0  0  0  0  0  0  0  0  0  0
    4.7676    4.3840    2.7031 C   0  0  0  0  0  0  0  0  0  0  0  0
    4.4388    4.0206    3.8412 O   0  0  0  0  0  0  0  0  0  0  0  0
    6.1100    5.0008    2.4628 C   0  0  0  0  0  0  0  0  0  0  0  0
    0.4918   -0.7795    0.0963 H   0  0  0  0  0  0  0  0  0  0  0  0
    2.4040   -0.5896   -1.1909 H   0  0  0  0  0  0  0  0  0  0  0  0
    2.5247   -0.7726    0.5077 H   0  0  0  0  0  0  0  0  0  0  0  0
    0.5805    2.0238    0.1645 H   0  0  0  0  0  0  0  0  0  0  0  0
    3.3888   -0.2303    2.2978 H   0  0  0  0  0  0  0  0  0  0  0  0
    1.1491    1.2420    1.8132 H   0  0  0  0  0  0  0  0  0  0  0  0
    4.3013    4.4929    0.6851 H   0  0  0  0  0  0  0  0  0  0  0  0
    6.2567    5.2778    1.4173 H   0  0  0  0  0  0  0  0  0  0  0  0
    6.8871    4.2842    2.7505 H   0  0  0  0  0  0  0  0  0  0  0  0
    6.1925    5.8933    3.0887 H   0  0  0  0  0  0  0  0  0  0  0  0
  1  2  1  0  0  0  0
  1 21  1  0  0  0  0
  2  3  1  0  0  0  0
  2 22  1  0  0  0  0
  2 23  1  0  0  0  0
  3  4  1  6  0  0  0
  3  5  1  0  0  0  0
  3 13  1  0  0  0  0
  5  6  1  0  0  0  0
  6  9  1  0  0  0  0
  6  8  1  0  0  0  0
  6  7  1  6  0  0  0
  8 24  1  0  0  0  0
  9 10  1  1  0  0  0
  9 11  1  0  0  0  0
  9 17  1  0  0  0  0
 11 13  1  0  0  0  0
 11 16  1  0  0  0  0
 11 12  1  1  0  0  0
 13 15  1  0  0  0  0
 13 14  1  6  0  0  0
 15 25  1  0  0  0  0
 16 26  1  0  0  0  0
 17 18  1  0  0  0  0
 17 27  1  0  0  0  0
 18 19  2  0  0  0  0
 18 20  1  0  0  0  0
 20 28  1  0  0  0  0
 20 29  1  0  0  0  0
 20 30  1  0  0  0  0
M  END
$$$$
