NGD
 OpenBabel04121316163D

 73 77  0  0  1  0  0  0  0  0999 V2000
    1.9377   -7.2735    0.0467 N   0  0  0  0  0  0  0  0  0  0  0  0
    1.8916   -5.9391   -0.2500 C   0  0  0  0  0  0  0  0  0  0  0  0
    1.7574   -5.0884    0.8005 N   0  0  0  0  0  0  0  0  0  0  0  0
    1.5669   -5.4818    1.7054 H   0  0  0  0  0  0  0  0  0  0  0  0
    1.6215   -3.7218    0.6164 C   0  0  0  0  0  0  0  0  0  0  0  0
    1.1763   -3.0166    1.5374 O   0  0  0  0  0  0  0  0  0  0  0  0
    2.0461   -3.2506   -0.7034 C   0  0  0  0  0  0  0  0  0  0  0  0
    2.3346   -4.2119   -1.6362 C   0  0  0  0  0  0  0  0  0  0  0  0
    2.0443   -5.5163   -1.4724 N   0  0  0  0  0  0  0  0  0  0  0  0
    3.0414   -3.5828   -2.6636 N   0  0  0  0  0  0  0  0  0  0  0  0
    2.6616   -2.2568   -2.4955 C   0  0  0  0  0  0  0  0  0  0  0  0
    2.1566   -2.0186   -1.2912 N   0  0  0  0  0  0  0  0  0  0  0  0
    3.7606   -4.1100   -3.8539 C   0  0  2  0  0  0  0  0  0  0  0  0
    3.4469   -3.4410   -4.6715 H   0  0  0  0  0  0  0  0  0  0  0  0
    3.3362   -5.4612   -4.1374 O   0  0  0  0  0  0  0  0  0  0  0  0
    4.3315   -6.3865   -3.5627 C   0  0  1  0  0  0  0  0  0  0  0  0
    4.1551   -7.3435   -4.0715 H   0  0  0  0  0  0  0  0  0  0  0  0
    5.6633   -5.7568   -3.8081 C   0  0  2  0  0  0  0  0  0  0  0  0
    6.3169   -5.9184   -2.9462 H   0  0  0  0  0  0  0  0  0  0  0  0
    5.3279   -4.2553   -3.9736 C   0  0  1  0  0  0  0  0  0  0  0  0
    5.8622   -3.6454   -3.2435 H   0  0  0  0  0  0  0  0  0  0  0  0
    5.7893   -3.8379   -5.2794 O   0  0  0  0  0  0  0  0  0  0  0  0
    6.2884   -6.3924   -4.9237 O   0  0  0  0  0  0  0  0  0  0  0  0
    4.1968   -6.4964   -2.0351 C   0  0  0  0  0  0  0  0  0  0  0  0
    4.9497   -7.3155   -1.1692 O   0  0  0  0  0  0  0  0  0  0  0  0
    5.0393   -7.4645    0.4668 P   0  0  1  0  0  0  0  0  0  0  0  0
    4.7231   -5.9865    0.6392 O   0  0  0  0  0  0  0  0  0  0  0  0
    4.1730   -8.8811    0.2545 O   0  0  0  0  0  0  0  0  0  0  0  0
    4.1205   -9.6168   -1.1696 P   0  0  2  0  0  0  0  0  0  0  0  0
    3.1795   -8.9869   -2.1384 O   0  0  0  0  0  0  0  0  0  0  0  0
    3.7706  -11.1960   -1.0704 O   0  0  0  0  0  0  0  0  0  0  0  0
    2.6476  -11.5062   -1.9346 C   0  0  0  0  0  0  0  0  0  0  0  0
    2.4816  -12.9679   -2.3247 C   0  0  1  0  0  0  0  0  0  0  0  0
    2.4575  -13.0559   -3.4262 H   0  0  0  0  0  0  0  0  0  0  0  0
    3.5301  -13.8157   -1.8309 O   0  0  0  0  0  0  0  0  0  0  0  0
    2.9431  -15.1126   -1.7888 C   0  0  2  0  0  0  0  0  0  0  0  0
    2.9731  -15.5650   -2.7883 H   0  0  0  0  0  0  0  0  0  0  0  0
    1.4845  -14.9305   -1.3361 C   0  0  1  0  0  0  0  0  0  0  0  0
    1.3730  -14.9932   -0.2498 H   0  0  0  0  0  0  0  0  0  0  0  0
    1.1727  -13.4947   -1.7359 C   0  0  2  0  0  0  0  0  0  0  0  0
    0.9100  -12.9302   -0.8347 H   0  0  0  0  0  0  0  0  0  0  0  0
    0.1024  -13.3588   -2.6495 O   0  0  0  0  0  0  0  0  0  0  0  0
    0.5758  -15.8525   -1.9158 O   0  0  0  0  0  0  0  0  0  0  0  0
    3.7196  -15.9846   -0.8645 N   0  3  0  0  0  0  0  0  0  0  0  0
    4.4262  -17.0214   -1.3753 C   0  0  0  0  0  0  0  0  0  0  0  0
    5.1469  -17.8661   -0.5397 C   0  0  0  0  0  0  0  0  0  0  0  0
    5.0337  -17.7185    0.8366 C   0  0  0  0  0  0  0  0  0  0  0  0
    4.3073  -16.6488    1.3564 C   0  0  0  0  0  0  0  0  0  0  0  0
    3.7430  -15.7374    0.4714 C   0  0  0  0  0  0  0  0  0  0  0  0
    4.1302  -16.5497    2.8242 C   0  0  0  0  0  0  0  0  0  0  0  0
    4.6091  -17.3981    3.5630 O   0  0  0  0  0  0  0  0  0  0  0  0
    3.3849  -15.5248    3.3310 N   0  0  0  0  0  0  0  0  0  0  0  0
    5.6825   -9.6359   -1.4938 O   0  0  0  0  0  0  0  0  0  0  0  0
    3.9545   -7.4756    1.7098 O   0  0  0  0  0  0  0  0  0  0  0  0
    2.3820   -7.5121    0.9394 H   0  0  0  0  0  0  0  0  0  0  0  0
    2.4869   -7.7523   -0.6652 H   0  0  0  0  0  0  0  0  0  0  0  0
    2.7548   -1.5210   -3.2857 H   0  0  0  0  0  0  0  0  0  0  0  0
    5.4585   -4.4689   -5.9450 H   0  0  0  0  0  0  0  0  0  0  0  0
    5.6396   -6.4788   -5.6418 H   0  0  0  0  0  0  0  0  0  0  0  0
    3.2161   -6.9207   -2.0926 H   0  0  0  0  0  0  0  0  0  0  0  0
    4.3387   -5.4983   -1.6509 H   0  0  0  0  0  0  0  0  0  0  0  0
    2.6478  -10.9492   -2.8863 H   0  0  0  0  0  0  0  0  0  0  0  0
    1.7686  -11.1390   -1.3971 H   0  0  0  0  0  0  0  0  0  0  0  0
   -0.6813  -13.7921   -2.2566 H   0  0  0  0  0  0  0  0  0  0  0  0
    0.7446  -16.7541   -1.5923 H   0  0  0  0  0  0  0  0  0  0  0  0
    4.4141  -17.1705   -2.4518 H   0  0  0  0  0  0  0  0  0  0  0  0
    5.7756  -18.6521   -0.9537 H   0  0  0  0  0  0  0  0  0  0  0  0
    5.5182  -18.4353    1.5026 H   0  0  0  0  0  0  0  0  0  0  0  0
    3.2804  -14.8153    0.8000 H   0  0  0  0  0  0  0  0  0  0  0  0
    2.9264  -14.7765    2.8397 H   0  0  0  0  0  0  0  0  0  0  0  0
    3.2808  -15.5127    4.3428 H   0  0  0  0  0  0  0  0  0  0  0  0
    6.0356  -10.3931   -1.9715 H   0  0  0  0  0  0  0  0  0  0  0  0
    3.9214   -6.5405    2.0339 H   0  0  0  0  0  0  0  0  0  0  0  0
  1  2  1  0  0  0  0
  1 55  1  0  0  0  0
  1 56  1  0  0  0  0
  2  3  1  0  0  0  0
  2  9  2  0  0  0  0
  3  4  1  0  0  0  0
  3  5  1  0  0  0  0
  5  6  2  0  0  0  0
  5  7  1  0  0  0  0
  7  8  2  0  0  0  0
  7 12  1  0  0  0  0
  8  9  1  0  0  0  0
  8 10  1  0  0  0  0
 10 11  1  0  0  0  0
 11 12  2  0  0  0  0
 11 57  1  0  0  0  0
 13 15  1  0  0  0  0
 13 20  1  0  0  0  0
 13 14  1  6  0  0  0
 13 10  1  0  0  0  0
 15 16  1  0  0  0  0
 16 17  1  6  0  0  0
 16 18  1  0  0  0  0
 16 24  1  0  0  0  0
 18 20  1  0  0  0  0
 18 23  1  0  0  0  0
 18 19  1  1  0  0  0
 20 22  1  0  0  0  0
 20 21  1  1  0  0  0
 22 58  1  0  0  0  0
 23 59  1  0  0  0  0
 24 25  1  0  0  0  0
 24 60  1  0  0  0  0
 24 61  1  0  0  0  0
 26 25  1  1  0  0  0
 26 27  2  0  0  0  0
 26 28  1  0  0  0  0
 26 54  1  0  0  0  0
 29 31  1  1  0  0  0
 29 53  1  0  0  0  0
 29 30  2  0  0  0  0
 29 28  1  0  0  0  0
 31 32  1  0  0  0  0
 32 33  1  0  0  0  0
 32 62  1  0  0  0  0
 32 63  1  0  0  0  0
 33 34  1  6  0  0  0
 33 35  1  0  0  0  0
 33 40  1  0  0  0  0
 35 36  1  0  0  0  0
 36 38  1  0  0  0  0
 36 44  1  0  0  0  0
 36 37  1  6  0  0  0
 38 39  1  1  0  0  0
 38 40  1  0  0  0  0
 38 43  1  0  0  0  0
 40 41  1  1  0  0  0
 40 42  1  0  0  0  0
 42 64  1  0  0  0  0
 43 65  1  0  0  0  0
 44 45  2  0  0  0  0
 44 49  1  0  0  0  0
 45 46  1  0  0  0  0
 45 66  1  0  0  0  0
 46 47  2  0  0  0  0
 46 67  1  0  0  0  0
 47 48  1  0  0  0  0
 47 68  1  0  0  0  0
 48 49  2  0  0  0  0
 48 50  1  0  0  0  0
 49 69  1  0  0  0  0
 50 51  2  0  0  0  0
 50 52  1  0  0  0  0
 52 70  1  0  0  0  0
 52 71  1  0  0  0  0
 53 72  1  0  0  0  0
 54 73  1  0  0  0  0
M  CHG  1  44   1
M  END
$$$$
