NGK
 OpenBabel04121316163D

 34 34  0  0  1  0  0  0  0  0999 V2000
    0.7865   -0.0796    0.0876 O   0  0  0  0  0  0  0  0  0  0  0  0
    2.1771   -0.1641   -0.1724 C   0  0  0  0  0  0  0  0  0  0  0  0
    2.7250    0.9294   -1.1375 C   0  0  1  0  0  0  0  0  0  0  0  0
    3.4530    0.4541   -1.8048 H   0  0  0  0  0  0  0  0  0  0  0  0
    1.7556    1.4854   -2.0268 O   0  0  0  0  0  0  0  0  0  0  0  0
    0.7809    2.3040   -1.4006 C   0  0  2  0  0  0  0  0  0  0  0  0
    0.1323    1.7388   -0.7382 H   0  0  0  0  0  0  0  0  0  0  0  0
   -0.0665    2.7943   -2.4291 O   0  0  0  0  0  0  0  0  0  0  0  0
    1.4372    3.4570   -0.6131 C   0  0  1  0  0  0  0  0  0  0  0  0
    0.6413    4.0107   -0.0985 H   0  0  0  0  0  0  0  0  0  0  0  0
    2.4634    2.8832    0.4099 C   0  0  2  0  0  0  0  0  0  0  0  0
    2.9889    3.6877    0.9320 H   0  0  0  0  0  0  0  0  0  0  0  0
    3.5029    2.0039   -0.3467 C   0  0  1  0  0  0  0  0  0  0  0  0
    4.0486    2.6687   -1.0330 H   0  0  0  0  0  0  0  0  0  0  0  0
    4.4795    1.4129    0.5323 O   0  0  0  0  0  0  0  0  0  0  0  0
    5.4826    0.2545   -0.0491 S   0  0  0  0  0  0  0  0  0  0  0  0
    4.7281   -0.9761   -0.1978 O   0  0  0  0  0  0  0  0  0  0  0  0
    6.2477    0.7921   -1.1393 O   0  0  0  0  0  0  0  0  0  0  0  0
    6.4428   -0.0450    1.1997 O   0  0  0  0  0  0  0  0  0  0  0  0
    1.7995    2.1672    1.4653 O   0  0  0  0  0  0  0  0  0  0  0  0
    2.0878    4.3892   -1.5365 N   0  0  0  0  0  0  0  0  0  0  0  0
    2.6203    5.5638   -1.0820 C   0  0  0  0  0  0  0  0  0  0  0  0
    2.6048    5.8915    0.1000 O   0  0  0  0  0  0  0  0  0  0  0  0
    3.2832    6.4093   -2.1217 C   0  0  0  0  0  0  0  0  0  0  0  0
    0.5680   -0.8485    0.6454 H   0  0  0  0  0  0  0  0  0  0  0  0
    2.3950   -1.1620   -0.5526 H   0  0  0  0  0  0  0  0  0  0  0  0
    2.6543   -0.0805    0.8116 H   0  0  0  0  0  0  0  0  0  0  0  0
   -0.5142    1.9915   -2.7531 H   0  0  0  0  0  0  0  0  0  0  0  0
    5.9183   -0.5651    1.8437 H   0  0  0  0  0  0  0  0  0  0  0  0
    1.1815    1.5116    1.0886 H   0  0  0  0  0  0  0  0  0  0  0  0
    2.0142    4.1836   -2.5297 H   0  0  0  0  0  0  0  0  0  0  0  0
    3.1949    5.9784   -3.1215 H   0  0  0  0  0  0  0  0  0  0  0  0
    4.3428    6.4959   -1.8655 H   0  0  0  0  0  0  0  0  0  0  0  0
    2.8131    7.3948   -2.1092 H   0  0  0  0  0  0  0  0  0  0  0  0
  1  2  1  0  0  0  0
  1 25  1  0  0  0  0
  2  3  1  0  0  0  0
  2 26  1  0  0  0  0
  2 27  1  0  0  0  0
  3  4  1  6  0  0  0
  3  5  1  0  0  0  0
  3 13  1  0  0  0  0
  5  6  1  0  0  0  0
  6  7  1  1  0  0  0
  6  8  1  0  0  0  0
  6  9  1  0  0  0  0
  8 28  1  0  0  0  0
  9 10  1  1  0  0  0
  9 11  1  0  0  0  0
  9 21  1  0  0  0  0
 11 13  1  0  0  0  0
 11 20  1  0  0  0  0
 11 12  1  1  0  0  0
 13 15  1  0  0  0  0
 13 14  1  6  0  0  0
 15 16  1  0  0  0  0
 16 17  2  0  0  0  0
 16 18  2  0  0  0  0
 16 19  1  0  0  0  0
 19 29  1  0  0  0  0
 20 30  1  0  0  0  0
 21 22  1  0  0  0  0
 21 31  1  0  0  0  0
 22 23  2  0  0  0  0
 22 24  1  0  0  0  0
 24 32  1  0  0  0  0
 24 33  1  0  0  0  0
 24 34  1  0  0  0  0
M  END
$$$$
