NGO
 OpenBabel04121316163D

 28 29  0  0  1  0  0  0  0  0999 V2000
    0.7635   -0.0990   -0.0405 O   0  0  0  0  0  0  0  0  0  0  0  0
    2.1766   -0.0769   -0.0339 C   0  0  0  0  0  0  0  0  0  0  0  0
    2.7526    1.2278   -0.6267 C   0  0  1  0  0  0  0  0  0  0  0  0
    2.4596    1.2905   -1.6831 H   0  0  0  0  0  0  0  0  0  0  0  0
    2.1003    2.3055    0.0250 O   0  0  0  0  0  0  0  0  0  0  0  0
    2.7616    3.3791    0.6219 C   0  0  2  0  0  0  0  0  0  0  0  0
    2.2383    3.5423    1.5727 H   0  0  0  0  0  0  0  0  0  0  0  0
    2.6000    4.5902   -0.1447 O   0  0  0  0  0  0  0  0  0  0  0  0
    3.7961    5.1232   -0.3546 C   0  0  0  0  0  0  0  0  0  0  0  0
    4.7355    4.4625    0.1948 N   0  3  0  0  0  0  0  0  0  0  0  0
    5.7104    4.7396    0.0936 H   0  0  0  0  0  0  0  0  0  0  0  0
    4.2441    3.2786    0.8979 C   0  0  2  0  0  0  0  0  0  0  0  0
    4.4453    3.4505    1.9615 H   0  0  0  0  0  0  0  0  0  0  0  0
    4.9995    2.0787    0.3864 C   0  0  2  0  0  0  0  0  0  0  0  0
    5.8915    2.4106   -0.1640 H   0  0  0  0  0  0  0  0  0  0  0  0
    4.2712    1.0831   -0.4949 C   0  0  2  0  0  0  0  0  0  0  0  0
    4.5089    0.0767   -0.1259 H   0  0  0  0  0  0  0  0  0  0  0  0
    4.8491    1.1419   -1.8040 O   0  0  0  0  0  0  0  0  0  0  0  0
    5.5378    1.4003    1.5272 O   0  0  0  0  0  0  0  0  0  0  0  0
    4.0370    6.3315   -1.1476 C   0  0  0  0  0  0  0  0  0  0  0  0
    0.4925   -0.9380    0.3732 H   0  0  0  0  0  0  0  0  0  0  0  0
    2.5454   -0.9398   -0.5995 H   0  0  0  0  0  0  0  0  0  0  0  0
    2.5037   -0.1714    1.0087 H   0  0  0  0  0  0  0  0  0  0  0  0
    5.7774    0.8425   -1.7375 H   0  0  0  0  0  0  0  0  0  0  0  0
    4.8159    0.9590    2.0155 H   0  0  0  0  0  0  0  0  0  0  0  0
    3.0869    6.7407   -1.4983 H   0  0  0  0  0  0  0  0  0  0  0  0
    4.6597    6.0884   -2.0141 H   0  0  0  0  0  0  0  0  0  0  0  0
    4.5455    7.0846   -0.5380 H   0  0  0  0  0  0  0  0  0  0  0  0
  1  2  1  0  0  0  0
  1 21  1  0  0  0  0
  2  3  1  0  0  0  0
  2 22  1  0  0  0  0
  2 23  1  0  0  0  0
  3  4  1  6  0  0  0
  3  5  1  0  0  0  0
  3 16  1  0  0  0  0
  5  6  1  0  0  0  0
  6  7  1  1  0  0  0
  6  8  1  0  0  0  0
  6 12  1  0  0  0  0
  8  9  1  0  0  0  0
  9 10  2  0  0  0  0
  9 20  1  0  0  0  0
 10 11  1  0  0  0  0
 10 12  1  0  0  0  0
 12 13  1  1  0  0  0
 12 14  1  0  0  0  0
 14 16  1  0  0  0  0
 14 19  1  0  0  0  0
 14 15  1  6  0  0  0
 16 17  1  1  0  0  0
 16 18  1  0  0  0  0
 18 24  1  0  0  0  0
 19 25  1  0  0  0  0
 20 26  1  0  0  0  0
 20 27  1  0  0  0  0
 20 28  1  0  0  0  0
M  CHG  1  10   1
M  END
$$$$
