NGQ
 OpenBabel04121316163D

 24 23  0  0  1  0  0  0  0  0999 V2000
    6.6476   -0.4939   -0.6669 N   0  0  0  0  0  0  0  0  0  0  0  0
    6.0007   -0.9580    0.4113 C   0  0  0  0  0  0  0  0  0  0  0  0
    6.3718   -2.0561    0.9664 N   0  0  0  0  0  0  0  0  0  0  0  0
    4.9476   -0.2881    0.9272 N   0  0  0  0  0  0  0  0  0  0  0  0
    4.4345    1.0495    0.6391 C   0  0  2  0  0  0  0  0  0  0  0  0
    3.3437    1.0217    0.7748 H   0  0  0  0  0  0  0  0  0  0  0  0
    4.6577    1.4556   -0.8203 C   0  0  0  0  0  0  0  0  0  0  0  0
    5.3067    2.4116   -1.1954 O   0  0  0  0  0  0  0  0  0  0  0  0
    4.2476    0.5013   -1.7029 O   0  0  0  0  0  0  0  0  0  0  0  0
    4.9914    2.1077    1.5898 C   0  0  0  0  0  0  0  0  0  0  0  0
    6.5234    2.1652    1.6503 C   0  0  0  0  0  0  0  0  0  0  0  0
    6.9687    3.3118    2.5221 C   0  0  0  0  0  0  0  0  0  0  0  0
    6.2131    4.0684    3.1149 O   0  0  0  0  0  0  0  0  0  0  0  0
    8.3123    3.4297    2.6004 O   0  0  0  0  0  0  0  0  0  0  0  0
    7.2249   -1.1321   -1.1964 H   0  0  0  0  0  0  0  0  0  0  0  0
    6.2788    0.2248   -1.2754 H   0  0  0  0  0  0  0  0  0  0  0  0
    7.1721   -2.4210    0.4429 H   0  0  0  0  0  0  0  0  0  0  0  0
    4.6948   -0.6496    1.8484 H   0  0  0  0  0  0  0  0  0  0  0  0
    4.0044   -0.3315   -1.2404 H   0  0  0  0  0  0  0  0  0  0  0  0
    4.5968    1.9423    2.6014 H   0  0  0  0  0  0  0  0  0  0  0  0
    4.6067    3.0891    1.2765 H   0  0  0  0  0  0  0  0  0  0  0  0
    6.9507    2.3156    0.6543 H   0  0  0  0  0  0  0  0  0  0  0  0
    6.9201    1.2353    2.0698 H   0  0  0  0  0  0  0  0  0  0  0  0
    8.8056    2.7705    2.0762 H   0  0  0  0  0  0  0  0  0  0  0  0
  1  2  1  0  0  0  0
  1 15  1  0  0  0  0
  1 16  1  0  0  0  0
  2  3  2  0  0  0  0
  2  4  1  0  0  0  0
  3 17  1  0  0  0  0
  4 18  1  0  0  0  0
  5  7  1  0  0  0  0
  5 10  1  0  0  0  0
  5  6  1  1  0  0  0
  5  4  1  0  0  0  0
  7  8  2  0  0  0  0
  7  9  1  0  0  0  0
  9 19  1  0  0  0  0
 10 11  1  0  0  0  0
 10 20  1  0  0  0  0
 10 21  1  0  0  0  0
 11 12  1  0  0  0  0
 11 22  1  0  0  0  0
 11 23  1  0  0  0  0
 12 13  2  0  0  0  0
 12 14  1  0  0  0  0
 14 24  1  0  0  0  0
M  END
$$$$
