NGT
 OpenBabel04121316163D

 27 28  0  0  1  0  0  0  0  0999 V2000
    0.7929    0.2689   -0.2157 O   0  0  0  0  0  0  0  0  0  0  0  0
    2.1993    0.1410   -0.2787 C   0  0  0  0  0  0  0  0  0  0  0  0
    3.0704    1.4306   -0.0258 C   0  0  1  0  0  0  0  0  0  0  0  0
    3.7571    1.4261   -0.8817 H   0  0  0  0  0  0  0  0  0  0  0  0
    2.5161    2.7604   -0.0853 O   0  0  0  0  0  0  0  0  0  0  0  0
    2.2492    3.5341    1.1014 C   0  0  2  0  0  0  0  0  0  0  0  0
    1.1877    3.7798    0.9916 H   0  0  0  0  0  0  0  0  0  0  0  0
    3.0890    5.1545    1.2302 S   0  0  0  0  0  0  0  0  0  0  0  0
    3.6484    4.8472    2.8523 C   0  0  0  0  0  0  0  0  0  0  0  0
    3.3787    3.6867    3.3683 N   0  0  0  0  0  0  0  0  0  0  0  0
    2.4505    2.9293    2.4914 C   0  0  2  0  0  0  0  0  0  0  0  0
    1.4816    3.0083    3.0040 H   0  0  0  0  0  0  0  0  0  0  0  0
    2.8549    1.4690    2.4477 C   0  0  2  0  0  0  0  0  0  0  0  0
    3.3603    1.1984    3.3780 H   0  0  0  0  0  0  0  0  0  0  0  0
    3.8045    1.1499    1.2800 C   0  0  2  0  0  0  0  0  0  0  0  0
    4.0839    0.0905    1.3154 H   0  0  0  0  0  0  0  0  0  0  0  0
    5.0339    1.8604    1.3366 O   0  0  0  0  0  0  0  0  0  0  0  0
    1.6526    0.6791    2.4107 O   0  0  0  0  0  0  0  0  0  0  0  0
    4.4213    5.8711    3.6394 C   0  0  0  0  0  0  0  0  0  0  0  0
    0.4640   -0.6552   -0.1746 H   0  0  0  0  0  0  0  0  0  0  0  0
    2.5033   -0.3482   -1.2107 H   0  0  0  0  0  0  0  0  0  0  0  0
    2.4415   -0.6269    0.4725 H   0  0  0  0  0  0  0  0  0  0  0  0
    5.5230    1.4914    2.0939 H   0  0  0  0  0  0  0  0  0  0  0  0
    1.0861    0.9890    1.6683 H   0  0  0  0  0  0  0  0  0  0  0  0
    4.5450    6.8191    3.1106 H   0  0  0  0  0  0  0  0  0  0  0  0
    5.4103    5.4752    3.8967 H   0  0  0  0  0  0  0  0  0  0  0  0
    3.9070    6.0757    4.5889 H   0  0  0  0  0  0  0  0  0  0  0  0
  1  2  1  0  0  0  0
  1 20  1  0  0  0  0
  2  3  1  0  0  0  0
  2 21  1  0  0  0  0
  2 22  1  0  0  0  0
  3  4  1  6  0  0  0
  3  5  1  0  0  0  0
  3 15  1  0  0  0  0
  5  6  1  0  0  0  0
  6  7  1  6  0  0  0
  6  8  1  0  0  0  0
  6 11  1  0  0  0  0
  8  9  1  0  0  0  0
  9 10  2  0  0  0  0
  9 19  1  0  0  0  0
 10 11  1  0  0  0  0
 11 12  1  1  0  0  0
 11 13  1  0  0  0  0
 13 15  1  0  0  0  0
 13 18  1  0  0  0  0
 13 14  1  1  0  0  0
 15 16  1  1  0  0  0
 15 17  1  0  0  0  0
 17 23  1  0  0  0  0
 18 24  1  0  0  0  0
 19 25  1  0  0  0  0
 19 26  1  0  0  0  0
 19 27  1  0  0  0  0
M  END
$$$$
