NH3
 OpenBabel04121316163D

  4  3  0  0  0  0  0  0  0  0999 V2000
    0.9396   -0.0497    0.0342 N   0  0  0  0  0  0  0  0  0  0  0  0
    1.9569   -0.1047    0.0146 H   0  0  0  0  0  0  0  0  0  0  0  0
    0.6280   -0.8205    0.6233 H   0  0  0  0  0  0  0  0  0  0  0  0
    0.6280   -0.2739   -0.9098 H   0  0  0  0  0  0  0  0  0  0  0  0
  1  2  1  0  0  0  0
  1  3  1  0  0  0  0
  1  4  1  0  0  0  0
M  END
$$$$
