NHB
 OpenBabel04121316163D

 41 43  0  0  0  0  0  0  0  0999 V2000
    0.8977   -0.0612    0.0556 O   0  0  0  0  0  0  0  0  0  0  0  0
    2.3042   -0.0125    0.0690 N   0  0  0  0  0  0  0  0  0  0  0  0
    2.9063   -0.3212    1.2589 C   0  0  0  0  0  0  0  0  0  0  0  0
    2.3415   -0.6228    2.3038 O   0  0  0  0  0  0  0  0  0  0  0  0
    4.3760   -0.2911    1.2006 C   0  0  0  0  0  0  0  0  0  0  0  0
    5.0684   -1.4808    1.2805 C   0  0  0  0  0  0  0  0  0  0  0  0
    6.4611   -1.4678    1.3090 C   0  0  0  0  0  0  0  0  0  0  0  0
    7.1913   -0.2988    1.4165 C   0  0  0  0  0  0  0  0  0  0  0  0
    6.4886    0.8663    1.0708 C   0  0  0  0  0  0  0  0  0  0  0  0
    5.0847    0.8838    0.9902 C   0  0  0  0  0  0  0  0  0  0  0  0
    8.6008   -0.3182    1.7461 N   0  0  0  0  0  0  0  0  0  0  0  0
    9.4361   -1.6019    2.5570 S   0  0  0  0  0  0  0  0  0  0  0  0
   10.4053   -2.1002    1.5873 O   0  0  0  0  0  0  0  0  0  0  0  0
    9.9007   -1.1210    3.8376 O   0  0  0  0  0  0  0  0  0  0  0  0
    8.4916   -3.0579    2.9642 C   0  0  0  0  0  0  0  0  0  0  0  0
    8.6580   -4.4085    2.6999 C   0  0  0  0  0  0  0  0  0  0  0  0
    7.4353   -5.1217    2.8933 C   0  0  0  0  0  0  0  0  0  0  0  0
    6.4124   -4.2982    3.3477 C   0  0  0  0  0  0  0  0  0  0  0  0
    7.1156   -2.8553    3.9835 S   0  0  0  0  0  0  0  0  0  0  0  0
    4.9684   -4.5619    3.4255 C   0  0  0  0  0  0  0  0  0  0  0  0
    4.5007   -5.8648    3.3783 C   0  0  0  0  0  0  0  0  0  0  0  0
    3.1327   -6.0949    3.3171 C   0  0  0  0  0  0  0  0  0  0  0  0
    2.2574   -5.0184    3.3529 C   0  0  0  0  0  0  0  0  0  0  0  0
    2.7953   -3.7474    3.4579 C   0  0  0  0  0  0  0  0  0  0  0  0
    4.1296   -3.4998    3.4660 N   0  0  0  0  0  0  0  0  0  0  0  0
    9.4164    0.9085    1.6427 C   0  0  0  0  0  0  0  0  0  0  0  0
    0.6638    0.1636   -0.8594 H   0  0  0  0  0  0  0  0  0  0  0  0
    2.8135    0.1456   -0.7926 H   0  0  0  0  0  0  0  0  0  0  0  0
    4.5449   -2.4288    1.3319 H   0  0  0  0  0  0  0  0  0  0  0  0
    6.9501   -2.4257    1.2772 H   0  0  0  0  0  0  0  0  0  0  0  0
    6.9901    1.7953    0.8279 H   0  0  0  0  0  0  0  0  0  0  0  0
    4.5637    1.8147    0.7887 H   0  0  0  0  0  0  0  0  0  0  0  0
    9.5596   -4.8379    2.2754 H   0  0  0  0  0  0  0  0  0  0  0  0
    7.2975   -6.1638    2.6277 H   0  0  0  0  0  0  0  0  0  0  0  0
    5.1922   -6.6959    3.4110 H   0  0  0  0  0  0  0  0  0  0  0  0
    2.7642   -7.1135    3.2659 H   0  0  0  0  0  0  0  0  0  0  0  0
    1.1844   -5.1718    3.3309 H   0  0  0  0  0  0  0  0  0  0  0  0
    2.1496   -2.8753    3.5575 H   0  0  0  0  0  0  0  0  0  0  0  0
    8.8744    1.7681    1.2531 H   0  0  0  0  0  0  0  0  0  0  0  0
   10.2430    0.7325    0.9501 H   0  0  0  0  0  0  0  0  0  0  0  0
    9.7997    1.2172    2.6200 H   0  0  0  0  0  0  0  0  0  0  0  0
  1  2  1  0  0  0  0
  1 27  1  0  0  0  0
  2  3  1  0  0  0  0
  2 28  1  0  0  0  0
  3  4  2  0  0  0  0
  3  5  1  0  0  0  0
  5  6  2  0  0  0  0
  5 10  1  0  0  0  0
  6  7  1  0  0  0  0
  6 29  1  0  0  0  0
  7  8  2  0  0  0  0
  7 30  1  0  0  0  0
  8  9  1  0  0  0  0
  8 11  1  0  0  0  0
  9 10  2  0  0  0  0
  9 31  1  0  0  0  0
 10 32  1  0  0  0  0
 11 12  1  0  0  0  0
 11 26  1  0  0  0  0
 12 13  2  0  0  0  0
 12 14  2  0  0  0  0
 12 15  1  0  0  0  0
 15 16  2  0  0  0  0
 15 19  1  0  0  0  0
 16 17  1  0  0  0  0
 16 33  1  0  0  0  0
 17 18  2  0  0  0  0
 17 34  1  0  0  0  0
 18 19  1  0  0  0  0
 18 20  1  0  0  0  0
 20 21  2  0  0  0  0
 20 25  1  0  0  0  0
 21 22  1  0  0  0  0
 21 35  1  0  0  0  0
 22 23  2  0  0  0  0
 22 36  1  0  0  0  0
 23 24  1  0  0  0  0
 23 37  1  0  0  0  0
 24 25  2  0  0  0  0
 24 38  1  0  0  0  0
 26 39  1  0  0  0  0
 26 40  1  0  0  0  0
 26 41  1  0  0  0  0
M  END
$$$$
