NHM
 OpenBabel04121316163D

128130  0  0  1  0  0  0  0  0999 V2000
   43.1249   15.8487   16.7091 C   0  0  0  0  0  0  0  0  0  0  0  0
   42.5416   15.2325   15.4529 C   0  0  0  0  0  0  0  0  0  0  0  0
   41.7457   13.9817   15.7965 C   0  0  0  0  0  0  0  0  0  0  0  0
   41.1598   13.3620   14.5385 C   0  0  0  0  0  0  0  0  0  0  0  0
   40.3675   12.1147   14.8912 C   0  0  0  0  0  0  0  0  0  0  0  0
   39.7834   11.4978   13.6333 C   0  0  0  0  0  0  0  0  0  0  0  0
   38.9923   10.2522   13.9865 C   0  0  0  0  0  0  0  0  0  0  0  0
   38.4090    9.6364   12.7284 C   0  0  0  0  0  0  0  0  0  0  0  0
   37.6188    8.3915   13.0847 C   0  0  0  0  0  0  0  0  0  0  0  0
   37.0327    7.7706   11.8314 C   0  0  0  0  0  0  0  0  0  0  0  0
   36.2429    6.5243   12.1980 C   0  0  0  0  0  0  0  0  0  0  0  0
   35.6582    5.9050   10.9475 C   0  0  0  0  0  0  0  0  0  0  0  0
   34.8540    4.6473   11.2639 C   0  0  0  0  0  0  0  0  0  0  0  0
   34.3023    4.0852    9.9717 C   0  0  0  0  0  0  0  0  0  0  0  0
   34.5426    4.6544    8.9035 O   0  0  0  0  0  0  0  0  0  0  0  0
   33.4587    2.8132   10.0669 C   0  0  0  0  0  0  0  0  0  0  0  0
   32.9347    2.3714    8.3736 S   0  0  0  0  0  0  0  0  0  0  0  0
   31.9595    0.8740    8.6217 C   0  0  0  0  0  0  0  0  0  0  0  0
   31.4861    0.4474    7.2350 C   0  0  0  0  0  0  0  0  0  0  0  0
   30.6787   -0.7527    7.2463 N   0  0  0  0  0  0  0  0  0  0  0  0
   30.2035   -1.2120    6.0409 C   0  0  0  0  0  0  0  0  0  0  0  0
   30.4448   -0.6463    4.9812 O   0  0  0  0  0  0  0  0  0  0  0  0
   29.3736   -2.4607    6.1227 C   0  0  0  0  0  0  0  0  0  0  0  0
   28.9600   -2.8219    4.7004 C   0  0  0  0  0  0  0  0  0  0  0  0
   28.2065   -4.0362    4.6919 N   0  0  0  0  0  0  0  0  0  0  0  0
   27.6434   -4.5670    3.5550 C   0  0  0  0  0  0  0  0  0  0  0  0
   27.7569   -4.0739    2.4433 O   0  0  0  0  0  0  0  0  0  0  0  0
   26.8458   -5.8559    3.8307 C   0  0  2  0  0  0  0  0  0  0  0  0
   26.1638   -5.9607    2.9721 H   0  0  0  0  0  0  0  0  0  0  0  0
   26.0281   -5.7942    5.1531 C   0  0  0  0  0  0  0  0  0  0  0  0
   25.2712   -7.0793    5.3173 C   0  0  0  0  0  0  0  0  0  0  0  0
   24.5961   -7.5793    4.1998 O   0  0  0  0  0  0  0  0  0  0  0  0
   24.0862   -9.0148    4.6878 P   0  0  2  0  0  0  0  0  0  0  0  0
   23.2818   -9.0283    5.9532 O   0  0  0  0  0  0  0  0  0  0  0  0
   25.3610   -9.9264    4.4939 O   0  0  0  0  0  0  0  0  0  0  0  0
   25.3015  -11.5220    4.7122 P   0  0  2  0  0  0  0  0  0  0  0  0
   25.8412  -11.9242    3.3224 O   0  0  0  0  0  0  0  0  0  0  0  0
   23.7776  -12.0094    4.2889 O   0  0  0  0  0  0  0  0  0  0  0  0
   23.7091  -12.8366    3.0847 C   0  0  0  0  0  0  0  0  0  0  0  0
   22.3344  -13.3702    2.7775 C   0  0  1  0  0  0  0  0  0  0  0  0
   22.2724  -13.5603    1.6951 H   0  0  0  0  0  0  0  0  0  0  0  0
   22.1096  -14.6305    3.4199 O   0  0  0  0  0  0  0  0  0  0  0  0
   20.6812  -14.7444    3.4271 C   0  0  2  0  0  0  0  0  0  0  0  0
   20.3564  -15.0862    2.4335 H   0  0  0  0  0  0  0  0  0  0  0  0
   20.1274  -13.3453    3.7064 C   0  0  1  0  0  0  0  0  0  0  0  0
   19.9609  -13.1693    4.7723 H   0  0  0  0  0  0  0  0  0  0  0  0
   21.2503  -12.4255    3.2670 C   0  0  2  0  0  0  0  0  0  0  0  0
   21.5617  -11.8514    4.1429 H   0  0  0  0  0  0  0  0  0  0  0  0
   20.8599  -11.5026    2.2784 O   0  0  0  0  0  0  0  0  0  0  0  0
   22.1383  -10.4574    1.7624 P   0  0  0  0  0  0  0  0  0  0  0  0
   22.4777  -11.3830    0.5962 O   0  0  0  0  0  0  0  0  0  0  0  0
   21.0312   -9.3953    1.2274 O   0  0  0  0  0  0  0  0  0  0  0  0
   23.4168   -9.4123    1.2464 O   0  0  0  0  0  0  0  0  0  0  0  0
   18.9049  -13.0925    3.0241 O   0  0  0  0  0  0  0  0  0  0  0  0
   20.2754  -15.7438    4.3858 N   0  0  0  0  0  0  0  0  0  0  0  0
   19.5893  -16.8847    4.0599 C   0  0  0  0  0  0  0  0  0  0  0  0
   19.1940  -17.5421    5.1267 N   0  0  0  0  0  0  0  0  0  0  0  0
   19.6608  -16.7978    6.1904 C   0  0  0  0  0  0  0  0  0  0  0  0
   20.3463  -15.6757    5.7518 C   0  0  0  0  0  0  0  0  0  0  0  0
   20.9055  -14.7202    6.5167 N   0  0  0  0  0  0  0  0  0  0  0  0
   20.7256  -14.9908    7.8283 C   0  0  0  0  0  0  0  0  0  0  0  0
   20.0932  -16.0422    8.3929 N   0  0  0  0  0  0  0  0  0  0  0  0
   19.5439  -16.9707    7.5785 C   0  0  0  0  0  0  0  0  0  0  0  0
   18.8802  -18.0384    8.1368 N   0  0  0  0  0  0  0  0  0  0  0  0
   24.6968  -11.0714    6.2692 O   0  0  0  0  0  0  0  0  0  0  0  0
   23.3539   -9.6189    3.4746 O   0  0  0  0  0  0  0  0  0  0  0  0
   26.8437   -5.8517    6.4760 C   0  0  0  0  0  0  0  0  0  0  0  0
   25.0357   -4.6265    5.1403 C   0  0  0  0  0  0  0  0  0  0  0  0
   27.7021   -6.9996    3.8489 O   0  0  0  0  0  0  0  0  0  0  0  0
   43.6961   16.7467   16.4606 H   0  0  0  0  0  0  0  0  0  0  0  0
   43.7925   15.1418   17.2122 H   0  0  0  0  0  0  0  0  0  0  0  0
   42.3298   16.1265   17.4083 H   0  0  0  0  0  0  0  0  0  0  0  0
   43.3498   14.9808   14.7563 H   0  0  0  0  0  0  0  0  0  0  0  0
   41.8938   15.9610   14.9515 H   0  0  0  0  0  0  0  0  0  0  0  0
   40.9378   14.2327   16.4949 H   0  0  0  0  0  0  0  0  0  0  0  0
   42.3932   13.2530   16.2997 H   0  0  0  0  0  0  0  0  0  0  0  0
   41.9640   13.1049   13.8383 H   0  0  0  0  0  0  0  0  0  0  0  0
   40.5078   14.0852   14.0336 H   0  0  0  0  0  0  0  0  0  0  0  0
   39.5610   12.3684   15.5903 H   0  0  0  0  0  0  0  0  0  0  0  0
   41.0169   11.3882   15.3951 H   0  0  0  0  0  0  0  0  0  0  0  0
   40.5886   11.2420   12.9335 H   0  0  0  0  0  0  0  0  0  0  0  0
   39.1324   12.2223   13.1288 H   0  0  0  0  0  0  0  0  0  0  0  0
   38.1863   10.5066   14.6859 H   0  0  0  0  0  0  0  0  0  0  0  0
   39.6424    9.5264   14.4906 H   0  0  0  0  0  0  0  0  0  0  0  0
   39.2145    9.3810   12.0288 H   0  0  0  0  0  0  0  0  0  0  0  0
   37.7583   10.3614   12.2241 H   0  0  0  0  0  0  0  0  0  0  0  0
   36.8138    8.6478   13.7843 H   0  0  0  0  0  0  0  0  0  0  0  0
   38.2702    7.6673   13.5890 H   0  0  0  0  0  0  0  0  0  0  0  0
   37.8370    7.5152   11.1298 H   0  0  0  0  0  0  0  0  0  0  0  0
   36.3819    8.4948   11.3249 H   0  0  0  0  0  0  0  0  0  0  0  0
   35.4384    6.7843   12.8956 H   0  0  0  0  0  0  0  0  0  0  0  0
   36.8971    5.8023   12.7000 H   0  0  0  0  0  0  0  0  0  0  0  0
   36.4684    5.6622   10.2463 H   0  0  0  0  0  0  0  0  0  0  0  0
   35.0170    6.6393   10.4409 H   0  0  0  0  0  0  0  0  0  0  0  0
   34.0236    4.8884   11.9356 H   0  0  0  0  0  0  0  0  0  0  0  0
   35.4955    3.8975   11.7382 H   0  0  0  0  0  0  0  0  0  0  0  0
   32.5880    3.0113   10.6997 H   0  0  0  0  0  0  0  0  0  0  0  0
   34.0684    2.0149   10.5013 H   0  0  0  0  0  0  0  0  0  0  0  0
   31.1003    1.0750    9.2682 H   0  0  0  0  0  0  0  0  0  0  0  0
   32.5700    0.0854    9.0710 H   0  0  0  0  0  0  0  0  0  0  0  0
   32.3393    0.2543    6.5692 H   0  0  0  0  0  0  0  0  0  0  0  0
   30.8821    1.2362    6.7646 H   0  0  0  0  0  0  0  0  0  0  0  0
   30.4699   -1.2327    8.1112 H   0  0  0  0  0  0  0  0  0  0  0  0
   28.4986   -2.2929    6.7639 H   0  0  0  0  0  0  0  0  0  0  0  0
   29.9625   -3.2690    6.5760 H   0  0  0  0  0  0  0  0  0  0  0  0
   29.8331   -2.9891    4.0635 H   0  0  0  0  0  0  0  0  0  0  0  0
   28.3437   -2.0333    4.2538 H   0  0  0  0  0  0  0  0  0  0  0  0
   28.4589   -4.7045    5.3963 H   0  0  0  0  0  0  0  0  0  0  0  0
   24.5541   -6.9798    6.1404 H   0  0  0  0  0  0  0  0  0  0  0  0
   25.9971   -7.8536    5.6011 H   0  0  0  0  0  0  0  0  0  0  0  0
   24.4247  -13.6645    3.1452 H   0  0  0  0  0  0  0  0  0  0  0  0
   23.9986  -12.1965    2.2430 H   0  0  0  0  0  0  0  0  0  0  0  0
   20.1436   -9.7879    1.3138 H   0  0  0  0  0  0  0  0  0  0  0  0
   24.1074   -9.9371    0.7965 H   0  0  0  0  0  0  0  0  0  0  0  0
   18.2200  -13.6589    3.4166 H   0  0  0  0  0  0  0  0  0  0  0  0
   19.3885  -17.1752    3.0356 H   0  0  0  0  0  0  0  0  0  0  0  0
   21.1397  -14.2671    8.5256 H   0  0  0  0  0  0  0  0  0  0  0  0
   18.8590  -18.1282    9.1390 H   0  0  0  0  0  0  0  0  0  0  0  0
   18.4880  -18.7393    7.5234 H   0  0  0  0  0  0  0  0  0  0  0  0
   24.4168  -11.8559    6.7785 H   0  0  0  0  0  0  0  0  0  0  0  0
   24.1048   -9.8774    2.8808 H   0  0  0  0  0  0  0  0  0  0  0  0
   27.6085   -6.6406    6.4134 H   0  0  0  0  0  0  0  0  0  0  0  0
   26.1945   -6.1137    7.3218 H   0  0  0  0  0  0  0  0  0  0  0  0
   27.3048   -4.9183    6.7813 H   0  0  0  0  0  0  0  0  0  0  0  0
   24.3521   -4.6935    4.2855 H   0  0  0  0  0  0  0  0  0  0  0  0
   25.5455   -3.6610    5.0898 H   0  0  0  0  0  0  0  0  0  0  0  0
   24.4260   -4.6258    6.0502 H   0  0  0  0  0  0  0  0  0  0  0  0
   27.1442   -7.7654    3.6160 H   0  0  0  0  0  0  0  0  0  0  0  0
  1  2  1  0  0  0  0
  1 70  1  0  0  0  0
  1 71  1  0  0  0  0
  1 72  1  0  0  0  0
  2  3  1  0  0  0  0
  2 73  1  0  0  0  0
  2 74  1  0  0  0  0
  3  4  1  0  0  0  0
  3 75  1  0  0  0  0
  3 76  1  0  0  0  0
  4  5  1  0  0  0  0
  4 77  1  0  0  0  0
  4 78  1  0  0  0  0
  5  6  1  0  0  0  0
  5 79  1  0  0  0  0
  5 80  1  0  0  0  0
  6  7  1  0  0  0  0
  6 81  1  0  0  0  0
  6 82  1  0  0  0  0
  7  8  1  0  0  0  0
  7 83  1  0  0  0  0
  7 84  1  0  0  0  0
  8  9  1  0  0  0  0
  8 85  1  0  0  0  0
  8 86  1  0  0  0  0
  9 10  1  0  0  0  0
  9 87  1  0  0  0  0
  9 88  1  0  0  0  0
 10 11  1  0  0  0  0
 10 89  1  0  0  0  0
 10 90  1  0  0  0  0
 11 12  1  0  0  0  0
 11 91  1  0  0  0  0
 11 92  1  0  0  0  0
 12 13  1  0  0  0  0
 12 93  1  0  0  0  0
 12 94  1  0  0  0  0
 13 14  1  0  0  0  0
 13 95  1  0  0  0  0
 13 96  1  0  0  0  0
 14 15  2  0  0  0  0
 14 16  1  0  0  0  0
 16 17  1  0  0  0  0
 16 97  1  0  0  0  0
 16 98  1  0  0  0  0
 17 18  1  0  0  0  0
 18 19  1  0  0  0  0
 18 99  1  0  0  0  0
 18100  1  0  0  0  0
 19 20  1  0  0  0  0
 19101  1  0  0  0  0
 19102  1  0  0  0  0
 20 21  1  0  0  0  0
 20103  1  0  0  0  0
 21 22  2  0  0  0  0
 21 23  1  0  0  0  0
 23 24  1  0  0  0  0
 23104  1  0  0  0  0
 23105  1  0  0  0  0
 24 25  1  0  0  0  0
 24106  1  0  0  0  0
 24107  1  0  0  0  0
 25 26  1  0  0  0  0
 25108  1  0  0  0  0
 26 27  2  0  0  0  0
 28 30  1  0  0  0  0
 28 69  1  0  0  0  0
 28 29  1  6  0  0  0
 28 26  1  0  0  0  0
 30 31  1  0  0  0  0
 30 67  1  0  0  0  0
 30 68  1  0  0  0  0
 31 32  1  0  0  0  0
 31109  1  0  0  0  0
 31110  1  0  0  0  0
 33 35  1  1  0  0  0
 33 66  1  0  0  0  0
 33 34  2  0  0  0  0
 33 32  1  0  0  0  0
 36 38  1  6  0  0  0
 36 65  1  0  0  0  0
 36 37  2  0  0  0  0
 36 35  1  0  0  0  0
 38 39  1  0  0  0  0
 39 40  1  0  0  0  0
 39111  1  0  0  0  0
 39112  1  0  0  0  0
 40 41  1  6  0  0  0
 40 42  1  0  0  0  0
 40 47  1  0  0  0  0
 42 43  1  0  0  0  0
 43 45  1  0  0  0  0
 43 55  1  0  0  0  0
 43 44  1  6  0  0  0
 45 46  1  1  0  0  0
 45 47  1  0  0  0  0
 45 54  1  0  0  0  0
 47 48  1  1  0  0  0
 47 49  1  0  0  0  0
 49 50  1  0  0  0  0
 50 51  2  0  0  0  0
 50 52  1  0  0  0  0
 50 53  1  0  0  0  0
 52113  1  0  0  0  0
 53114  1  0  0  0  0
 54115  1  0  0  0  0
 55 56  1  0  0  0  0
 55 59  1  0  0  0  0
 56 57  2  0  0  0  0
 56116  1  0  0  0  0
 57 58  1  0  0  0  0
 58 59  2  0  0  0  0
 58 63  1  0  0  0  0
 59 60  1  0  0  0  0
 60 61  2  0  0  0  0
 61 62  1  0  0  0  0
 61117  1  0  0  0  0
 62 63  2  0  0  0  0
 63 64  1  0  0  0  0
 64118  1  0  0  0  0
 64119  1  0  0  0  0
 65120  1  0  0  0  0
 66121  1  0  0  0  0
 67122  1  0  0  0  0
 67123  1  0  0  0  0
 67124  1  0  0  0  0
 68125  1  0  0  0  0
 68126  1  0  0  0  0
 68127  1  0  0  0  0
 69128  1  0  0  0  0
M  END
$$$$
