NHT
 OpenBabel04121316163D

 32 33  0  0  1  0  0  0  0  0999 V2000
    1.0099   -0.0895   -0.1087 C   0  0  0  0  0  0  0  0  0  0  0  0
    2.5305   -0.0667   -0.1184 C   0  0  0  0  0  0  0  0  0  0  0  0
    3.1061   -1.2571   -0.7245 N   0  0  0  0  0  0  0  0  0  0  0  0
    4.4557   -1.4131   -0.8406 C   0  0  0  0  0  0  0  0  0  0  0  0
    5.2984   -0.4410   -0.9207 N   0  0  0  0  0  0  0  0  0  0  0  0
    6.7059   -0.9109   -0.9419 C   0  0  1  0  0  0  0  0  0  0  0  0
    7.0749   -0.6608    0.0618 H   0  0  0  0  0  0  0  0  0  0  0  0
    6.8031   -2.4444   -1.0785 C   0  0  1  0  0  0  0  0  0  0  0  0
    7.4148   -2.8233   -0.2506 H   0  0  0  0  0  0  0  0  0  0  0  0
    5.0974   -3.0296   -0.8398 S   0  0  0  0  0  0  0  0  0  0  0  0
    7.3566   -3.0119   -2.2672 O   0  0  0  0  0  0  0  0  0  0  0  0
    8.4072   -2.2633   -2.8835 C   0  0  1  0  0  0  0  0  0  0  0  0
    8.6189   -2.7704   -3.8347 H   0  0  0  0  0  0  0  0  0  0  0  0
    7.8857   -0.8594   -3.2251 C   0  0  2  0  0  0  0  0  0  0  0  0
    8.6257   -0.3057   -3.8126 H   0  0  0  0  0  0  0  0  0  0  0  0
    7.5178   -0.0827   -1.9560 C   0  0  2  0  0  0  0  0  0  0  0  0
    6.9253    0.7883   -2.2573 H   0  0  0  0  0  0  0  0  0  0  0  0
    8.6696    0.5017   -1.3221 O   0  0  0  0  0  0  0  0  0  0  0  0
    6.7065   -0.9752   -4.0431 O   0  0  0  0  0  0  0  0  0  0  0  0
    9.7104   -2.3076   -2.0658 C   0  0  0  0  0  0  0  0  0  0  0  0
   10.6805   -1.3959   -2.5591 O   0  0  0  0  0  0  0  0  0  0  0  0
    0.6255    0.8249    0.3600 H   0  0  0  0  0  0  0  0  0  0  0  0
    0.6208   -0.9406    0.4599 H   0  0  0  0  0  0  0  0  0  0  0  0
    0.6034   -0.1411   -1.1231 H   0  0  0  0  0  0  0  0  0  0  0  0
    2.8801    0.0226    0.9177 H   0  0  0  0  0  0  0  0  0  0  0  0
    2.8667    0.8234   -0.6602 H   0  0  0  0  0  0  0  0  0  0  0  0
    2.5146   -2.0679   -0.8574 H   0  0  0  0  0  0  0  0  0  0  0  0
    9.2848   -0.1787   -1.0079 H   0  0  0  0  0  0  0  0  0  0  0  0
    6.9154   -1.5205   -4.8198 H   0  0  0  0  0  0  0  0  0  0  0  0
   10.1450   -3.3118   -2.0512 H   0  0  0  0  0  0  0  0  0  0  0  0
    9.5312   -2.0723   -1.0134 H   0  0  0  0  0  0  0  0  0  0  0  0
   10.9782   -1.7060   -3.4339 H   0  0  0  0  0  0  0  0  0  0  0  0
  1  2  1  0  0  0  0
  1 22  1  0  0  0  0
  1 23  1  0  0  0  0
  1 24  1  0  0  0  0
  2  3  1  0  0  0  0
  2 25  1  0  0  0  0
  2 26  1  0  0  0  0
  3  4  1  0  0  0  0
  3 27  1  0  0  0  0
  4  5  2  0  0  0  0
  4 10  1  0  0  0  0
  5  6  1  0  0  0  0
  6  7  1  1  0  0  0
  6  8  1  0  0  0  0
  6 16  1  0  0  0  0
  8  9  1  1  0  0  0
  8 10  1  0  0  0  0
  8 11  1  0  0  0  0
 11 12  1  0  0  0  0
 12 13  1  6  0  0  0
 12 14  1  0  0  0  0
 12 20  1  0  0  0  0
 14 15  1  6  0  0  0
 14 16  1  0  0  0  0
 14 19  1  0  0  0  0
 16 18  1  0  0  0  0
 16 17  1  6  0  0  0
 18 28  1  0  0  0  0
 19 29  1  0  0  0  0
 20 21  1  0  0  0  0
 20 30  1  0  0  0  0
 20 31  1  0  0  0  0
 21 32  1  0  0  0  0
M  END
$$$$
