NI9
 OpenBabel04121316163D

 29 29  0  0  0  0  0  0  0  0999 V2000
    0.8962    0.2192    0.0539 F   0  0  0  0  0  0  0  0  0  0  0  0
    2.2396    0.2103   -0.0370 C   0  0  0  0  0  0  0  0  0  0  0  0
    2.9722    1.3490   -0.1037 C   0  0  0  0  0  0  0  0  0  0  0  0
    4.3662    1.2400   -0.1903 C   0  0  0  0  0  0  0  0  0  0  0  0
    4.9681   -0.0183   -0.3084 C   0  0  0  0  0  0  0  0  0  0  0  0
    4.2127   -1.1379   -0.2520 N   0  3  0  0  0  0  0  0  0  0  0  0
    2.8664   -0.9927   -0.0557 C   0  0  0  0  0  0  0  0  0  0  0  0
    4.8930   -2.4642   -0.4779 C   0  0  0  0  0  0  0  0  0  0  0  0
    3.9750   -3.6656   -0.3651 C   0  0  0  0  0  0  0  0  0  0  0  0
    3.2693   -3.6580    1.3233 P   0  0  0  0  0  0  0  0  0  0  0  0
    1.8422   -3.9102    0.8621 O   0  0  0  0  0  0  0  0  0  0  0  0
    4.0453   -5.0421    1.6920 O   0  0  0  0  0  0  0  0  0  0  0  0
    2.6022   -3.6509    2.9195 O   0  0  0  0  0  0  0  0  0  0  0  0
    2.6310   -3.4535   -1.5889 P   0  0  0  0  0  0  0  0  0  0  0  0
    3.6162   -3.6216   -2.7438 O   0  0  0  0  0  0  0  0  0  0  0  0
    1.9946   -4.9204   -1.2346 O   0  0  0  0  0  0  0  0  0  0  0  0
    1.3605   -3.2529   -2.7458 O   0  0  0  0  0  0  0  0  0  0  0  0
    4.6887   -4.9172   -0.5912 O   0  0  0  0  0  0  0  0  0  0  0  0
    2.4654    2.3070   -0.0799 H   0  0  0  0  0  0  0  0  0  0  0  0
    4.9715    2.1377   -0.1832 H   0  0  0  0  0  0  0  0  0  0  0  0
    6.0439   -0.1333   -0.4529 H   0  0  0  0  0  0  0  0  0  0  0  0
    2.2032   -1.8240    0.0817 H   0  0  0  0  0  0  0  0  0  0  0  0
    5.7073   -2.5391    0.2551 H   0  0  0  0  0  0  0  0  0  0  0  0
    5.3610   -2.4161   -1.4699 H   0  0  0  0  0  0  0  0  0  0  0  0
    3.9195   -5.7726    1.0405 H   0  0  0  0  0  0  0  0  0  0  0  0
    1.7900   -3.1151    3.0002 H   0  0  0  0  0  0  0  0  0  0  0  0
    1.4455   -4.8547   -0.4034 H   0  0  0  0  0  0  0  0  0  0  0  0
    1.7665   -3.2364   -3.6393 H   0  0  0  0  0  0  0  0  0  0  0  0
    5.5536   -4.9179   -0.1424 H   0  0  0  0  0  0  0  0  0  0  0  0
  1  2  1  0  0  0  0
  2  3  2  0  0  0  0
  2  7  1  0  0  0  0
  3  4  1  0  0  0  0
  3 19  1  0  0  0  0
  4  5  2  0  0  0  0
  4 20  1  0  0  0  0
  5  6  1  0  0  0  0
  5 21  1  0  0  0  0
  6  7  2  0  0  0  0
  6  8  1  0  0  0  0
  7 22  1  0  0  0  0
  8  9  1  0  0  0  0
  8 23  1  0  0  0  0
  8 24  1  0  0  0  0
  9 10  1  0  0  0  0
  9 14  1  0  0  0  0
  9 18  1  0  0  0  0
 10 11  2  0  0  0  0
 10 12  1  0  0  0  0
 10 13  1  0  0  0  0
 12 25  1  0  0  0  0
 13 26  1  0  0  0  0
 14 15  2  0  0  0  0
 14 16  1  0  0  0  0
 14 17  1  0  0  0  0
 16 27  1  0  0  0  0
 17 28  1  0  0  0  0
 18 29  1  0  0  0  0
M  CHG  1   6   1
M  END
$$$$
