NIA
 OpenBabel04121316163D

 35 36  0  0  1  0  0  0  0  0999 V2000
    2.9434    0.1981   -1.4827 O   0  0  0  0  0  0  0  0  0  0  0  0
    2.4409    0.0602   -0.1406 C   0  0  2  0  0  0  0  0  0  0  0  0
    1.3511    0.0833   -0.2087 H   0  0  0  0  0  0  0  0  0  0  0  0
    2.9668    1.1883    0.7255 C   0  0  2  0  0  0  0  0  0  0  0  0
    2.3351    1.2656    1.6171 H   0  0  0  0  0  0  0  0  0  0  0  0
    3.0254    2.4535    0.0879 O   0  0  0  0  0  0  0  0  0  0  0  0
    4.3465    0.6783    1.0654 C   0  0  2  0  0  0  0  0  0  0  0  0
    5.0534    0.8149    0.2366 H   0  0  0  0  0  0  0  0  0  0  0  0
    4.2234   -0.7471    1.2405 O   0  0  0  0  0  0  0  0  0  0  0  0
    3.0116   -1.1880    0.5650 C   0  0  1  0  0  0  0  0  0  0  0  0
    3.3045   -1.9681   -0.1479 H   0  0  0  0  0  0  0  0  0  0  0  0
    2.0956   -1.8195    1.5121 N   0  0  0  0  0  0  0  0  0  0  0  0
    0.8119   -2.2029    1.1906 C   0  0  0  0  0  0  0  0  0  0  0  0
    0.1757   -2.7243    2.2156 N   0  0  0  0  0  0  0  0  0  0  0  0
    1.1045   -2.7284    3.2384 C   0  0  0  0  0  0  0  0  0  0  0  0
    2.3182   -2.2130    2.8136 C   0  0  0  0  0  0  0  0  0  0  0  0
    3.5076   -2.0828    3.4328 N   0  0  0  0  0  0  0  0  0  0  0  0
    0.7953   -3.2462    4.5531 N   0  3  0  0  0  0  0  0  0  0  0  0
   -0.3510   -3.6824    4.7473 O   0  0  0  0  0  0  0  0  0  0  0  0
    1.7001   -3.2187    5.4010 O   0  5  0  0  0  0  0  0  0  0  0  0
    4.9487    1.3563    2.2808 C   0  0  0  0  0  0  0  0  0  0  0  0
    3.9731    1.6591    3.2871 O   0  0  0  0  0  0  0  0  0  0  0  0
    4.5966    2.4612    4.6873 P   0  0  0  0  0  0  0  0  0  0  0  0
    3.7098    1.6235    5.5984 O   0  0  0  0  0  0  0  0  0  0  0  0
    6.0232    1.6847    4.5642 O   0  0  0  0  0  0  0  0  0  0  0  0
    5.2201    3.2633    6.0876 O   0  0  0  0  0  0  0  0  0  0  0  0
    3.9003    0.0195   -1.4958 H   0  0  0  0  0  0  0  0  0  0  0  0
    3.3930    2.3202   -0.8049 H   0  0  0  0  0  0  0  0  0  0  0  0
    0.3884   -2.0675    0.2016 H   0  0  0  0  0  0  0  0  0  0  0  0
    3.5832   -2.2421    4.4412 H   0  0  0  0  0  0  0  0  0  0  0  0
    4.2832   -1.5687    3.0175 H   0  0  0  0  0  0  0  0  0  0  0  0
    5.6892    0.6547    2.6778 H   0  0  0  0  0  0  0  0  0  0  0  0
    5.4411    2.2906    1.9939 H   0  0  0  0  0  0  0  0  0  0  0  0
    5.9441    0.7901    4.9387 H   0  0  0  0  0  0  0  0  0  0  0  0
    4.4773    3.7200    6.5227 H   0  0  0  0  0  0  0  0  0  0  0  0
  1 27  1  0  0  0  0
  2  4  1  0  0  0  0
  2 10  1  0  0  0  0
  2  3  1  1  0  0  0
  2  1  1  0  0  0  0
  4  7  1  0  0  0  0
  4  6  1  0  0  0  0
  4  5  1  1  0  0  0
  6 28  1  0  0  0  0
  7  9  1  0  0  0  0
  7 21  1  0  0  0  0
  7  8  1  6  0  0  0
  9 10  1  0  0  0  0
 10 12  1  0  0  0  0
 10 11  1  6  0  0  0
 12 13  1  0  0  0  0
 12 16  1  0  0  0  0
 13 14  2  0  0  0  0
 13 29  1  0  0  0  0
 14 15  1  0  0  0  0
 15 16  2  0  0  0  0
 15 18  1  0  0  0  0
 16 17  1  0  0  0  0
 17 30  1  0  0  0  0
 17 31  1  0  0  0  0
 18 19  2  0  0  0  0
 18 20  1  0  0  0  0
 21 22  1  0  0  0  0
 21 32  1  0  0  0  0
 21 33  1  0  0  0  0
 22 23  1  0  0  0  0
 23 24  2  0  0  0  0
 23 25  1  0  0  0  0
 23 26  1  0  0  0  0
 25 34  1  0  0  0  0
 26 35  1  0  0  0  0
M  CHG  2  18   1  20  -1
M  END
$$$$
