NII
 OpenBabel04121316163D

 84 87  0  0  0  0  0  0  0  0999 V2000
    0.9455   -0.0751   -0.0533 O   0  0  0  0  0  0  0  0  0  0  0  0
    2.3651   -0.0694   -0.0708 C   0  0  0  0  0  0  0  0  0  0  0  0
    2.8840   -0.3394    1.3301 C   0  0  0  0  0  0  0  0  0  0  0  0
    4.4072   -0.4066    1.3291 C   0  0  0  0  0  0  0  0  0  0  0  0
    4.8756   -0.8458    2.6482 N   0  0  0  0  0  0  0  0  0  0  0  0
    6.2485   -0.6812    2.8928 C   0  0  0  0  0  0  0  0  0  0  0  0
    6.9345   -1.8544    3.0535 C   0  0  0  0  0  0  0  0  0  0  0  0
    8.3053   -1.8495    3.3141 C   0  0  0  0  0  0  0  0  0  0  0  0
    8.9336   -3.1407    3.4374 C   0  0  0  0  0  0  0  0  0  0  0  0
    8.1737   -4.0951    3.2829 O   0  0  0  0  0  0  0  0  0  0  0  0
   10.2966   -3.1671    3.6976 N   0  0  0  0  0  0  0  0  0  0  0  0
   10.9955   -4.4379    3.8380 C   0  0  0  0  0  0  0  0  0  0  0  0
   10.1070   -5.6434    3.6722 C   0  0  0  0  0  0  0  0  0  0  0  0
   10.8198   -6.9595    3.7716 C   0  0  0  0  0  0  0  0  0  0  0  0
    9.8518   -8.0513    3.5855 N   0  0  0  0  0  0  0  0  0  0  0  0
    9.1938   -8.0027    2.2726 C   0  0  0  0  0  0  0  0  0  0  0  0
   10.5472   -9.3209    3.7466 C   0  0  0  0  0  0  0  0  0  0  0  0
   11.1058   -2.0353    3.8264 C   0  0  0  0  0  0  0  0  0  0  0  0
   12.3158   -2.1115    4.0352 O   0  0  0  0  0  0  0  0  0  0  0  0
   10.4458   -0.7095    3.6974 C   0  0  0  0  0  0  0  0  0  0  0  0
    9.0582   -0.6888    3.4412 C   0  0  0  0  0  0  0  0  0  0  0  0
    8.3775    0.5228    3.3091 C   0  0  0  0  0  0  0  0  0  0  0  0
    6.9883    0.5107    3.0509 C   0  0  0  0  0  0  0  0  0  0  0  0
    6.3171    1.7978    3.0093 C   0  0  0  0  0  0  0  0  0  0  0  0
    5.0854    1.7445    2.9899 O   0  0  0  0  0  0  0  0  0  0  0  0
    7.0802    2.9635    3.0412 N   0  0  0  0  0  0  0  0  0  0  0  0
    6.4414    4.2707    2.9178 C   0  0  0  0  0  0  0  0  0  0  0  0
    4.9595    4.1957    2.6471 C   0  0  0  0  0  0  0  0  0  0  0  0
    4.2606    5.5157    2.5399 C   0  0  0  0  0  0  0  0  0  0  0  0
    2.8274    5.2855    2.2922 N   0  0  0  0  0  0  0  0  0  0  0  0
    2.1773    4.5277    3.3730 C   0  0  0  0  0  0  0  0  0  0  0  0
    2.1769    6.5798    2.1373 C   0  0  0  0  0  0  0  0  0  0  0  0
    8.4440    3.0011    3.3086 C   0  0  0  0  0  0  0  0  0  0  0  0
    9.0938    4.0334    3.4403 O   0  0  0  0  0  0  0  0  0  0  0  0
    9.1121    1.7004    3.4464 C   0  0  0  0  0  0  0  0  0  0  0  0
   10.4858    1.6824    3.6985 C   0  0  0  0  0  0  0  0  0  0  0  0
   11.1865    0.4848    3.8279 C   0  0  0  0  0  0  0  0  0  0  0  0
   12.5459    0.4901    4.0885 N   0  0  0  0  0  0  0  0  0  0  0  0
   13.3330    1.6981    4.2142 C   0  0  0  0  0  0  0  0  0  0  0  0
   14.7911    1.3737    4.4826 C   0  0  0  0  0  0  0  0  0  0  0  0
   15.5842    2.6634    4.6271 C   0  0  0  0  0  0  0  0  0  0  0  0
   16.9516    2.3720    4.8678 O   0  0  0  0  0  0  0  0  0  0  0  0
    0.6491    0.0998   -0.9626 H   0  0  0  0  0  0  0  0  0  0  0  0
    2.7090    0.9043   -0.4349 H   0  0  0  0  0  0  0  0  0  0  0  0
    2.7060   -0.8473   -0.7613 H   0  0  0  0  0  0  0  0  0  0  0  0
    2.4617   -1.2780    1.7094 H   0  0  0  0  0  0  0  0  0  0  0  0
    2.5263    0.4416    2.0155 H   0  0  0  0  0  0  0  0  0  0  0  0
    4.8116    0.5626    1.0138 H   0  0  0  0  0  0  0  0  0  0  0  0
    4.7464   -1.1369    0.5873 H   0  0  0  0  0  0  0  0  0  0  0  0
    4.3238   -0.4146    3.3931 H   0  0  0  0  0  0  0  0  0  0  0  0
    6.3755   -2.7873    2.9695 H   0  0  0  0  0  0  0  0  0  0  0  0
   11.4802   -4.4471    4.8201 H   0  0  0  0  0  0  0  0  0  0  0  0
   11.7889   -4.4572    3.0797 H   0  0  0  0  0  0  0  0  0  0  0  0
    9.6788   -5.5606    2.6686 H   0  0  0  0  0  0  0  0  0  0  0  0
    9.3110   -5.6284    4.4295 H   0  0  0  0  0  0  0  0  0  0  0  0
   11.2712   -7.0213    4.7693 H   0  0  0  0  0  0  0  0  0  0  0  0
   11.6232   -7.0020    3.0283 H   0  0  0  0  0  0  0  0  0  0  0  0
    8.5629   -7.1147    2.1515 H   0  0  0  0  0  0  0  0  0  0  0  0
    8.5068   -8.8452    2.1495 H   0  0  0  0  0  0  0  0  0  0  0  0
    9.9255   -8.0176    1.4573 H   0  0  0  0  0  0  0  0  0  0  0  0
   10.9912   -9.3838    4.7457 H   0  0  0  0  0  0  0  0  0  0  0  0
   11.3426   -9.4321    3.0024 H   0  0  0  0  0  0  0  0  0  0  0  0
    9.8483  -10.1559    3.6496 H   0  0  0  0  0  0  0  0  0  0  0  0
    6.9505    4.8151    2.1147 H   0  0  0  0  0  0  0  0  0  0  0  0
    6.6225    4.8175    3.8518 H   0  0  0  0  0  0  0  0  0  0  0  0
    4.5297    3.6860    3.5130 H   0  0  0  0  0  0  0  0  0  0  0  0
    4.7746    3.6233    1.7265 H   0  0  0  0  0  0  0  0  0  0  0  0
    4.7070    6.0636    1.7024 H   0  0  0  0  0  0  0  0  0  0  0  0
    4.4228    6.0906    3.4581 H   0  0  0  0  0  0  0  0  0  0  0  0
    2.5533    3.5009    3.4525 H   0  0  0  0  0  0  0  0  0  0  0  0
    1.1064    4.4121    3.1791 H   0  0  0  0  0  0  0  0  0  0  0  0
    2.3106    5.0184    4.3436 H   0  0  0  0  0  0  0  0  0  0  0  0
    2.6209    7.1242    1.2973 H   0  0  0  0  0  0  0  0  0  0  0  0
    2.2844    7.1856    3.0432 H   0  0  0  0  0  0  0  0  0  0  0  0
    1.1140    6.4523    1.9165 H   0  0  0  0  0  0  0  0  0  0  0  0
   11.0047    2.6339    3.7899 H   0  0  0  0  0  0  0  0  0  0  0  0
   13.0106   -0.4232    4.1498 H   0  0  0  0  0  0  0  0  0  0  0  0
   12.9428    2.3014    5.0430 H   0  0  0  0  0  0  0  0  0  0  0  0
   13.2591    2.2886    3.2928 H   0  0  0  0  0  0  0  0  0  0  0  0
   15.2083    0.7662    3.6699 H   0  0  0  0  0  0  0  0  0  0  0  0
   14.8902    0.7674    5.3914 H   0  0  0  0  0  0  0  0  0  0  0  0
   15.2049    3.2709    5.4559 H   0  0  0  0  0  0  0  0  0  0  0  0
   15.5200    3.2617    3.7122 H   0  0  0  0  0  0  0  0  0  0  0  0
   17.0016    1.8531    5.6888 H   0  0  0  0  0  0  0  0  0  0  0  0
  1  2  1  0  0  0  0
  1 43  1  0  0  0  0
  2  3  1  0  0  0  0
  2 44  1  0  0  0  0
  2 45  1  0  0  0  0
  3  4  1  0  0  0  0
  3 46  1  0  0  0  0
  3 47  1  0  0  0  0
  4  5  1  0  0  0  0
  4 48  1  0  0  0  0
  4 49  1  0  0  0  0
  5  6  1  0  0  0  0
  5 50  1  0  0  0  0
  6  7  2  0  0  0  0
  6 23  1  0  0  0  0
  7  8  1  0  0  0  0
  7 51  1  0  0  0  0
  8  9  1  0  0  0  0
  8 21  2  0  0  0  0
  9 10  2  0  0  0  0
  9 11  1  0  0  0  0
 11 12  1  0  0  0  0
 11 18  1  0  0  0  0
 12 13  1  0  0  0  0
 12 52  1  0  0  0  0
 12 53  1  0  0  0  0
 13 14  1  0  0  0  0
 13 54  1  0  0  0  0
 13 55  1  0  0  0  0
 14 15  1  0  0  0  0
 14 56  1  0  0  0  0
 14 57  1  0  0  0  0
 15 16  1  0  0  0  0
 15 17  1  0  0  0  0
 16 58  1  0  0  0  0
 16 59  1  0  0  0  0
 16 60  1  0  0  0  0
 17 61  1  0  0  0  0
 17 62  1  0  0  0  0
 17 63  1  0  0  0  0
 18 19  2  0  0  0  0
 18 20  1  0  0  0  0
 20 21  1  0  0  0  0
 20 37  2  0  0  0  0
 21 22  1  0  0  0  0
 22 23  2  0  0  0  0
 22 35  1  0  0  0  0
 23 24  1  0  0  0  0
 24 25  2  0  0  0  0
 24 26  1  0  0  0  0
 26 27  1  0  0  0  0
 26 33  1  0  0  0  0
 27 28  1  0  0  0  0
 27 64  1  0  0  0  0
 27 65  1  0  0  0  0
 28 29  1  0  0  0  0
 28 66  1  0  0  0  0
 28 67  1  0  0  0  0
 29 30  1  0  0  0  0
 29 68  1  0  0  0  0
 29 69  1  0  0  0  0
 30 31  1  0  0  0  0
 30 32  1  0  0  0  0
 31 70  1  0  0  0  0
 31 71  1  0  0  0  0
 31 72  1  0  0  0  0
 32 73  1  0  0  0  0
 32 74  1  0  0  0  0
 32 75  1  0  0  0  0
 33 34  2  0  0  0  0
 33 35  1  0  0  0  0
 35 36  2  0  0  0  0
 36 37  1  0  0  0  0
 36 76  1  0  0  0  0
 37 38  1  0  0  0  0
 38 39  1  0  0  0  0
 38 77  1  0  0  0  0
 39 40  1  0  0  0  0
 39 78  1  0  0  0  0
 39 79  1  0  0  0  0
 40 41  1  0  0  0  0
 40 80  1  0  0  0  0
 40 81  1  0  0  0  0
 41 42  1  0  0  0  0
 41 82  1  0  0  0  0
 41 83  1  0  0  0  0
 42 84  1  0  0  0  0
M  END
$$$$
