NIT
 OpenBabel04121316163D

 16 16  0  0  0  0  0  0  0  0999 V2000
    0.9548    0.0035    0.1419 N   0  0  0  0  0  0  0  0  0  0  0  0
    2.3308    0.0274   -0.0965 C   0  0  0  0  0  0  0  0  0  0  0  0
    3.0327    1.2369   -0.0728 C   0  0  0  0  0  0  0  0  0  0  0  0
    4.4154    1.2658   -0.2836 C   0  0  0  0  0  0  0  0  0  0  0  0
    5.1194    0.0604   -0.3760 C   0  0  0  0  0  0  0  0  0  0  0  0
    4.4528   -1.1589   -0.2287 C   0  0  0  0  0  0  0  0  0  0  0  0
    3.0579   -1.1677   -0.1296 C   0  0  0  0  0  0  0  0  0  0  0  0
    6.5562    0.0769   -0.6731 N   0  3  0  0  0  0  0  0  0  0  0  0
    7.0936    1.1733   -0.8685 O   0  0  0  0  0  0  0  0  0  0  0  0
    7.1427   -1.0164   -0.7395 O   0  5  0  0  0  0  0  0  0  0  0  0
    0.4582    0.8563   -0.0983 H   0  0  0  0  0  0  0  0  0  0  0  0
    0.4767   -0.8311   -0.1860 H   0  0  0  0  0  0  0  0  0  0  0  0
    2.5042    2.1740    0.0855 H   0  0  0  0  0  0  0  0  0  0  0  0
    4.9202    2.2252   -0.3708 H   0  0  0  0  0  0  0  0  0  0  0  0
    4.9945   -2.1021   -0.2012 H   0  0  0  0  0  0  0  0  0  0  0  0
    2.5395   -2.1226   -0.0868 H   0  0  0  0  0  0  0  0  0  0  0  0
  1  2  1  0  0  0  0
  1 11  1  0  0  0  0
  1 12  1  0  0  0  0
  2  3  2  0  0  0  0
  2  7  1  0  0  0  0
  3  4  1  0  0  0  0
  3 13  1  0  0  0  0
  4  5  2  0  0  0  0
  4 14  1  0  0  0  0
  5  6  1  0  0  0  0
  5  8  1  0  0  0  0
  6  7  2  0  0  0  0
  6 15  1  0  0  0  0
  7 16  1  0  0  0  0
  8  9  2  0  0  0  0
  8 10  1  0  0  0  0
M  CHG  2   8   1  10  -1
M  END
$$$$
