NIZ
 OpenBabel04121316163D

 17 17  0  0  0  0  0  0  0  0999 V2000
    1.0381    0.0185    0.0503 N   0  0  0  0  0  0  0  0  0  0  0  0
    2.4399    0.0249    0.1384 N   0  0  0  0  0  0  0  0  0  0  0  0
    3.1020   -1.1206    0.5718 C   0  0  0  0  0  0  0  0  0  0  0  0
    2.5392   -2.1414    0.9676 O   0  0  0  0  0  0  0  0  0  0  0  0
    4.5874   -1.0737    0.5219 C   0  0  0  0  0  0  0  0  0  0  0  0
    5.2887    0.1325    0.5378 C   0  0  0  0  0  0  0  0  0  0  0  0
    6.6591    0.0851    0.3662 C   0  0  0  0  0  0  0  0  0  0  0  0
    7.3649   -1.0621    0.3097 N   0  0  0  0  0  0  0  0  0  0  0  0
    6.6708   -2.2168    0.4070 C   0  0  0  0  0  0  0  0  0  0  0  0
    5.2919   -2.2765    0.4672 C   0  0  0  0  0  0  0  0  0  0  0  0
    0.6916    0.9415   -0.2080 H   0  0  0  0  0  0  0  0  0  0  0  0
    0.6719   -0.1892    0.9848 H   0  0  0  0  0  0  0  0  0  0  0  0
    2.9547    0.7759   -0.3136 H   0  0  0  0  0  0  0  0  0  0  0  0
    4.8043    1.0878    0.6932 H   0  0  0  0  0  0  0  0  0  0  0  0
    7.2430    0.9962    0.2700 H   0  0  0  0  0  0  0  0  0  0  0  0
    7.2739   -3.1197    0.4424 H   0  0  0  0  0  0  0  0  0  0  0  0
    4.7798   -3.2337    0.4809 H   0  0  0  0  0  0  0  0  0  0  0  0
  1  2  1  0  0  0  0
  1 11  1  0  0  0  0
  1 12  1  0  0  0  0
  2  3  1  0  0  0  0
  2 13  1  0  0  0  0
  3  4  2  0  0  0  0
  3  5  1  0  0  0  0
  5  6  2  0  0  0  0
  5 10  1  0  0  0  0
  6  7  1  0  0  0  0
  6 14  1  0  0  0  0
  7  8  2  0  0  0  0
  7 15  1  0  0  0  0
  8  9  1  0  0  0  0
  9 10  2  0  0  0  0
  9 16  1  0  0  0  0
 10 17  1  0  0  0  0
M  END
$$$$
