NJP
 OpenBabel04121316163D

 78 82  0  0  1  0  0  0  0  0999 V2000
    7.4710    0.8324   -2.8990 O   0  0  0  0  0  0  0  0  0  0  0  0
    7.1902   -0.4396   -2.5095 C   0  0  0  0  0  0  0  0  0  0  0  0
    6.3035   -0.7418   -1.4270 C   0  0  0  0  0  0  0  0  0  0  0  0
    5.8513   -2.0142   -1.2809 N   0  3  0  0  0  0  0  0  0  0  0  0
    6.0306   -2.7703   -2.4310 C   0  0  0  0  0  0  0  0  0  0  0  0
    7.1596   -2.5984   -3.3168 C   0  0  0  0  0  0  0  0  0  0  0  0
    7.7618   -1.3942   -3.3333 C   0  0  0  0  0  0  0  0  0  0  0  0
    7.7600   -3.7857   -4.0556 C   0  0  0  0  0  0  0  0  0  0  0  0
    7.1130   -4.7733   -4.1865 O   0  0  0  0  0  0  0  0  0  0  0  0
    9.0687   -3.7646   -4.5233 N   0  0  0  0  0  0  0  0  0  0  0  0
    5.0302   -2.4817    0.0818 C   0  0  2  0  0  0  0  0  0  0  0  0
    4.4129   -1.6019    0.2871 H   0  0  0  0  0  0  0  0  0  0  0  0
    5.8643   -2.7111    1.2813 O   0  0  0  0  0  0  0  0  0  0  0  0
    6.0627   -4.1440    1.6143 C   0  0  1  0  0  0  0  0  0  0  0  0
    6.0607   -4.3604    2.6907 H   0  0  0  0  0  0  0  0  0  0  0  0
    4.8559   -4.8737    0.9739 C   0  0  2  0  0  0  0  0  0  0  0  0
    5.3485   -5.7721    0.5779 H   0  0  0  0  0  0  0  0  0  0  0  0
    4.1430   -3.7481   -0.0195 C   0  0  1  0  0  0  0  0  0  0  0  0
    4.0662   -3.9497   -1.0898 H   0  0  0  0  0  0  0  0  0  0  0  0
    2.7656   -3.5190    0.2156 O   0  0  0  0  0  0  0  0  0  0  0  0
    3.9393   -5.5772    1.7842 O   0  0  0  0  0  0  0  0  0  0  0  0
    7.5640   -4.4146    1.1566 C   0  0  0  0  0  0  0  0  0  0  0  0
    7.9696   -5.7393    0.6757 O   0  0  0  0  0  0  0  0  0  0  0  0
    9.5375   -5.8075   -0.0522 P   0  0  1  0  0  0  0  0  0  0  0  0
    9.6501   -7.2840    0.2983 O   0  0  0  0  0  0  0  0  0  0  0  0
    8.8185   -5.6399   -1.6167 O   0  0  0  0  0  0  0  0  0  0  0  0
    7.1005   -5.5197   -1.4519 P   0  0  1  0  0  0  0  0  0  0  0  0
    7.4029   -4.0753   -1.4412 O   0  0  0  0  0  0  0  0  0  0  0  0
    6.9949   -6.5720   -2.6783 O   0  0  0  0  0  0  0  0  0  0  0  0
    8.1842   -7.2415   -3.1708 C   0  0  0  0  0  0  0  0  0  0  0  0
    7.9197   -8.1339   -4.3474 C   0  0  1  0  0  0  0  0  0  0  0  0
    8.2204   -7.6165   -5.2689 H   0  0  0  0  0  0  0  0  0  0  0  0
    8.7313   -9.2981   -4.2353 O   0  0  0  0  0  0  0  0  0  0  0  0
    8.0945  -10.3051   -5.0411 C   0  0  2  0  0  0  0  0  0  0  0  0
    8.3550  -10.1397   -6.0953 H   0  0  0  0  0  0  0  0  0  0  0  0
    6.5981  -10.0489   -4.8269 C   0  0  1  0  0  0  0  0  0  0  0  0
    6.2970  -10.6750   -3.9867 H   0  0  0  0  0  0  0  0  0  0  0  0
    6.4901   -8.5952   -4.4073 C   0  0  2  0  0  0  0  0  0  0  0  0
    5.9893   -8.5568   -3.4350 H   0  0  0  0  0  0  0  0  0  0  0  0
    5.7762   -7.7696   -5.3198 O   0  0  0  0  0  0  0  0  0  0  0  0
    5.8084  -10.2401   -5.9841 O   0  0  0  0  0  0  0  0  0  0  0  0
    4.2543  -10.6030   -5.9028 P   0  0  0  0  0  0  0  0  0  0  0  0
    3.7657  -11.4083   -7.0482 O   0  0  0  0  0  0  0  0  0  0  0  0
    4.0939  -11.2266   -4.4472 O   0  0  0  0  0  0  0  0  0  0  0  0
    3.4608   -9.2187   -5.7462 O   0  0  0  0  0  0  0  0  0  0  0  0
    8.7417  -11.5507   -4.6758 N   0  0  0  0  0  0  0  0  0  0  0  0
    8.3629  -12.6809   -4.0084 C   0  0  0  0  0  0  0  0  0  0  0  0
    9.3790  -13.5155   -3.8317 N   0  0  0  0  0  0  0  0  0  0  0  0
   10.4700  -12.8912   -4.4114 C   0  0  0  0  0  0  0  0  0  0  0  0
   10.0778  -11.6904   -4.9577 C   0  0  0  0  0  0  0  0  0  0  0  0
   10.8291  -10.7945   -5.6118 N   0  0  0  0  0  0  0  0  0  0  0  0
   12.1049  -11.1815   -5.6723 C   0  0  0  0  0  0  0  0  0  0  0  0
   12.6428  -12.3190   -5.1917 N   0  0  0  0  0  0  0  0  0  0  0  0
   11.8341  -13.2054   -4.5545 C   0  0  0  0  0  0  0  0  0  0  0  0
   12.4040  -14.3600   -4.0741 N   0  0  0  0  0  0  0  0  0  0  0  0
    5.3826   -5.3995   -1.2872 O   0  0  0  0  0  0  0  0  0  0  0  0
   11.1054   -5.8757   -0.7801 O   0  0  0  0  0  0  0  0  0  0  0  0
    6.8528    1.4518   -2.4847 H   0  0  0  0  0  0  0  0  0  0  0  0
    5.8593    0.0126   -0.7913 H   0  0  0  0  0  0  0  0  0  0  0  0
    5.5327   -3.7129   -2.4569 H   0  0  0  0  0  0  0  0  0  0  0  0
    8.5366   -1.1913   -4.0634 H   0  0  0  0  0  0  0  0  0  0  0  0
    9.4677   -2.9558   -4.9657 H   0  0  0  0  0  0  0  0  0  0  0  0
    9.3832   -4.6434   -4.9402 H   0  0  0  0  0  0  0  0  0  0  0  0
    2.5286   -3.7763    1.1131 H   0  0  0  0  0  0  0  0  0  0  0  0
    3.3715   -5.0022    2.2997 H   0  0  0  0  0  0  0  0  0  0  0  0
    8.3144   -4.0099    1.8422 H   0  0  0  0  0  0  0  0  0  0  0  0
    7.7025   -3.6670    0.3876 H   0  0  0  0  0  0  0  0  0  0  0  0
    8.6956   -7.8032   -2.3709 H   0  0  0  0  0  0  0  0  0  0  0  0
    8.8941   -6.4970   -3.5498 H   0  0  0  0  0  0  0  0  0  0  0  0
    4.8647   -8.1166   -5.3824 H   0  0  0  0  0  0  0  0  0  0  0  0
    4.7829  -11.8827   -4.2478 H   0  0  0  0  0  0  0  0  0  0  0  0
    2.5940   -9.3121   -6.2067 H   0  0  0  0  0  0  0  0  0  0  0  0
    7.3628  -12.8932   -3.6518 H   0  0  0  0  0  0  0  0  0  0  0  0
   12.7721  -10.4847   -6.1676 H   0  0  0  0  0  0  0  0  0  0  0  0
   13.3874  -14.5071   -4.2387 H   0  0  0  0  0  0  0  0  0  0  0  0
   11.8236  -15.0387   -3.6059 H   0  0  0  0  0  0  0  0  0  0  0  0
    5.6771   -4.6202   -0.8235 H   0  0  0  0  0  0  0  0  0  0  0  0
   11.7239   -6.2950   -0.1505 H   0  0  0  0  0  0  0  0  0  0  0  0
  1  2  1  0  0  0  0
  1 58  1  0  0  0  0
  2  3  2  0  0  0  0
  2  7  1  0  0  0  0
  3  4  1  0  0  0  0
  3 59  1  0  0  0  0
  4  5  2  0  0  0  0
  5  6  1  0  0  0  0
  5 60  1  0  0  0  0
  6  7  2  0  0  0  0
  6  8  1  0  0  0  0
  7 61  1  0  0  0  0
  8  9  2  0  0  0  0
  8 10  1  0  0  0  0
 10 62  1  0  0  0  0
 10 63  1  0  0  0  0
 11 13  1  0  0  0  0
 11 18  1  0  0  0  0
 11 12  1  1  0  0  0
 11  4  1  0  0  0  0
 13 14  1  0  0  0  0
 14 15  1  1  0  0  0
 14 16  1  0  0  0  0
 14 22  1  0  0  0  0
 16 18  1  0  0  0  0
 16 21  1  0  0  0  0
 16 17  1  6  0  0  0
 18 20  1  0  0  0  0
 18 19  1  6  0  0  0
 20 64  1  0  0  0  0
 21 65  1  0  0  0  0
 22 23  1  0  0  0  0
 22 66  1  0  0  0  0
 22 67  1  0  0  0  0
 24 23  1  1  0  0  0
 24 25  2  0  0  0  0
 24 26  1  0  0  0  0
 24 57  1  0  0  0  0
 27 26  1  1  0  0  0
 27 28  2  0  0  0  0
 27 29  1  0  0  0  0
 27 56  1  0  0  0  0
 29 30  1  0  0  0  0
 30 31  1  0  0  0  0
 30 68  1  0  0  0  0
 30 69  1  0  0  0  0
 31 32  1  6  0  0  0
 31 33  1  0  0  0  0
 31 38  1  0  0  0  0
 33 34  1  0  0  0  0
 34 36  1  0  0  0  0
 34 46  1  0  0  0  0
 34 35  1  6  0  0  0
 36 37  1  1  0  0  0
 36 38  1  0  0  0  0
 36 41  1  0  0  0  0
 38 39  1  1  0  0  0
 38 40  1  0  0  0  0
 40 70  1  0  0  0  0
 41 42  1  0  0  0  0
 42 43  2  0  0  0  0
 42 44  1  0  0  0  0
 42 45  1  0  0  0  0
 44 71  1  0  0  0  0
 45 72  1  0  0  0  0
 46 47  1  0  0  0  0
 46 50  1  0  0  0  0
 47 48  2  0  0  0  0
 47 73  1  0  0  0  0
 48 49  1  0  0  0  0
 49 50  2  0  0  0  0
 49 54  1  0  0  0  0
 50 51  1  0  0  0  0
 51 52  2  0  0  0  0
 52 53  1  0  0  0  0
 52 74  1  0  0  0  0
 53 54  2  0  0  0  0
 54 55  1  0  0  0  0
 55 75  1  0  0  0  0
 55 76  1  0  0  0  0
 56 77  1  0  0  0  0
 57 78  1  0  0  0  0
M  CHG  1   4   1
M  END
$$$$
