NKX
 OpenBabel04121316163D

 53 54  0  0  1  0  0  0  0  0999 V2000
    1.1340    5.1403    2.7694 C   0  0  0  0  0  0  0  0  0  0  0  0
   -0.1732    4.3544    2.7060 C   0  0  0  0  0  0  0  0  0  0  0  0
   -0.1674    3.0628    3.3954 N   0  0  0  0  0  0  0  0  0  0  0  0
    1.0058    2.6721    4.1692 C   0  0  1  0  0  0  0  0  0  0  0  0
    1.8691    3.3054    3.9424 H   0  0  0  0  0  0  0  0  0  0  0  0
    0.7401    2.9140    5.6421 C   0  0  0  0  0  0  0  0  0  0  0  0
    0.8165    1.7886    6.6729 C   0  0  2  0  0  0  0  0  0  0  0  0
   -0.1968    1.6793    7.0854 H   0  0  0  0  0  0  0  0  0  0  0  0
    1.8391    2.2072    7.6996 C   0  0  0  0  0  0  0  0  0  0  0  0
    1.3495    0.1371    6.2485 S   0  0  0  0  0  0  0  0  0  0  0  0
    2.7074   -0.1018    6.6743 O   0  0  0  0  0  0  0  0  0  0  0  0
    0.2999   -0.7838    6.6393 O   0  0  0  0  0  0  0  0  0  0  0  0
    1.5141    0.2375    4.5277 C   0  0  0  0  0  0  0  0  0  0  0  0
    1.4470    1.3342    3.7042 C   0  0  0  0  0  0  0  0  0  0  0  0
    1.8778    1.0069    2.3793 C   0  0  0  0  0  0  0  0  0  0  0  0
    2.1774   -0.3375    2.2819 C   0  0  0  0  0  0  0  0  0  0  0  0
    2.1112   -1.1428    3.7752 S   0  0  0  0  0  0  0  0  0  0  0  0
    2.6461   -1.3873    0.9585 S   0  0  0  0  0  0  0  0  0  0  0  0
    3.9578   -1.8648    1.3082 O   0  0  0  0  0  0  0  0  0  0  0  0
    1.4980   -2.2271    0.7104 O   0  0  0  0  0  0  0  0  0  0  0  0
    2.8070   -0.3374   -0.3381 N   0  0  0  0  0  0  0  0  0  0  0  0
   -1.3752    2.3567    3.4819 C   0  0  0  0  0  0  0  0  0  0  0  0
   -2.4010    2.6864    2.9026 O   0  0  0  0  0  0  0  0  0  0  0  0
   -1.3128    1.2682    4.3087 O   0  0  0  0  0  0  0  0  0  0  0  0
   -2.4811    0.4028    4.3083 C   0  0  0  0  0  0  0  0  0  0  0  0
   -2.1356   -0.8929    5.0730 C   0  0  2  0  0  0  0  0  0  0  0  0
   -1.0982   -0.8628    5.3038 H   0  0  0  0  0  0  0  0  0  0  0  0
   -2.3201   -2.1097    4.3346 O   0  0  0  0  0  0  0  0  0  0  0  0
   -1.3883   -2.2589    3.2746 N   0  3  0  0  0  0  0  0  0  0  0  0
   -0.7870   -1.2467    2.9231 O   0  0  0  0  0  0  0  0  0  0  0  0
   -1.3759   -3.3874    2.7965 O   0  5  0  0  0  0  0  0  0  0  0  0
   -2.9411   -0.9977    6.3752 C   0  0  0  0  0  0  0  0  0  0  0  0
   -4.2849   -1.1722    5.9347 O   0  0  0  0  0  0  0  0  0  0  0  0
   -5.2259   -1.3079    6.9629 N   0  3  0  0  0  0  0  0  0  0  0  0
   -4.8171   -1.2172    8.1192 O   0  0  0  0  0  0  0  0  0  0  0  0
   -6.3626   -1.4717    6.5271 O   0  5  0  0  0  0  0  0  0  0  0  0
    1.0781    6.0681    2.1990 H   0  0  0  0  0  0  0  0  0  0  0  0
    1.9627    4.5532    2.3554 H   0  0  0  0  0  0  0  0  0  0  0  0
    1.3804    5.4017    3.8069 H   0  0  0  0  0  0  0  0  0  0  0  0
   -0.4296    4.1527    1.6611 H   0  0  0  0  0  0  0  0  0  0  0  0
   -0.9803    4.9604    3.1349 H   0  0  0  0  0  0  0  0  0  0  0  0
   -0.2358    3.4161    5.7616 H   0  0  0  0  0  0  0  0  0  0  0  0
    1.4131    3.7322    5.9449 H   0  0  0  0  0  0  0  0  0  0  0  0
    2.8060    2.2812    7.1783 H   0  0  0  0  0  0  0  0  0  0  0  0
    1.9200    1.4352    8.4681 H   0  0  0  0  0  0  0  0  0  0  0  0
    1.6115    3.1664    8.1513 H   0  0  0  0  0  0  0  0  0  0  0  0
    1.9276    1.7098    1.5509 H   0  0  0  0  0  0  0  0  0  0  0  0
    3.5469    0.3359   -0.1509 H   0  0  0  0  0  0  0  0  0  0  0  0
    1.9026    0.0649   -0.5783 H   0  0  0  0  0  0  0  0  0  0  0  0
   -2.7669    0.1713    3.2799 H   0  0  0  0  0  0  0  0  0  0  0  0
   -3.2824    0.9557    4.8038 H   0  0  0  0  0  0  0  0  0  0  0  0
   -2.8317   -0.0806    6.9734 H   0  0  0  0  0  0  0  0  0  0  0  0
   -2.6111   -1.8569    6.9768 H   0  0  0  0  0  0  0  0  0  0  0  0
  1  2  1  0  0  0  0
  1 37  1  0  0  0  0
  1 38  1  0  0  0  0
  1 39  1  0  0  0  0
  2  3  1  0  0  0  0
  2 40  1  0  0  0  0
  2 41  1  0  0  0  0
  3 22  1  0  0  0  0
  4  6  1  0  0  0  0
  4 14  1  0  0  0  0
  4  5  1  6  0  0  0
  4  3  1  0  0  0  0
  6  7  1  0  0  0  0
  6 42  1  0  0  0  0
  6 43  1  0  0  0  0
  7 10  1  0  0  0  0
  7  9  1  0  0  0  0
  7  8  1  1  0  0  0
  9 44  1  0  0  0  0
  9 45  1  0  0  0  0
  9 46  1  0  0  0  0
 10 11  2  0  0  0  0
 10 12  2  0  0  0  0
 10 13  1  0  0  0  0
 13 14  2  0  0  0  0
 13 17  1  0  0  0  0
 14 15  1  0  0  0  0
 15 16  2  0  0  0  0
 15 47  1  0  0  0  0
 16 17  1  0  0  0  0
 16 18  1  0  0  0  0
 18 19  2  0  0  0  0
 18 20  2  0  0  0  0
 18 21  1  0  0  0  0
 21 48  1  0  0  0  0
 21 49  1  0  0  0  0
 22 23  2  0  0  0  0
 22 24  1  0  0  0  0
 24 25  1  0  0  0  0
 25 50  1  0  0  0  0
 25 51  1  0  0  0  0
 26 28  1  0  0  0  0
 26 32  1  0  0  0  0
 26 27  1  1  0  0  0
 26 25  1  0  0  0  0
 28 29  1  0  0  0  0
 29 30  2  0  0  0  0
 29 31  1  0  0  0  0
 32 33  1  0  0  0  0
 32 52  1  0  0  0  0
 32 53  1  0  0  0  0
 33 34  1  0  0  0  0
 34 35  2  0  0  0  0
 34 36  1  0  0  0  0
M  CHG  4  29   1  31  -1  34   1  36  -1
M  END
$$$$
