NLE
 OpenBabel04121316163D

 22 21  0  0  1  0  0  0  0  0999 V2000
    0.9308    0.0104    0.0311 C   0  0  0  0  0  0  0  0  0  0  0  0
    2.4514   -0.0112    0.0016 C   0  0  0  0  0  0  0  0  0  0  0  0
    2.9697    1.3339    0.4714 C   0  0  0  0  0  0  0  0  0  0  0  0
    4.4903    1.4137    0.5257 C   0  0  0  0  0  0  0  0  0  0  0  0
    4.9831    2.7940    0.9886 C   0  0  1  0  0  0  0  0  0  0  0  0
    4.6069    3.5850    0.3298 H   0  0  0  0  0  0  0  0  0  0  0  0
    4.5694    3.1343    2.4488 C   0  0  0  0  0  0  0  0  0  0  0  0
    5.3557    3.2103    3.3898 O   0  0  0  0  0  0  0  0  0  0  0  0
    3.2497    3.3552    2.6494 O   0  0  0  0  0  0  0  0  0  0  0  0
    6.4597    2.8139    0.8921 N   0  0  0  0  0  0  0  0  0  0  0  0
    0.5297   -0.9571   -0.2763 H   0  0  0  0  0  0  0  0  0  0  0  0
    0.5409    0.7833   -0.6399 H   0  0  0  0  0  0  0  0  0  0  0  0
    0.5629    0.2298    1.0406 H   0  0  0  0  0  0  0  0  0  0  0  0
    2.8138   -0.2354   -1.0058 H   0  0  0  0  0  0  0  0  0  0  0  0
    2.8170   -0.7927    0.6775 H   0  0  0  0  0  0  0  0  0  0  0  0
    2.5625    1.4561    1.4761 H   0  0  0  0  0  0  0  0  0  0  0  0
    2.5786    2.1401   -0.1626 H   0  0  0  0  0  0  0  0  0  0  0  0
    4.8876    1.1954   -0.4758 H   0  0  0  0  0  0  0  0  0  0  0  0
    4.8688    0.6322    1.1961 H   0  0  0  0  0  0  0  0  0  0  0  0
    2.6782    3.3227    1.8616 H   0  0  0  0  0  0  0  0  0  0  0  0
    6.7812    2.5078   -0.0220 H   0  0  0  0  0  0  0  0  0  0  0  0
    6.8362    2.1548    1.5793 H   0  0  0  0  0  0  0  0  0  0  0  0
  1  2  1  0  0  0  0
  1 11  1  0  0  0  0
  1 12  1  0  0  0  0
  1 13  1  0  0  0  0
  2  3  1  0  0  0  0
  2 14  1  0  0  0  0
  2 15  1  0  0  0  0
  3  4  1  0  0  0  0
  3 16  1  0  0  0  0
  3 17  1  0  0  0  0
  4  5  1  0  0  0  0
  4 18  1  0  0  0  0
  4 19  1  0  0  0  0
  5  6  1  6  0  0  0
  5  7  1  0  0  0  0
  5 10  1  0  0  0  0
  7  8  2  0  0  0  0
  7  9  1  0  0  0  0
  9 20  1  0  0  0  0
 10 21  1  0  0  0  0
 10 22  1  0  0  0  0
M  END
$$$$
