NLP
 OpenBabel04121316163D

 24 23  0  0  1  0  0  0  0  0999 V2000
    0.8950   -0.0675   -0.0682 C   0  0  0  0  0  0  0  0  0  0  0  0
    2.4152   -0.0633   -0.0767 C   0  0  0  0  0  0  0  0  0  0  0  0
    2.9556    0.7798    1.0702 C   0  0  0  0  0  0  0  0  0  0  0  0
    4.4893    0.7964    1.0957 C   0  0  0  0  0  0  0  0  0  0  0  0
    4.9753    1.6388    2.2791 C   0  0  1  0  0  0  0  0  0  0  0  0
    4.5533    2.6459    2.1736 H   0  0  0  0  0  0  0  0  0  0  0  0
    4.3653    0.9408    3.8569 P   0  0  0  0  0  0  0  0  0  0  0  0
    5.5097   -0.0807    3.9007 O   0  0  0  0  0  0  0  0  0  0  0  0
    4.8455    2.3077    4.6338 O   0  0  0  0  0  0  0  0  0  0  0  0
    3.7886    0.2809    5.3485 O   0  0  0  0  0  0  0  0  0  0  0  0
    6.4456    1.7900    2.3335 N   0  0  0  0  0  0  0  0  0  0  0  0
    0.5123   -0.6741   -0.8935 H   0  0  0  0  0  0  0  0  0  0  0  0
    0.5011    0.9483   -0.1766 H   0  0  0  0  0  0  0  0  0  0  0  0
    0.5103   -0.4836    0.8691 H   0  0  0  0  0  0  0  0  0  0  0  0
    2.7762    0.3316   -1.0324 H   0  0  0  0  0  0  0  0  0  0  0  0
    2.7811   -1.0922    0.0158 H   0  0  0  0  0  0  0  0  0  0  0  0
    2.5644    0.3779    2.0124 H   0  0  0  0  0  0  0  0  0  0  0  0
    2.5794    1.8073    0.9854 H   0  0  0  0  0  0  0  0  0  0  0  0
    4.8677    1.2105    0.1540 H   0  0  0  0  0  0  0  0  0  0  0  0
    4.8638   -0.2303    1.1827 H   0  0  0  0  0  0  0  0  0  0  0  0
    5.7146    2.5844    4.3400 H   0  0  0  0  0  0  0  0  0  0  0  0
    3.9535   -0.6807    5.3151 H   0  0  0  0  0  0  0  0  0  0  0  0
    6.8033    1.9379    1.3885 H   0  0  0  0  0  0  0  0  0  0  0  0
    6.8054    0.8668    2.6211 H   0  0  0  0  0  0  0  0  0  0  0  0
  1  2  1  0  0  0  0
  1 12  1  0  0  0  0
  1 13  1  0  0  0  0
  1 14  1  0  0  0  0
  2  3  1  0  0  0  0
  2 15  1  0  0  0  0
  2 16  1  0  0  0  0
  3  4  1  0  0  0  0
  3 17  1  0  0  0  0
  3 18  1  0  0  0  0
  4  5  1  0  0  0  0
  4 19  1  0  0  0  0
  4 20  1  0  0  0  0
  5  6  1  6  0  0  0
  5  7  1  0  0  0  0
  5 11  1  0  0  0  0
  7  8  2  0  0  0  0
  7  9  1  0  0  0  0
  7 10  1  0  0  0  0
  9 21  1  0  0  0  0
 10 22  1  0  0  0  0
 11 23  1  0  0  0  0
 11 24  1  0  0  0  0
M  END
$$$$
