NME
 OpenBabel04121316163D

  7  6  0  0  0  0  0  0  0  0999 V2000
    1.0619   -0.0853   -0.0236 C   0  0  0  0  0  0  0  0  0  0  0  0
    2.5138   -0.0813   -0.0092 N   0  0  0  0  0  0  0  0  0  0  0  0
    0.6875   -0.3613   -1.0135 H   0  0  0  0  0  0  0  0  0  0  0  0
    0.6790    0.9064    0.2323 H   0  0  0  0  0  0  0  0  0  0  0  0
    0.6790   -0.8017    0.7085 H   0  0  0  0  0  0  0  0  0  0  0  0
    2.8579    0.5675   -0.7158 H   0  0  0  0  0  0  0  0  0  0  0  0
    2.8579   -1.0021   -0.2783 H   0  0  0  0  0  0  0  0  0  0  0  0
  1  2  1  0  0  0  0
  1  3  1  0  0  0  0
  1  4  1  0  0  0  0
  1  5  1  0  0  0  0
  2  6  1  0  0  0  0
  2  7  1  0  0  0  0
M  END
$$$$
