NMH
 OpenBabel04121316163D

 27 26  0  0  1  0  0  0  0  0999 V2000
    0.9462   -0.0463    0.0664 C   0  0  0  0  0  0  0  0  0  0  0  0
    2.4716   -0.0857    0.0861 C   0  0  1  0  0  0  0  0  0  0  0  0
    2.8382    0.6344    0.8288 H   0  0  0  0  0  0  0  0  0  0  0  0
    2.9363   -1.4035    0.4881 N   0  0  0  0  0  0  0  0  0  0  0  0
    2.6882   -1.9723    1.6987 C   0  0  0  0  0  0  0  0  0  0  0  0
    3.0954   -3.0861    2.0036 O   0  0  0  0  0  0  0  0  0  0  0  0
    3.0120    0.2828   -1.2995 C   0  0  0  0  0  0  0  0  0  0  0  0
    4.5376    0.3056   -1.3225 C   0  0  0  0  0  0  0  0  0  0  0  0
    5.0482    0.6571   -2.7106 C   0  0  0  0  0  0  0  0  0  0  0  0
    6.5712    0.6548   -2.7259 C   0  0  0  0  0  0  0  0  0  0  0  0
    7.0855    1.0061   -4.1072 C   0  0  0  0  0  0  0  0  0  0  0  0
    0.5328   -0.2824    1.0516 H   0  0  0  0  0  0  0  0  0  0  0  0
    0.5508   -0.7828   -0.6417 H   0  0  0  0  0  0  0  0  0  0  0  0
    0.5816    0.9444   -0.2206 H   0  0  0  0  0  0  0  0  0  0  0  0
    3.5054   -1.9640   -0.1360 H   0  0  0  0  0  0  0  0  0  0  0  0
    2.0783   -1.3506    2.3713 H   0  0  0  0  0  0  0  0  0  0  0  0
    2.6317    1.2696   -1.5946 H   0  0  0  0  0  0  0  0  0  0  0  0
    2.6473   -0.4354   -2.0458 H   0  0  0  0  0  0  0  0  0  0  0  0
    4.9410   -0.6732   -1.0400 H   0  0  0  0  0  0  0  0  0  0  0  0
    4.9082    1.0313   -0.5890 H   0  0  0  0  0  0  0  0  0  0  0  0
    4.6696    1.6425   -3.0072 H   0  0  0  0  0  0  0  0  0  0  0  0
    4.6687   -0.0704   -3.4392 H   0  0  0  0  0  0  0  0  0  0  0  0
    6.9473   -0.3331   -2.4337 H   0  0  0  0  0  0  0  0  0  0  0  0
    6.9526    1.3769   -1.9946 H   0  0  0  0  0  0  0  0  0  0  0  0
    6.7340    0.2792   -4.8463 H   0  0  0  0  0  0  0  0  0  0  0  0
    8.1785    1.0073   -4.1158 H   0  0  0  0  0  0  0  0  0  0  0  0
    6.7351    1.9986   -4.4075 H   0  0  0  0  0  0  0  0  0  0  0  0
  1  2  1  0  0  0  0
  1 12  1  0  0  0  0
  1 13  1  0  0  0  0
  1 14  1  0  0  0  0
  2  3  1  1  0  0  0
  2  4  1  0  0  0  0
  2  7  1  0  0  0  0
  4  5  1  0  0  0  0
  4 15  1  0  0  0  0
  5  6  2  0  0  0  0
  5 16  1  0  0  0  0
  7  8  1  0  0  0  0
  7 17  1  0  0  0  0
  7 18  1  0  0  0  0
  8  9  1  0  0  0  0
  8 19  1  0  0  0  0
  8 20  1  0  0  0  0
  9 10  1  0  0  0  0
  9 21  1  0  0  0  0
  9 22  1  0  0  0  0
 10 11  1  0  0  0  0
 10 23  1  0  0  0  0
 10 24  1  0  0  0  0
 11 25  1  0  0  0  0
 11 26  1  0  0  0  0
 11 27  1  0  0  0  0
M  END
$$$$
