NMN
 OpenBabel04121316163D

 38 39  0  0  1  0  0  0  0  0999 V2000
    2.8626    0.2084   -1.3291 O   0  0  0  0  0  0  0  0  0  0  0  0
    2.4026    0.1298    0.0232 C   0  0  2  0  0  0  0  0  0  0  0  0
    1.3214    0.2344   -0.0376 H   0  0  0  0  0  0  0  0  0  0  0  0
    2.9505    1.2393    0.8903 C   0  0  2  0  0  0  0  0  0  0  0  0
    2.2927    1.3160    1.7658 H   0  0  0  0  0  0  0  0  0  0  0  0
    3.0122    2.5018    0.2676 O   0  0  0  0  0  0  0  0  0  0  0  0
    4.3060    0.6884    1.2804 C   0  0  2  0  0  0  0  0  0  0  0  0
    5.0299    0.7723    0.4598 H   0  0  0  0  0  0  0  0  0  0  0  0
    4.0780   -0.7248    1.5147 O   0  0  0  0  0  0  0  0  0  0  0  0
    2.9198   -1.1396    0.7344 C   0  0  1  0  0  0  0  0  0  0  0  0
    3.2408   -1.9176    0.0311 H   0  0  0  0  0  0  0  0  0  0  0  0
    1.9063   -1.7893    1.6254 N   0  3  0  0  0  0  0  0  0  0  0  0
    0.5884   -1.7799    1.3089 C   0  0  0  0  0  0  0  0  0  0  0  0
   -0.3654   -2.2610    2.1895 C   0  0  0  0  0  0  0  0  0  0  0  0
    0.0373   -2.7276    3.4291 C   0  0  0  0  0  0  0  0  0  0  0  0
    1.3975   -2.8260    3.7207 C   0  0  0  0  0  0  0  0  0  0  0  0
    2.3189   -2.4216    2.7578 C   0  0  0  0  0  0  0  0  0  0  0  0
    1.8029   -3.3013    5.0592 C   0  0  0  0  0  0  0  0  0  0  0  0
    0.9440   -3.5727    5.9042 O   0  0  0  0  0  0  0  0  0  0  0  0
    3.1233   -3.4001    5.3626 N   0  0  0  0  0  0  0  0  0  0  0  0
    4.8985    1.3941    2.4953 C   0  0  0  0  0  0  0  0  0  0  0  0
    3.8585    1.7262    3.4143 O   0  0  0  0  0  0  0  0  0  0  0  0
    4.4821    2.5283    4.8145 P   0  0  0  0  0  0  0  0  0  0  0  0
    3.0729    2.9398    5.2037 O   0  0  0  0  0  0  0  0  0  0  0  0
    4.8694    1.0753    5.4268 O   0  0  0  0  0  0  0  0  0  0  0  0
    5.1056    3.3303    6.2148 O   0  0  0  0  0  0  0  0  0  0  0  0
    3.8338    0.1930   -1.3866 H   0  0  0  0  0  0  0  0  0  0  0  0
    3.3741    2.4171   -0.6318 H   0  0  0  0  0  0  0  0  0  0  0  0
    0.2763   -1.3782    0.3509 H   0  0  0  0  0  0  0  0  0  0  0  0
   -1.4188   -2.2443    1.9186 H   0  0  0  0  0  0  0  0  0  0  0  0
   -0.7134   -3.0249    4.1633 H   0  0  0  0  0  0  0  0  0  0  0  0
    3.3865   -2.5752    2.8655 H   0  0  0  0  0  0  0  0  0  0  0  0
    3.9176   -3.2190    4.7689 H   0  0  0  0  0  0  0  0  0  0  0  0
    3.3407   -3.7065    6.3078 H   0  0  0  0  0  0  0  0  0  0  0  0
    5.6311    0.7513    2.9947 H   0  0  0  0  0  0  0  0  0  0  0  0
    5.3872    2.3273    2.1959 H   0  0  0  0  0  0  0  0  0  0  0  0
    4.2391    0.4019    5.1251 H   0  0  0  0  0  0  0  0  0  0  0  0
    5.0201    4.2937    6.0993 H   0  0  0  0  0  0  0  0  0  0  0  0
  1 27  1  0  0  0  0
  2  4  1  0  0  0  0
  2 10  1  0  0  0  0
  2  3  1  1  0  0  0
  2  1  1  0  0  0  0
  4  7  1  0  0  0  0
  4  6  1  0  0  0  0
  4  5  1  1  0  0  0
  6 28  1  0  0  0  0
  7  9  1  0  0  0  0
  7 21  1  0  0  0  0
  7  8  1  6  0  0  0
  9 10  1  0  0  0  0
 10 12  1  0  0  0  0
 10 11  1  6  0  0  0
 12 13  2  0  0  0  0
 12 17  1  0  0  0  0
 13 14  1  0  0  0  0
 13 29  1  0  0  0  0
 14 15  2  0  0  0  0
 14 30  1  0  0  0  0
 15 16  1  0  0  0  0
 15 31  1  0  0  0  0
 16 17  2  0  0  0  0
 16 18  1  0  0  0  0
 17 32  1  0  0  0  0
 18 19  2  0  0  0  0
 18 20  1  0  0  0  0
 20 33  1  0  0  0  0
 20 34  1  0  0  0  0
 21 22  1  0  0  0  0
 21 35  1  0  0  0  0
 21 36  1  0  0  0  0
 22 23  1  0  0  0  0
 23 24  2  0  0  0  0
 23 25  1  0  0  0  0
 23 26  1  0  0  0  0
 25 37  1  0  0  0  0
 26 38  1  0  0  0  0
M  CHG  1  12   1
M  END
$$$$
