NMU
 OpenBabel04121316163D

 11 10  0  0  0  0  0  0  0  0999 V2000
    1.0693   -0.0247   -0.0855 C   0  0  0  0  0  0  0  0  0  0  0  0
    2.5087   -0.0748   -0.0937 N   0  0  0  0  0  0  0  0  0  0  0  0
    3.1496   -1.2587   -0.2896 C   0  0  0  0  0  0  0  0  0  0  0  0
    2.5944   -2.3322   -0.4673 O   0  0  0  0  0  0  0  0  0  0  0  0
    4.4974   -1.1624   -0.2737 N   0  0  0  0  0  0  0  0  0  0  0  0
    0.7433    1.0036    0.0847 H   0  0  0  0  0  0  0  0  0  0  0  0
    0.6919   -0.6735    0.7103 H   0  0  0  0  0  0  0  0  0  0  0  0
    0.6919   -0.3826   -1.0477 H   0  0  0  0  0  0  0  0  0  0  0  0
    3.0402    0.7699    0.0460 H   0  0  0  0  0  0  0  0  0  0  0  0
    5.0049   -0.3062   -0.1320 H   0  0  0  0  0  0  0  0  0  0  0  0
    5.0100   -2.0222   -0.4160 H   0  0  0  0  0  0  0  0  0  0  0  0
  1  2  1  0  0  0  0
  1  6  1  0  0  0  0
  1  7  1  0  0  0  0
  1  8  1  0  0  0  0
  2  3  1  0  0  0  0
  2  9  1  0  0  0  0
  3  4  2  0  0  0  0
  3  5  1  0  0  0  0
  5 10  1  0  0  0  0
  5 11  1  0  0  0  0
M  END
$$$$
