NNB
 OpenBabel04121316163D

 37 39  0  0  0  0  0  0  0  0999 V2000
    0.9543   -0.1362    0.2716 S   0  0  0  0  0  0  0  0  0  0  0  0
    2.6062   -0.1106    0.0302 C   0  0  0  0  0  0  0  0  0  0  0  0
    3.2717    0.1452   -1.1520 N   0  0  0  0  0  0  0  0  0  0  0  0
    2.6289    0.4178   -2.3729 C   0  0  0  0  0  0  0  0  0  0  0  0
    2.1113   -0.6375   -3.1256 C   0  0  0  0  0  0  0  0  0  0  0  0
    1.6286   -0.3974   -4.4120 C   0  0  0  0  0  0  0  0  0  0  0  0
    1.5448    0.9118   -4.8817 C   0  0  0  0  0  0  0  0  0  0  0  0
    1.9301    1.9804   -4.0722 C   0  0  0  0  0  0  0  0  0  0  0  0
    2.5484    1.7284   -2.8448 C   0  0  0  0  0  0  0  0  0  0  0  0
    0.9499    1.2357   -6.6462 Br  0  0  0  0  0  0  0  0  0  0  0  0
    3.3527   -0.3445    1.1504 O   0  0  0  0  0  0  0  0  0  0  0  0
    4.8003   -0.3656    1.1298 C   0  0  0  0  0  0  0  0  0  0  0  0
    5.3755   -0.7351    2.5113 C   0  0  0  0  0  0  0  0  0  0  0  0
    6.8483   -0.6759    2.5509 N   0  0  0  0  0  0  0  0  0  0  0  0
    7.4750    0.5232    2.6962 C   0  0  0  0  0  0  0  0  0  0  0  0
    6.9815    1.6368    2.7989 O   0  0  0  0  0  0  0  0  0  0  0  0
    8.9035    0.2863    2.6755 C   0  0  0  0  0  0  0  0  0  0  0  0
    9.1256   -1.0655    2.5049 C   0  0  0  0  0  0  0  0  0  0  0  0
    7.7737   -1.6936    2.4185 C   0  0  0  0  0  0  0  0  0  0  0  0
    7.5772   -2.8797    2.2453 O   0  0  0  0  0  0  0  0  0  0  0  0
   10.4360   -1.5337    2.4401 C   0  0  0  0  0  0  0  0  0  0  0  0
   11.4886   -0.5939    2.5534 C   0  0  0  0  0  0  0  0  0  0  0  0
   11.2251    0.7770    2.7270 C   0  0  0  0  0  0  0  0  0  0  0  0
    9.9119    1.2266    2.7876 C   0  0  0  0  0  0  0  0  0  0  0  0
    4.2670    0.3167   -1.1402 H   0  0  0  0  0  0  0  0  0  0  0  0
    2.1020   -1.6481   -2.7269 H   0  0  0  0  0  0  0  0  0  0  0  0
    1.3210   -1.2333   -5.0339 H   0  0  0  0  0  0  0  0  0  0  0  0
    1.7590    3.0053   -4.3911 H   0  0  0  0  0  0  0  0  0  0  0  0
    2.9091    2.5594   -2.2450 H   0  0  0  0  0  0  0  0  0  0  0  0
    5.1420    0.6347    0.8418 H   0  0  0  0  0  0  0  0  0  0  0  0
    5.1300   -1.1013    0.3920 H   0  0  0  0  0  0  0  0  0  0  0  0
    5.0093   -1.7141    2.8364 H   0  0  0  0  0  0  0  0  0  0  0  0
    4.9922   -0.0008    3.2357 H   0  0  0  0  0  0  0  0  0  0  0  0
   10.6767   -2.5851    2.3074 H   0  0  0  0  0  0  0  0  0  0  0  0
   12.5304   -0.9159    2.5084 H   0  0  0  0  0  0  0  0  0  0  0  0
   12.0406    1.4940    2.8159 H   0  0  0  0  0  0  0  0  0  0  0  0
    9.6700    2.2756    2.9180 H   0  0  0  0  0  0  0  0  0  0  0  0
  1  2  2  0  0  0  0
  2  3  1  0  0  0  0
  2 11  1  0  0  0  0
  3  4  1  0  0  0  0
  3 25  1  0  0  0  0
  4  5  2  0  0  0  0
  4  9  1  0  0  0  0
  5  6  1  0  0  0  0
  5 26  1  0  0  0  0
  6  7  2  0  0  0  0
  6 27  1  0  0  0  0
  7  8  1  0  0  0  0
  7 10  1  0  0  0  0
  8  9  2  0  0  0  0
  8 28  1  0  0  0  0
  9 29  1  0  0  0  0
 11 12  1  0  0  0  0
 12 13  1  0  0  0  0
 12 30  1  0  0  0  0
 12 31  1  0  0  0  0
 13 14  1  0  0  0  0
 13 32  1  0  0  0  0
 13 33  1  0  0  0  0
 14 15  1  0  0  0  0
 14 19  1  0  0  0  0
 15 16  2  0  0  0  0
 15 17  1  0  0  0  0
 17 18  2  0  0  0  0
 17 24  1  0  0  0  0
 18 19  1  0  0  0  0
 18 21  1  0  0  0  0
 19 20  2  0  0  0  0
 21 22  2  0  0  0  0
 21 34  1  0  0  0  0
 22 23  1  0  0  0  0
 22 35  1  0  0  0  0
 23 24  2  0  0  0  0
 23 36  1  0  0  0  0
 24 37  1  0  0  0  0
M  END
$$$$
