NNF
 OpenBabel04121316163D

 38 40  0  0  0  0  0  0  0  0999 V2000
    1.0309   -0.0461    0.1131 F   0  0  0  0  0  0  0  0  0  0  0  0
    2.3667   -0.0257    0.0351 C   0  0  0  0  0  0  0  0  0  0  0  0
    3.0404    1.1806    0.0295 C   0  0  0  0  0  0  0  0  0  0  0  0
    4.4269    1.1997   -0.1783 C   0  0  0  0  0  0  0  0  0  0  0  0
    5.1917    0.0249   -0.2838 C   0  0  0  0  0  0  0  0  0  0  0  0
    4.4678   -1.1749   -0.1174 C   0  0  0  0  0  0  0  0  0  0  0  0
    3.0702   -1.2107   -0.0317 C   0  0  0  0  0  0  0  0  0  0  0  0
    6.5547    0.0429   -0.5244 N   0  0  0  0  0  0  0  0  0  0  0  0
    7.3430   -1.1878   -0.7374 C   0  0  0  0  0  0  0  0  0  0  0  0
    7.9597   -1.2040   -2.1480 C   0  0  0  0  0  0  0  0  0  0  0  0
    8.8074   -0.0250   -2.3512 N   0  0  0  0  0  0  0  0  0  0  0  0
    8.0409    1.2298   -2.1740 C   0  0  0  0  0  0  0  0  0  0  0  0
    7.3556    1.2721   -0.7811 C   0  0  0  0  0  0  0  0  0  0  0  0
   10.1628   -0.0300   -2.6216 C   0  0  0  0  0  0  0  0  0  0  0  0
   10.8398    1.0755   -2.7520 N   0  0  0  0  0  0  0  0  0  0  0  0
   12.1839    1.0035   -3.0374 C   0  0  0  0  0  0  0  0  0  0  0  0
   12.9187    2.3006   -3.1977 C   0  0  0  0  0  0  0  0  0  0  0  0
   12.8629   -0.1397   -3.1861 C   0  0  0  0  0  0  0  0  0  0  0  0
   12.1220   -1.3841   -3.0347 C   0  0  0  0  0  0  0  0  0  0  0  0
   12.6674   -2.4787   -3.1557 O   0  0  0  0  0  0  0  0  0  0  0  0
   10.7995   -1.2425   -2.7566 N   0  0  0  0  0  0  0  0  0  0  0  0
   10.3122   -2.1127   -2.6717 H   0  0  0  0  0  0  0  0  0  0  0  0
    2.4931    2.1061    0.1705 H   0  0  0  0  0  0  0  0  0  0  0  0
    4.8785    2.1814   -0.2536 H   0  0  0  0  0  0  0  0  0  0  0  0
    4.9599   -2.1377   -0.0441 H   0  0  0  0  0  0  0  0  0  0  0  0
    2.5421   -2.1582   -0.0068 H   0  0  0  0  0  0  0  0  0  0  0  0
    6.7790   -2.1136   -0.6308 H   0  0  0  0  0  0  0  0  0  0  0  0
    8.1365   -1.2213    0.0188 H   0  0  0  0  0  0  0  0  0  0  0  0
    7.1649   -1.2005   -2.9042 H   0  0  0  0  0  0  0  0  0  0  0  0
    8.4942   -2.1469   -2.2670 H   0  0  0  0  0  0  0  0  0  0  0  0
    7.2696    1.2774   -2.9541 H   0  0  0  0  0  0  0  0  0  0  0  0
    8.6628    2.1235   -2.2937 H   0  0  0  0  0  0  0  0  0  0  0  0
    6.7816    2.1983   -0.7172 H   0  0  0  0  0  0  0  0  0  0  0  0
    8.1269    1.3361   -0.0040 H   0  0  0  0  0  0  0  0  0  0  0  0
   12.2598    3.1620   -3.0552 H   0  0  0  0  0  0  0  0  0  0  0  0
   13.3513    2.3691   -4.2022 H   0  0  0  0  0  0  0  0  0  0  0  0
   13.7295    2.3697   -2.4642 H   0  0  0  0  0  0  0  0  0  0  0  0
   13.9171   -0.1935   -3.4144 H   0  0  0  0  0  0  0  0  0  0  0  0
  1  2  1  0  0  0  0
  2  3  2  0  0  0  0
  2  7  1  0  0  0  0
  3  4  1  0  0  0  0
  3 23  1  0  0  0  0
  4  5  2  0  0  0  0
  4 24  1  0  0  0  0
  5  6  1  0  0  0  0
  5  8  1  0  0  0  0
  6  7  2  0  0  0  0
  6 25  1  0  0  0  0
  7 26  1  0  0  0  0
  8  9  1  0  0  0  0
  8 13  1  0  0  0  0
  9 10  1  0  0  0  0
  9 27  1  0  0  0  0
  9 28  1  0  0  0  0
 10 11  1  0  0  0  0
 10 29  1  0  0  0  0
 10 30  1  0  0  0  0
 11 12  1  0  0  0  0
 11 14  1  0  0  0  0
 12 13  1  0  0  0  0
 12 31  1  0  0  0  0
 12 32  1  0  0  0  0
 13 33  1  0  0  0  0
 13 34  1  0  0  0  0
 14 15  2  0  0  0  0
 14 21  1  0  0  0  0
 15 16  1  0  0  0  0
 16 17  1  0  0  0  0
 16 18  2  0  0  0  0
 17 35  1  0  0  0  0
 17 36  1  0  0  0  0
 17 37  1  0  0  0  0
 18 19  1  0  0  0  0
 18 38  1  0  0  0  0
 19 20  2  0  0  0  0
 19 21  1  0  0  0  0
 21 22  1  0  0  0  0
M  END
$$$$
