NNG
 OpenBabel04121316163D

 37 37  0  0  1  0  0  0  0  0999 V2000
    1.0303   -0.3115    0.1288 O   0  0  0  0  0  0  0  0  0  0  0  0
    2.4466   -0.2007    0.0023 C   0  0  1  0  0  0  0  0  0  0  0  0
    2.8704   -0.0111    0.9941 H   0  0  0  0  0  0  0  0  0  0  0  0
    2.9572   -1.4517   -0.4221 O   0  0  0  0  0  0  0  0  0  0  0  0
    2.4721   -1.8413   -1.7093 C   0  0  2  0  0  0  0  0  0  0  0  0
    1.3735   -1.8766   -1.7102 H   0  0  0  0  0  0  0  0  0  0  0  0
    2.9638   -3.2847   -1.9609 C   0  0  0  0  0  0  0  0  0  0  0  0
    2.3218   -3.8351   -3.0927 O   0  0  0  0  0  0  0  0  0  0  0  0
    3.0219   -4.8174   -4.1351 P   0  0  0  0  0  0  0  0  0  0  0  0
    2.2447   -5.0271   -5.3982 O   0  0  0  0  0  0  0  0  0  0  0  0
    4.5113   -4.2894   -4.3061 O   0  0  0  0  0  0  0  0  0  0  0  0
    3.2300   -6.1840   -3.3370 O   0  0  0  0  0  0  0  0  0  0  0  0
    2.9292   -0.8024   -2.7485 C   0  0  2  0  0  0  0  0  0  0  0  0
    4.0261   -0.7684   -2.7730 H   0  0  0  0  0  0  0  0  0  0  0  0
    2.4154    0.6138   -2.3829 C   0  0  1  0  0  0  0  0  0  0  0  0
    1.3295    0.6701   -2.5149 H   0  0  0  0  0  0  0  0  0  0  0  0
    2.8056    0.9838   -0.9404 C   0  0  1  0  0  0  0  0  0  0  0  0
    3.9051    1.0596   -0.9420 H   0  0  0  0  0  0  0  0  0  0  0  0
    2.3343    2.3483   -0.5789 N   0  0  0  0  0  0  0  0  0  0  0  0
    0.8316    2.8020    0.2604 P   0  0  1  0  0  0  0  0  0  0  0  0
   -0.0199    2.1798   -0.8437 O   0  0  0  0  0  0  0  0  0  0  0  0
    1.1184    1.7535    1.4672 O   0  0  0  0  0  0  0  0  0  0  0  0
   -0.7133    3.2685    1.1233 C   0  0  0  0  0  0  0  0  0  0  0  0
    3.0005    1.5508   -3.3074 O   0  0  0  0  0  0  0  0  0  0  0  0
    2.4974   -1.1355   -4.0699 O   0  0  0  0  0  0  0  0  0  0  0  0
    0.8360   -1.0014    0.7850 H   0  0  0  0  0  0  0  0  0  0  0  0
    2.6856   -3.8964   -1.0945 H   0  0  0  0  0  0  0  0  0  0  0  0
    4.0570   -3.3102   -2.0235 H   0  0  0  0  0  0  0  0  0  0  0  0
    4.5503   -3.3165   -4.3513 H   0  0  0  0  0  0  0  0  0  0  0  0
    3.0277   -6.9314   -3.9348 H   0  0  0  0  0  0  0  0  0  0  0  0
    3.0933    2.8382   -0.1179 H   0  0  0  0  0  0  0  0  0  0  0  0
    0.9251    0.8770    1.0833 H   0  0  0  0  0  0  0  0  0  0  0  0
   -1.0802    4.2119    0.7074 H   0  0  0  0  0  0  0  0  0  0  0  0
   -0.5303    3.4251    2.1913 H   0  0  0  0  0  0  0  0  0  0  0  0
   -1.4931    2.5070    1.0160 H   0  0  0  0  0  0  0  0  0  0  0  0
    2.6823    1.2855   -4.1893 H   0  0  0  0  0  0  0  0  0  0  0  0
    1.5235   -1.2063   -4.0459 H   0  0  0  0  0  0  0  0  0  0  0  0
  1  2  1  0  0  0  0
  1 26  1  0  0  0  0
  2  3  1  1  0  0  0
  2  4  1  0  0  0  0
  2 17  1  0  0  0  0
  4  5  1  0  0  0  0
  5  6  1  1  0  0  0
  5  7  1  0  0  0  0
  5 13  1  0  0  0  0
  7  8  1  0  0  0  0
  7 27  1  0  0  0  0
  7 28  1  0  0  0  0
  8  9  1  0  0  0  0
  9 10  2  0  0  0  0
  9 11  1  0  0  0  0
  9 12  1  0  0  0  0
 11 29  1  0  0  0  0
 12 30  1  0  0  0  0
 13 15  1  0  0  0  0
 13 25  1  0  0  0  0
 13 14  1  1  0  0  0
 15 16  1  6  0  0  0
 15 17  1  0  0  0  0
 15 24  1  0  0  0  0
 17 19  1  0  0  0  0
 17 18  1  1  0  0  0
 19 31  1  0  0  0  0
 20 19  1  6  0  0  0
 20 21  2  0  0  0  0
 20 22  1  0  0  0  0
 20 23  1  0  0  0  0
 22 32  1  0  0  0  0
 23 33  1  0  0  0  0
 23 34  1  0  0  0  0
 23 35  1  0  0  0  0
 24 36  1  0  0  0  0
 25 37  1  0  0  0  0
M  END
$$$$
