NNH
 OpenBabel04121316163D

 24 23  0  0  1  0  0  0  0  0999 V2000
    1.0091   -0.0927   -0.0976 O   0  0  0  0  0  0  0  0  0  0  0  0
    2.3993   -0.0485   -0.1190 N   0  0  0  0  0  0  0  0  0  0  0  0
    3.0350   -1.2357   -0.2810 C   0  0  0  0  0  0  0  0  0  0  0  0
    2.4238   -2.3506   -0.5264 N   0  0  0  0  0  0  0  0  0  0  0  0
    4.3910   -1.1809   -0.1575 N   0  0  0  0  0  0  0  0  0  0  0  0
    5.1498   -2.3498   -0.5400 C   0  0  0  0  0  0  0  0  0  0  0  0
    6.6533   -2.1435   -0.5293 C   0  0  0  0  0  0  0  0  0  0  0  0
    7.3979   -3.4607   -0.8130 C   0  0  1  0  0  0  0  0  0  0  0  0
    7.1311   -4.2317   -0.0810 H   0  0  0  0  0  0  0  0  0  0  0  0
    7.1311   -4.0319   -2.2347 C   0  0  0  0  0  0  0  0  0  0  0  0
    7.9776   -4.0679   -3.1271 O   0  0  0  0  0  0  0  0  0  0  0  0
    5.8878   -4.5048   -2.4661 O   0  0  0  0  0  0  0  0  0  0  0  0
    8.8522   -3.2158   -0.6657 N   0  0  0  0  0  0  0  0  0  0  0  0
    0.7398    0.8255    0.0869 H   0  0  0  0  0  0  0  0  0  0  0  0
    2.8890    0.8042    0.1172 H   0  0  0  0  0  0  0  0  0  0  0  0
    1.4232   -2.1112   -0.5421 H   0  0  0  0  0  0  0  0  0  0  0  0
    4.8582   -0.2873   -0.2008 H   0  0  0  0  0  0  0  0  0  0  0  0
    4.8347   -2.6100   -1.5522 H   0  0  0  0  0  0  0  0  0  0  0  0
    4.8934   -3.1705    0.1415 H   0  0  0  0  0  0  0  0  0  0  0  0
    6.9521   -1.7501    0.4519 H   0  0  0  0  0  0  0  0  0  0  0  0
    6.9240   -1.3836   -1.2727 H   0  0  0  0  0  0  0  0  0  0  0  0
    5.2354   -4.5087   -1.7403 H   0  0  0  0  0  0  0  0  0  0  0  0
    9.0774   -2.7689    0.2182 H   0  0  0  0  0  0  0  0  0  0  0  0
    9.1574   -2.5894   -1.4158 H   0  0  0  0  0  0  0  0  0  0  0  0
  1  2  1  0  0  0  0
  1 14  1  0  0  0  0
  2  3  1  0  0  0  0
  2 15  1  0  0  0  0
  3  4  2  0  0  0  0
  3  5  1  0  0  0  0
  4 16  1  0  0  0  0
  5  6  1  0  0  0  0
  5 17  1  0  0  0  0
  6  7  1  0  0  0  0
  6 18  1  0  0  0  0
  6 19  1  0  0  0  0
  7  8  1  0  0  0  0
  7 20  1  0  0  0  0
  7 21  1  0  0  0  0
  8  9  1  1  0  0  0
  8 10  1  0  0  0  0
  8 13  1  0  0  0  0
 10 11  2  0  0  0  0
 10 12  1  0  0  0  0
 12 22  1  0  0  0  0
 13 23  1  0  0  0  0
 13 24  1  0  0  0  0
M  END
$$$$
