NNI
 OpenBabel04121316163D

 37 39  0  0  0  0  0  0  0  0999 V2000
    0.9233    0.0191    0.1996 S   0  0  0  0  0  0  0  0  0  0  0  0
    2.5760   -0.0559   -0.0240 C   0  0  0  0  0  0  0  0  0  0  0  0
    3.2460   -0.5433   -1.1275 N   0  0  0  0  0  0  0  0  0  0  0  0
    2.6179   -1.0503   -2.2793 C   0  0  0  0  0  0  0  0  0  0  0  0
    2.6188   -2.4239   -2.5240 C   0  0  0  0  0  0  0  0  0  0  0  0
    2.1605   -2.9085   -3.7515 C   0  0  0  0  0  0  0  0  0  0  0  0
    1.6284   -2.0223   -4.6890 C   0  0  0  0  0  0  0  0  0  0  0  0
    1.5137   -0.6643   -4.3919 C   0  0  0  0  0  0  0  0  0  0  0  0
    2.0598   -0.1699   -3.2064 C   0  0  0  0  0  0  0  0  0  0  0  0
    1.0678   -2.7183   -6.5652 I   0  0  0  0  0  0  0  0  0  0  0  0
    3.3189    0.3899    1.0335 O   0  0  0  0  0  0  0  0  0  0  0  0
    4.7668    0.3985    1.0172 C   0  0  0  0  0  0  0  0  0  0  0  0
    5.3435    0.9999    2.3152 C   0  0  0  0  0  0  0  0  0  0  0  0
    6.8168    0.9469    2.3607 N   0  0  0  0  0  0  0  0  0  0  0  0
    7.4439   -0.2247    2.6531 C   0  0  0  0  0  0  0  0  0  0  0  0
    6.9501   -1.3172    2.8926 O   0  0  0  0  0  0  0  0  0  0  0  0
    8.8723    0.0076    2.6028 C   0  0  0  0  0  0  0  0  0  0  0  0
    9.0943    1.3289    2.2701 C   0  0  0  0  0  0  0  0  0  0  0  0
    7.7422    1.9417    2.1076 C   0  0  0  0  0  0  0  0  0  0  0  0
    7.5463    3.0987    1.7941 O   0  0  0  0  0  0  0  0  0  0  0  0
   10.4046    1.7863    2.1512 C   0  0  0  0  0  0  0  0  0  0  0  0
   11.4573    0.8681    2.3808 C   0  0  0  0  0  0  0  0  0  0  0  0
   11.1939   -0.4729    2.7141 C   0  0  0  0  0  0  0  0  0  0  0  0
    9.8807   -0.9126    2.8262 C   0  0  0  0  0  0  0  0  0  0  0  0
    4.2460   -0.6796   -1.0903 H   0  0  0  0  0  0  0  0  0  0  0  0
    2.9351   -3.1246   -1.7557 H   0  0  0  0  0  0  0  0  0  0  0  0
    2.2236   -3.9730   -3.9626 H   0  0  0  0  0  0  0  0  0  0  0  0
    1.0211    0.0214   -5.0759 H   0  0  0  0  0  0  0  0  0  0  0  0
    2.0617    0.9007   -3.0202 H   0  0  0  0  0  0  0  0  0  0  0  0
    5.1014    0.9936    0.1637 H   0  0  0  0  0  0  0  0  0  0  0  0
    5.1050   -0.6377    0.9070 H   0  0  0  0  0  0  0  0  0  0  0  0
    4.9630    0.3992    3.1550 H   0  0  0  0  0  0  0  0  0  0  0  0
    4.9770    2.0199    2.4688 H   0  0  0  0  0  0  0  0  0  0  0  0
   10.6454    2.8138    1.8912 H   0  0  0  0  0  0  0  0  0  0  0  0
   12.4991    1.1840    2.3042 H   0  0  0  0  0  0  0  0  0  0  0  0
   12.0094   -1.1743    2.8874 H   0  0  0  0  0  0  0  0  0  0  0  0
    9.6389   -1.9387    3.0801 H   0  0  0  0  0  0  0  0  0  0  0  0
  1  2  2  0  0  0  0
  2  3  1  0  0  0  0
  2 11  1  0  0  0  0
  3  4  1  0  0  0  0
  3 25  1  0  0  0  0
  4  5  2  0  0  0  0
  4  9  1  0  0  0  0
  5  6  1  0  0  0  0
  5 26  1  0  0  0  0
  6  7  2  0  0  0  0
  6 27  1  0  0  0  0
  7  8  1  0  0  0  0
  7 10  1  0  0  0  0
  8  9  2  0  0  0  0
  8 28  1  0  0  0  0
  9 29  1  0  0  0  0
 11 12  1  0  0  0  0
 12 13  1  0  0  0  0
 12 30  1  0  0  0  0
 12 31  1  0  0  0  0
 13 14  1  0  0  0  0
 13 32  1  0  0  0  0
 13 33  1  0  0  0  0
 14 15  1  0  0  0  0
 14 19  1  0  0  0  0
 15 16  2  0  0  0  0
 15 17  1  0  0  0  0
 17 18  2  0  0  0  0
 17 24  1  0  0  0  0
 18 19  1  0  0  0  0
 18 21  1  0  0  0  0
 19 20  2  0  0  0  0
 21 22  2  0  0  0  0
 21 34  1  0  0  0  0
 22 23  1  0  0  0  0
 22 35  1  0  0  0  0
 23 24  2  0  0  0  0
 23 36  1  0  0  0  0
 24 37  1  0  0  0  0
M  END
$$$$
