NNN
 OpenBabel04121316163D

 52 54  0  0  1  0  0  0  0  0999 V2000
    1.0734   -0.0190    0.2458 C   0  0  0  0  0  0  0  0  0  0  0  0
    2.5723   -0.0675    0.0024 C   0  0  0  0  0  0  0  0  0  0  0  0
    3.0511   -1.2581   -0.8582 C   0  0  1  0  0  0  0  0  0  0  0  0
    2.7117   -2.1955   -0.4031 H   0  0  0  0  0  0  0  0  0  0  0  0
    2.5834   -1.2498   -2.2506 N   0  0  0  0  0  0  0  0  0  0  0  0
    1.2632   -1.1952   -2.6025 C   0  0  0  0  0  0  0  0  0  0  0  0
    0.7535    0.0592   -2.9021 N   0  0  0  0  0  0  0  0  0  0  0  0
   -0.5349    0.2006   -2.9638 C   0  0  0  0  0  0  0  0  0  0  0  0
   -1.1693    1.4195   -3.0177 N   0  0  0  0  0  0  0  0  0  0  0  0
   -0.4795    2.6550   -2.7481 C   0  0  0  0  0  0  0  0  0  0  0  0
   -1.3618    3.8733   -2.8947 C   0  0  0  0  0  0  0  0  0  0  0  0
   -2.6957    3.8076   -3.3239 C   0  0  0  0  0  0  0  0  0  0  0  0
   -3.4016    4.9607   -3.6467 C   0  0  0  0  0  0  0  0  0  0  0  0
   -2.8271    6.2060   -3.4325 C   0  0  0  0  0  0  0  0  0  0  0  0
   -1.5506    6.2973   -2.8825 C   0  0  0  0  0  0  0  0  0  0  0  0
   -0.8027    5.1403   -2.6578 C   0  0  0  0  0  0  0  0  0  0  0  0
   -1.3423   -0.9404   -2.9549 N   0  0  0  0  0  0  0  0  0  0  0  0
   -0.7829   -2.1709   -2.8213 C   0  0  0  0  0  0  0  0  0  0  0  0
    0.5476   -2.2820   -2.5611 N   0  0  0  0  0  0  0  0  0  0  0  0
   -1.8164   -3.0682   -2.9742 C   0  0  0  0  0  0  0  0  0  0  0  0
   -2.9641   -2.2489   -3.1642 C   0  0  0  0  0  0  0  0  0  0  0  0
   -2.6886   -0.9401   -3.1123 N   0  0  0  0  0  0  0  0  0  0  0  0
   -1.7110   -4.5596   -2.9229 C   0  0  0  0  0  0  0  0  0  0  0  0
   -1.1574   -5.0116   -1.5685 C   0  0  0  0  0  0  0  0  0  0  0  0
   -3.0514   -5.2469   -3.1852 C   0  0  0  0  0  0  0  0  0  0  0  0
    4.6024   -1.2519   -0.8489 C   0  0  0  0  0  0  0  0  0  0  0  0
    5.1477   -2.3332   -1.5989 O   0  0  0  0  0  0  0  0  0  0  0  0
    0.8058    0.7876    0.9322 H   0  0  0  0  0  0  0  0  0  0  0  0
    0.6991   -0.9708    0.6301 H   0  0  0  0  0  0  0  0  0  0  0  0
    0.5293    0.2089   -0.6572 H   0  0  0  0  0  0  0  0  0  0  0  0
    3.0460   -0.1379    0.9927 H   0  0  0  0  0  0  0  0  0  0  0  0
    2.9073    0.8827   -0.4315 H   0  0  0  0  0  0  0  0  0  0  0  0
    3.2223   -0.8377   -2.9179 H   0  0  0  0  0  0  0  0  0  0  0  0
   -2.1778    1.3743   -2.9306 H   0  0  0  0  0  0  0  0  0  0  0  0
    0.3335    2.7436   -3.4785 H   0  0  0  0  0  0  0  0  0  0  0  0
   -0.0323    2.6480   -1.7449 H   0  0  0  0  0  0  0  0  0  0  0  0
   -3.2196    2.8671   -3.4518 H   0  0  0  0  0  0  0  0  0  0  0  0
   -4.3973    4.8708   -4.0712 H   0  0  0  0  0  0  0  0  0  0  0  0
   -3.3809    7.1028   -3.6908 H   0  0  0  0  0  0  0  0  0  0  0  0
   -1.1308    7.2718   -2.6497 H   0  0  0  0  0  0  0  0  0  0  0  0
    0.2260    5.2351   -2.3129 H   0  0  0  0  0  0  0  0  0  0  0  0
   -3.9878   -2.5674   -3.3281 H   0  0  0  0  0  0  0  0  0  0  0  0
   -1.0095   -4.8739   -3.7083 H   0  0  0  0  0  0  0  0  0  0  0  0
   -1.8209   -4.7009   -0.7534 H   0  0  0  0  0  0  0  0  0  0  0  0
   -0.1724   -4.5753   -1.3700 H   0  0  0  0  0  0  0  0  0  0  0  0
   -1.0468   -6.0989   -1.5330 H   0  0  0  0  0  0  0  0  0  0  0  0
   -3.7896   -4.9695   -2.4236 H   0  0  0  0  0  0  0  0  0  0  0  0
   -2.9445   -6.3354   -3.1718 H   0  0  0  0  0  0  0  0  0  0  0  0
   -3.4562   -4.9596   -4.1624 H   0  0  0  0  0  0  0  0  0  0  0  0
    4.9868   -1.3283    0.1744 H   0  0  0  0  0  0  0  0  0  0  0  0
    4.9934   -0.3232   -1.2812 H   0  0  0  0  0  0  0  0  0  0  0  0
    4.7481   -3.1525   -1.2581 H   0  0  0  0  0  0  0  0  0  0  0  0
  1  2  1  0  0  0  0
  1 28  1  0  0  0  0
  1 29  1  0  0  0  0
  1 30  1  0  0  0  0
  2  3  1  0  0  0  0
  2 31  1  0  0  0  0
  2 32  1  0  0  0  0
  3  4  1  1  0  0  0
  3  5  1  0  0  0  0
  3 26  1  0  0  0  0
  5  6  1  0  0  0  0
  5 33  1  0  0  0  0
  6  7  1  0  0  0  0
  6 19  2  0  0  0  0
  7  8  2  0  0  0  0
  8  9  1  0  0  0  0
  8 17  1  0  0  0  0
  9 10  1  0  0  0  0
  9 34  1  0  0  0  0
 10 11  1  0  0  0  0
 10 35  1  0  0  0  0
 10 36  1  0  0  0  0
 11 12  2  0  0  0  0
 11 16  1  0  0  0  0
 12 13  1  0  0  0  0
 12 37  1  0  0  0  0
 13 14  2  0  0  0  0
 13 38  1  0  0  0  0
 14 15  1  0  0  0  0
 14 39  1  0  0  0  0
 15 16  2  0  0  0  0
 15 40  1  0  0  0  0
 16 41  1  0  0  0  0
 17 18  1  0  0  0  0
 17 22  1  0  0  0  0
 18 19  1  0  0  0  0
 18 20  2  0  0  0  0
 20 21  1  0  0  0  0
 20 23  1  0  0  0  0
 21 22  2  0  0  0  0
 21 42  1  0  0  0  0
 23 24  1  0  0  0  0
 23 25  1  0  0  0  0
 23 43  1  0  0  0  0
 24 44  1  0  0  0  0
 24 45  1  0  0  0  0
 24 46  1  0  0  0  0
 25 47  1  0  0  0  0
 25 48  1  0  0  0  0
 25 49  1  0  0  0  0
 26 27  1  0  0  0  0
 26 50  1  0  0  0  0
 26 51  1  0  0  0  0
 27 52  1  0  0  0  0
M  END
$$$$
