NNR
 OpenBabel04121316163D

 33 34  0  0  1  0  0  0  0  0999 V2000
    1.0160    0.0444   -0.0626 O   0  0  0  0  0  0  0  0  0  0  0  0
    2.4427    0.0693   -0.0410 C   0  0  0  0  0  0  0  0  0  0  0  0
    2.9395    0.1261    1.4084 C   0  0  1  0  0  0  0  0  0  0  0  0
    4.0334    0.2224    1.3917 H   0  0  0  0  0  0  0  0  0  0  0  0
    2.3981    1.2574    2.1488 O   0  0  0  0  0  0  0  0  0  0  0  0
    2.4883    0.8787    3.5269 C   0  0  2  0  0  0  0  0  0  0  0  0
    3.5073    1.0990    3.8774 H   0  0  0  0  0  0  0  0  0  0  0  0
    2.2297   -0.6269    3.5959 C   0  0  1  0  0  0  0  0  0  0  0  0
    1.1908   -0.8933    3.7708 H   0  0  0  0  0  0  0  0  0  0  0  0
    2.5253   -1.1225    2.1850 C   0  0  2  0  0  0  0  0  0  0  0  0
    1.6104   -1.5563    1.7639 H   0  0  0  0  0  0  0  0  0  0  0  0
    3.5283   -2.1214    2.1481 O   0  0  0  0  0  0  0  0  0  0  0  0
    3.0017   -1.2796    4.5980 O   0  0  0  0  0  0  0  0  0  0  0  0
    1.5788    1.7163    4.3914 N   0  3  0  0  0  0  0  0  0  0  0  0
    0.3977    1.2642    4.8832 C   0  0  0  0  0  0  0  0  0  0  0  0
   -0.4117    2.0568    5.6826 C   0  0  0  0  0  0  0  0  0  0  0  0
   -0.0868    3.3881    5.8588 C   0  0  0  0  0  0  0  0  0  0  0  0
    1.1131    3.8723    5.3409 C   0  0  0  0  0  0  0  0  0  0  0  0
    1.9676    2.9911    4.6762 C   0  0  0  0  0  0  0  0  0  0  0  0
    1.4047    5.3153    5.4865 C   0  0  0  0  0  0  0  0  0  0  0  0
    0.5819    6.0635    6.0084 O   0  0  0  0  0  0  0  0  0  0  0  0
    2.5792    5.8047    5.0044 N   0  0  0  0  0  0  0  0  0  0  0  0
    0.7526   -0.0201   -1.0009 H   0  0  0  0  0  0  0  0  0  0  0  0
    2.7787    0.9413   -0.6095 H   0  0  0  0  0  0  0  0  0  0  0  0
    2.8105   -0.8391   -0.5342 H   0  0  0  0  0  0  0  0  0  0  0  0
    3.2663   -2.8118    2.7888 H   0  0  0  0  0  0  0  0  0  0  0  0
    2.7660   -0.9501    5.4835 H   0  0  0  0  0  0  0  0  0  0  0  0
    0.0566    0.2626    4.6622 H   0  0  0  0  0  0  0  0  0  0  0  0
   -1.3134    1.6441    6.1315 H   0  0  0  0  0  0  0  0  0  0  0  0
   -0.7771    4.0460    6.3897 H   0  0  0  0  0  0  0  0  0  0  0  0
    2.9620    3.2736    4.3521 H   0  0  0  0  0  0  0  0  0  0  0  0
    3.3121    5.3078    4.5252 H   0  0  0  0  0  0  0  0  0  0  0  0
    2.7101    6.8091    5.0896 H   0  0  0  0  0  0  0  0  0  0  0  0
  1  2  1  0  0  0  0
  1 23  1  0  0  0  0
  2  3  1  0  0  0  0
  2 24  1  0  0  0  0
  2 25  1  0  0  0  0
  3  4  1  6  0  0  0
  3  5  1  0  0  0  0
  3 10  1  0  0  0  0
  5  6  1  0  0  0  0
  6  8  1  0  0  0  0
  6 14  1  0  0  0  0
  6  7  1  1  0  0  0
  8  9  1  1  0  0  0
  8 10  1  0  0  0  0
  8 13  1  0  0  0  0
 10 11  1  6  0  0  0
 10 12  1  0  0  0  0
 12 26  1  0  0  0  0
 13 27  1  0  0  0  0
 14 15  2  0  0  0  0
 14 19  1  0  0  0  0
 15 16  1  0  0  0  0
 15 28  1  0  0  0  0
 16 17  2  0  0  0  0
 16 29  1  0  0  0  0
 17 18  1  0  0  0  0
 17 30  1  0  0  0  0
 18 19  2  0  0  0  0
 18 20  1  0  0  0  0
 19 31  1  0  0  0  0
 20 21  2  0  0  0  0
 20 22  1  0  0  0  0
 22 32  1  0  0  0  0
 22 33  1  0  0  0  0
M  CHG  1  14   1
M  END
$$$$
