NOQ
 OpenBabel04121316163D

 50 51  0  0  1  0  0  0  0  0999 V2000
    5.5339   -7.7300    0.2068 N   0  0  0  0  0  0  0  0  0  0  0  0
    5.2112   -6.4295   -0.3636 C   0  0  0  0  0  0  0  0  0  0  0  0
    6.4583   -5.5554   -0.4890 C   0  0  0  0  0  0  0  0  0  0  0  0
    6.1500   -4.2554   -1.0398 N   0  0  0  0  0  0  0  0  0  0  0  0
    7.1485   -3.3301   -1.2240 C   0  0  0  0  0  0  0  0  0  0  0  0
    8.3196   -3.5291   -0.9233 O   0  0  0  0  0  0  0  0  0  0  0  0
    6.6576   -2.0228   -1.8157 C   0  0  2  0  0  0  0  0  0  0  0  0
    5.5587   -2.0196   -1.8230 H   0  0  0  0  0  0  0  0  0  0  0  0
    7.1487   -1.9311   -3.2665 C   0  0  0  0  0  0  0  0  0  0  0  0
    6.7011   -0.6244   -3.9078 C   0  0  0  0  0  0  0  0  0  0  0  0
    7.2199    0.5570   -3.1143 C   0  0  0  0  0  0  0  0  0  0  0  0
    6.7339    0.4846   -1.6833 C   0  0  0  0  0  0  0  0  0  0  0  0
    7.1463   -0.8178   -0.9805 C   0  0  1  0  0  0  0  0  0  0  0  0
    8.2437   -0.8443   -0.9254 H   0  0  0  0  0  0  0  0  0  0  0  0
    6.6044   -0.8764    0.4619 C   0  0  0  0  0  0  0  0  0  0  0  0
    6.9897    0.6089    1.3845 S   0  0  0  0  0  0  0  0  0  0  0  0
    8.4317    0.7229    1.5053 O   0  0  0  0  0  0  0  0  0  0  0  0
    6.1899    1.6879    0.8368 O   0  0  0  0  0  0  0  0  0  0  0  0
    6.3611    0.3976    3.0155 C   0  0  0  0  0  0  0  0  0  0  0  0
    6.1853   -0.8579    3.5843 C   0  0  0  0  0  0  0  0  0  0  0  0
    5.4762   -0.9538    4.7809 C   0  0  0  0  0  0  0  0  0  0  0  0
    5.0513    0.1989    5.4511 C   0  0  0  0  0  0  0  0  0  0  0  0
    5.3569    1.4552    4.9286 C   0  0  0  0  0  0  0  0  0  0  0  0
    5.9506    1.5558    3.6799 C   0  0  0  0  0  0  0  0  0  0  0  0
    4.3396   -0.0172    6.5993 O   0  0  0  0  0  0  0  0  0  0  0  0
    3.8668    1.1572    7.2522 C   0  0  0  0  0  0  0  0  0  0  0  0
    4.6842   -8.2801    0.3171 H   0  0  0  0  0  0  0  0  0  0  0  0
    5.9281   -7.6100    1.1398 H   0  0  0  0  0  0  0  0  0  0  0  0
    4.4667   -5.9250    0.2637 H   0  0  0  0  0  0  0  0  0  0  0  0
    4.7573   -6.5660   -1.3519 H   0  0  0  0  0  0  0  0  0  0  0  0
    7.2070   -6.0299   -1.1342 H   0  0  0  0  0  0  0  0  0  0  0  0
    6.9186   -5.3948    0.4935 H   0  0  0  0  0  0  0  0  0  0  0  0
    5.2075   -4.0584   -1.3515 H   0  0  0  0  0  0  0  0  0  0  0  0
    6.7718   -2.7754   -3.8544 H   0  0  0  0  0  0  0  0  0  0  0  0
    8.2451   -1.9939   -3.2936 H   0  0  0  0  0  0  0  0  0  0  0  0
    5.6050   -0.5887   -3.9371 H   0  0  0  0  0  0  0  0  0  0  0  0
    7.0643   -0.5607   -4.9367 H   0  0  0  0  0  0  0  0  0  0  0  0
    6.8815    1.4974   -3.5607 H   0  0  0  0  0  0  0  0  0  0  0  0
    8.3168    0.5685   -3.1177 H   0  0  0  0  0  0  0  0  0  0  0  0
    5.6407    0.5855   -1.6493 H   0  0  0  0  0  0  0  0  0  0  0  0
    7.1723    1.3511   -1.1870 H   0  0  0  0  0  0  0  0  0  0  0  0
    5.5167   -1.0070    0.4705 H   0  0  0  0  0  0  0  0  0  0  0  0
    7.0656   -1.7198    0.9851 H   0  0  0  0  0  0  0  0  0  0  0  0
    6.5766   -1.7578    3.1233 H   0  0  0  0  0  0  0  0  0  0  0  0
    5.2530   -1.9328    5.1974 H   0  0  0  0  0  0  0  0  0  0  0  0
    5.1298    2.3766    5.4528 H   0  0  0  0  0  0  0  0  0  0  0  0
    6.0809    2.5377    3.2262 H   0  0  0  0  0  0  0  0  0  0  0  0
    3.2630    0.8527    8.1098 H   0  0  0  0  0  0  0  0  0  0  0  0
    3.2280    1.7550    6.5906 H   0  0  0  0  0  0  0  0  0  0  0  0
    4.7097    1.7491    7.6243 H   0  0  0  0  0  0  0  0  0  0  0  0
  1  2  1  0  0  0  0
  1 27  1  0  0  0  0
  1 28  1  0  0  0  0
  2  3  1  0  0  0  0
  2 29  1  0  0  0  0
  2 30  1  0  0  0  0
  3  4  1  0  0  0  0
  3 31  1  0  0  0  0
  3 32  1  0  0  0  0
  4  5  1  0  0  0  0
  4 33  1  0  0  0  0
  5  6  2  0  0  0  0
  7  9  1  0  0  0  0
  7 13  1  0  0  0  0
  7  8  1  6  0  0  0
  7  5  1  0  0  0  0
  9 10  1  0  0  0  0
  9 34  1  0  0  0  0
  9 35  1  0  0  0  0
 10 11  1  0  0  0  0
 10 36  1  0  0  0  0
 10 37  1  0  0  0  0
 11 12  1  0  0  0  0
 11 38  1  0  0  0  0
 11 39  1  0  0  0  0
 12 13  1  0  0  0  0
 12 40  1  0  0  0  0
 12 41  1  0  0  0  0
 13 15  1  0  0  0  0
 13 14  1  1  0  0  0
 15 16  1  0  0  0  0
 15 42  1  0  0  0  0
 15 43  1  0  0  0  0
 16 17  2  0  0  0  0
 16 18  2  0  0  0  0
 16 19  1  0  0  0  0
 19 20  2  0  0  0  0
 19 24  1  0  0  0  0
 20 21  1  0  0  0  0
 20 44  1  0  0  0  0
 21 22  2  0  0  0  0
 21 45  1  0  0  0  0
 22 23  1  0  0  0  0
 22 25  1  0  0  0  0
 23 24  2  0  0  0  0
 23 46  1  0  0  0  0
 24 47  1  0  0  0  0
 25 26  1  0  0  0  0
 26 48  1  0  0  0  0
 26 49  1  0  0  0  0
 26 50  1  0  0  0  0
M  END
$$$$
