NOR
 OpenBabel04121316163D

 42 42  0  0  1  0  0  0  0  0999 V2000
    2.9804    2.6551   -2.0591 N   0  0  0  0  0  0  0  0  0  0  0  0
    2.3150    1.5285   -1.3667 C   0  0  2  0  0  0  0  0  0  0  0  0
    1.9430    2.0754   -0.4913 H   0  0  0  0  0  0  0  0  0  0  0  0
    3.0236    0.2451   -0.7251 C   0  0  2  0  0  0  0  0  0  0  0  0
    2.9176    0.3526    0.3505 H   0  0  0  0  0  0  0  0  0  0  0  0
    4.5441    0.0790   -0.9259 C   0  0  0  0  0  0  0  0  0  0  0  0
    5.0807   -0.9050   -1.3836 O   0  0  0  0  0  0  0  0  0  0  0  0
    5.1876    1.1916   -0.4752 O   0  0  0  0  0  0  0  0  0  0  0  0
    6.6154    1.1574   -0.5670 C   0  0  0  0  0  0  0  0  0  0  0  0
    7.0840    1.5510   -1.9633 C   0  0  0  0  0  0  0  0  0  0  0  0
    7.1114    2.1546    0.4640 C   0  0  0  0  0  0  0  0  0  0  0  0
    2.2502   -0.9602   -0.9390 O   0  0  0  0  0  0  0  0  0  0  0  0
    1.1397    1.0101   -2.2098 C   0  0  0  0  0  0  0  0  0  0  0  0
    1.4741    0.1203   -3.4846 C   0  0  0  0  0  0  0  0  0  0  0  0
    1.2391    0.9073   -4.7888 C   0  0  0  0  0  0  0  0  0  0  0  0
    2.3217    1.9489   -5.0595 C   0  0  0  0  0  0  0  0  0  0  0  0
    3.7556    1.3807   -4.9712 C   0  0  0  0  0  0  0  0  0  0  0  0
    4.0089    0.3704   -3.8768 C   0  0  0  0  0  0  0  0  0  0  0  0
    2.8518   -0.5867   -3.6999 C   0  0  0  0  0  0  0  0  0  0  0  0
    2.3098    3.4038   -2.2699 H   0  0  0  0  0  0  0  0  0  0  0  0
    3.2099    2.3642   -2.9972 H   0  0  0  0  0  0  0  0  0  0  0  0
    6.9897    0.1614   -0.3037 H   0  0  0  0  0  0  0  0  0  0  0  0
    6.6973    2.5356   -2.2488 H   0  0  0  0  0  0  0  0  0  0  0  0
    6.7309    0.8438   -2.7191 H   0  0  0  0  0  0  0  0  0  0  0  0
    8.1769    1.5729   -2.0107 H   0  0  0  0  0  0  0  0  0  0  0  0
    6.7322    3.1588    0.2435 H   0  0  0  0  0  0  0  0  0  0  0  0
    8.2029    2.1799    0.4910 H   0  0  0  0  0  0  0  0  0  0  0  0
    6.7332    1.8863    1.4563 H   0  0  0  0  0  0  0  0  0  0  0  0
    2.8179   -1.6724   -1.2866 H   0  0  0  0  0  0  0  0  0  0  0  0
    0.4293    1.8157   -2.4528 H   0  0  0  0  0  0  0  0  0  0  0  0
    0.5384    0.4119   -1.5041 H   0  0  0  0  0  0  0  0  0  0  0  0
    0.7178   -0.6794   -3.4536 H   0  0  0  0  0  0  0  0  0  0  0  0
    0.2539    1.3831   -4.7646 H   0  0  0  0  0  0  0  0  0  0  0  0
    1.2343    0.2008   -5.6270 H   0  0  0  0  0  0  0  0  0  0  0  0
    2.1169    2.7888   -4.3884 H   0  0  0  0  0  0  0  0  0  0  0  0
    2.2119    2.4130   -6.0427 H   0  0  0  0  0  0  0  0  0  0  0  0
    4.4812    2.1943   -4.8469 H   0  0  0  0  0  0  0  0  0  0  0  0
    3.9877    0.8578   -5.8997 H   0  0  0  0  0  0  0  0  0  0  0  0
    4.2162    0.9113   -2.9706 H   0  0  0  0  0  0  0  0  0  0  0  0
    4.9516   -0.1681   -4.0203 H   0  0  0  0  0  0  0  0  0  0  0  0
    3.1441   -1.3282   -2.9674 H   0  0  0  0  0  0  0  0  0  0  0  0
    2.7841   -1.2154   -4.5978 H   0  0  0  0  0  0  0  0  0  0  0  0
  1 20  1  0  0  0  0
  1 21  1  0  0  0  0
  2 13  1  0  0  0  0
  2  3  1  1  0  0  0
  2  1  1  0  0  0  0
  4  6  1  0  0  0  0
  4 12  1  0  0  0  0
  4  5  1  1  0  0  0
  4  2  1  0  0  0  0
  6  7  2  0  0  0  0
  6  8  1  0  0  0  0
  8  9  1  0  0  0  0
  9 10  1  0  0  0  0
  9 11  1  0  0  0  0
  9 22  1  0  0  0  0
 10 23  1  0  0  0  0
 10 24  1  0  0  0  0
 10 25  1  0  0  0  0
 11 26  1  0  0  0  0
 11 27  1  0  0  0  0
 11 28  1  0  0  0  0
 12 29  1  0  0  0  0
 13 14  1  0  0  0  0
 13 30  1  0  0  0  0
 13 31  1  0  0  0  0
 14 15  1  0  0  0  0
 14 19  1  0  0  0  0
 14 32  1  0  0  0  0
 15 16  1  0  0  0  0
 15 33  1  0  0  0  0
 15 34  1  0  0  0  0
 16 17  1  0  0  0  0
 16 35  1  0  0  0  0
 16 36  1  0  0  0  0
 17 18  1  0  0  0  0
 17 37  1  0  0  0  0
 17 38  1  0  0  0  0
 18 19  1  0  0  0  0
 18 39  1  0  0  0  0
 18 40  1  0  0  0  0
 19 41  1  0  0  0  0
 19 42  1  0  0  0  0
M  END
$$$$
