NOT
 OpenBabel04121316163D

 24 23  0  0  1  0  0  0  0  0999 V2000
    1.0435    0.0117    0.1020 N   0  5  0  0  0  0  0  0  0  0  0  0
    2.1857    0.0569    0.0661 N   0  3  0  0  0  0  0  0  0  0  0  0
    3.4218    0.1095    0.0288 N   0  0  0  0  0  0  0  0  0  0  0  0
    4.1243   -0.8415    0.8843 C   0  0  0  0  0  0  0  0  0  0  0  0
    5.6207   -0.6052    0.7033 C   0  0  0  0  0  0  0  0  0  0  0  0
    6.3882   -1.5953    1.5513 C   0  0  0  0  0  0  0  0  0  0  0  0
    7.8992   -1.4688    1.4030 C   0  0  0  0  0  0  0  0  0  0  0  0
    8.6516   -2.4773    2.2840 C   0  0  1  0  0  0  0  0  0  0  0  0
    8.3851   -2.3489    3.3393 H   0  0  0  0  0  0  0  0  0  0  0  0
    8.3836   -3.9574    1.8821 C   0  0  0  0  0  0  0  0  0  0  0  0
    9.2219   -4.6991    1.3856 O   0  0  0  0  0  0  0  0  0  0  0  0
    7.1290   -4.4123    2.1135 O   0  0  0  0  0  0  0  0  0  0  0  0
   10.1008   -2.2061    2.1640 N   0  0  0  0  0  0  0  0  0  0  0  0
    3.8671   -1.8737    0.6077 H   0  0  0  0  0  0  0  0  0  0  0  0
    3.8477   -0.7021    1.9374 H   0  0  0  0  0  0  0  0  0  0  0  0
    5.8879    0.4216    0.9722 H   0  0  0  0  0  0  0  0  0  0  0  0
    5.8903   -0.7530   -0.3498 H   0  0  0  0  0  0  0  0  0  0  0  0
    6.0656   -2.5728    1.1916 H   0  0  0  0  0  0  0  0  0  0  0  0
    6.1087   -1.5000    2.6084 H   0  0  0  0  0  0  0  0  0  0  0  0
    8.1933   -0.4450    1.6751 H   0  0  0  0  0  0  0  0  0  0  0  0
    8.1715   -1.6088    0.3494 H   0  0  0  0  0  0  0  0  0  0  0  0
    6.5158   -3.8027    2.5590 H   0  0  0  0  0  0  0  0  0  0  0  0
   10.3193   -1.2286    2.3358 H   0  0  0  0  0  0  0  0  0  0  0  0
   10.3907   -2.4152    1.2044 H   0  0  0  0  0  0  0  0  0  0  0  0
  1  2  2  0  0  0  0
  2  3  2  0  0  0  0
  3  4  1  0  0  0  0
  4  5  1  0  0  0  0
  4 14  1  0  0  0  0
  4 15  1  0  0  0  0
  5  6  1  0  0  0  0
  5 16  1  0  0  0  0
  5 17  1  0  0  0  0
  6  7  1  0  0  0  0
  6 18  1  0  0  0  0
  6 19  1  0  0  0  0
  7  8  1  0  0  0  0
  7 20  1  0  0  0  0
  7 21  1  0  0  0  0
  8  9  1  1  0  0  0
  8 10  1  0  0  0  0
  8 13  1  0  0  0  0
 10 11  2  0  0  0  0
 10 12  1  0  0  0  0
 12 22  1  0  0  0  0
 13 23  1  0  0  0  0
 13 24  1  0  0  0  0
M  CHG  2   1  -1   2   1
M  END
$$$$
