NPM
 OpenBabel04121316163D

 49 52  0  0  0  0  0  0  0  0999 V2000
   -0.6364   -1.2694   -0.0239 C   0  0  0  0  0  0  0  0  0  0  0  0
   -1.4306   -0.1278   -0.0182 C   0  0  0  0  0  0  0  0  0  0  0  0
   -0.8222    1.1098    0.0595 C   0  0  0  0  0  0  0  0  0  0  0  0
    0.5615    1.1503    0.0373 C   0  0  0  0  0  0  0  0  0  0  0  0
    1.3732    0.0665    0.0491 N   0  0  0  0  0  0  0  0  0  0  0  0
    0.7431   -1.1256    0.0568 C   0  0  0  0  0  0  0  0  0  0  0  0
    1.2199    2.4511   -0.0786 C   0  0  0  0  0  0  0  0  0  0  0  0
    0.5192    3.5446   -0.0981 N   0  0  0  0  0  0  0  0  0  0  0  0
    1.1535    4.7748   -0.2452 C   0  0  0  0  0  0  0  0  0  0  0  0
    0.4794    5.9442    0.1258 C   0  0  0  0  0  0  0  0  0  0  0  0
    1.0097    7.2035   -0.1830 C   0  0  0  0  0  0  0  0  0  0  0  0
    2.3087    7.2964   -0.6711 C   0  0  0  0  0  0  0  0  0  0  0  0
    3.0573    6.1182   -0.6580 C   0  0  0  0  0  0  0  0  0  0  0  0
    2.4386    4.8923   -0.7260 C   0  0  0  0  0  0  0  0  0  0  0  0
    2.8444    8.6098   -1.2399 C   0  0  0  0  0  0  0  0  0  0  0  0
    4.1413    8.5442   -2.0321 C   0  0  0  0  0  0  0  0  0  0  0  0
    4.9398    9.6636   -2.2548 C   0  0  0  0  0  0  0  0  0  0  0  0
    6.1112    9.5282   -3.0157 C   0  0  0  0  0  0  0  0  0  0  0  0
    6.6083    8.2597   -3.3517 C   0  0  0  0  0  0  0  0  0  0  0  0
    5.8612    7.1603   -2.9990 C   0  0  0  0  0  0  0  0  0  0  0  0
    4.5628    7.3531   -2.6201 C   0  0  0  0  0  0  0  0  0  0  0  0
    7.7597    8.1514   -4.1240 N   0  0  0  0  0  0  0  0  0  0  0  0
    8.1565    6.9766   -4.5330 C   0  0  0  0  0  0  0  0  0  0  0  0
    9.2837    6.8406   -5.4443 C   0  0  0  0  0  0  0  0  0  0  0  0
    9.8724    7.9869   -5.9420 C   0  0  0  0  0  0  0  0  0  0  0  0
   10.7900    7.8397   -6.9610 C   0  0  0  0  0  0  0  0  0  0  0  0
   11.1402    6.5576   -7.3747 C   0  0  0  0  0  0  0  0  0  0  0  0
   10.5627    5.4656   -6.7400 C   0  0  0  0  0  0  0  0  0  0  0  0
    9.6038    5.5726   -5.8014 N   0  0  0  0  0  0  0  0  0  0  0  0
   -1.0886   -2.2524   -0.0739 H   0  0  0  0  0  0  0  0  0  0  0  0
   -2.5118   -0.1905   -0.0735 H   0  0  0  0  0  0  0  0  0  0  0  0
   -1.4020    2.0257    0.1080 H   0  0  0  0  0  0  0  0  0  0  0  0
    1.3902   -1.9943    0.1390 H   0  0  0  0  0  0  0  0  0  0  0  0
    2.3188    2.4049   -0.1670 H   0  0  0  0  0  0  0  0  0  0  0  0
   -0.4791    5.8689    0.6278 H   0  0  0  0  0  0  0  0  0  0  0  0
    0.4140    8.0980   -0.0256 H   0  0  0  0  0  0  0  0  0  0  0  0
    4.1367    6.1050   -0.7492 H   0  0  0  0  0  0  0  0  0  0  0  0
    3.0046    4.0531   -1.1153 H   0  0  0  0  0  0  0  0  0  0  0  0
    2.9523    9.3119   -0.4060 H   0  0  0  0  0  0  0  0  0  0  0  0
    2.0952    9.0162   -1.9344 H   0  0  0  0  0  0  0  0  0  0  0  0
    4.6377   10.6440   -1.8957 H   0  0  0  0  0  0  0  0  0  0  0  0
    6.6431   10.4128   -3.3515 H   0  0  0  0  0  0  0  0  0  0  0  0
    6.1954    6.1369   -3.1027 H   0  0  0  0  0  0  0  0  0  0  0  0
    3.9267    6.4827   -2.7190 H   0  0  0  0  0  0  0  0  0  0  0  0
    7.6851    6.0177   -4.2772 H   0  0  0  0  0  0  0  0  0  0  0  0
    9.5899    8.9627   -5.5604 H   0  0  0  0  0  0  0  0  0  0  0  0
   11.2199    8.7210   -7.4232 H   0  0  0  0  0  0  0  0  0  0  0  0
   11.8626    6.4161   -8.1685 H   0  0  0  0  0  0  0  0  0  0  0  0
   10.8722    4.4514   -6.9762 H   0  0  0  0  0  0  0  0  0  0  0  0
  1  2  2  0  0  0  0
  1  6  1  0  0  0  0
  1 30  1  0  0  0  0
  2  3  1  0  0  0  0
  2 31  1  0  0  0  0
  3  4  2  0  0  0  0
  3 32  1  0  0  0  0
  4  5  1  0  0  0  0
  4  7  1  0  0  0  0
  5  6  2  0  0  0  0
  6 33  1  0  0  0  0
  7  8  2  0  0  0  0
  7 34  1  0  0  0  0
  8  9  1  0  0  0  0
  9 10  2  0  0  0  0
  9 14  1  0  0  0  0
 10 11  1  0  0  0  0
 10 35  1  0  0  0  0
 11 12  2  0  0  0  0
 11 36  1  0  0  0  0
 12 13  1  0  0  0  0
 12 15  1  0  0  0  0
 13 14  2  0  0  0  0
 13 37  1  0  0  0  0
 14 38  1  0  0  0  0
 15 16  1  0  0  0  0
 15 39  1  0  0  0  0
 15 40  1  0  0  0  0
 16 17  2  0  0  0  0
 16 21  1  0  0  0  0
 17 18  1  0  0  0  0
 17 41  1  0  0  0  0
 18 19  2  0  0  0  0
 18 42  1  0  0  0  0
 19 20  1  0  0  0  0
 19 22  1  0  0  0  0
 20 21  2  0  0  0  0
 20 43  1  0  0  0  0
 21 44  1  0  0  0  0
 22 23  2  0  0  0  0
 23 24  1  0  0  0  0
 23 45  1  0  0  0  0
 24 25  2  0  0  0  0
 24 29  1  0  0  0  0
 25 26  1  0  0  0  0
 25 46  1  0  0  0  0
 26 27  2  0  0  0  0
 26 47  1  0  0  0  0
 27 28  1  0  0  0  0
 27 48  1  0  0  0  0
 28 29  2  0  0  0  0
 28 49  1  0  0  0  0
M  END
$$$$
