NPN
 OpenBabel04121316163D

 12 11  0  0  0  0  0  0  0  0999 V2000
    0.9280   -0.0690    0.0631 C   0  5  0  0  0  0  0  0  0  0  0  0
    2.0988   -0.0757    0.0594 N   0  3  0  0  0  0  0  0  0  0  0  0
    3.5294   -0.0794    0.0573 C   0  0  0  0  0  0  0  0  0  0  0  0
    4.0527   -1.3290   -0.6368 C   0  0  0  0  0  0  0  0  0  0  0  0
    5.5701   -1.3425   -0.6443 C   0  0  0  0  0  0  0  0  0  0  0  0
    3.8855   -0.0395    1.0929 H   0  0  0  0  0  0  0  0  0  0  0  0
    3.8855    0.8209   -0.4561 H   0  0  0  0  0  0  0  0  0  0  0  0
    3.6773   -1.3695   -1.6663 H   0  0  0  0  0  0  0  0  0  0  0  0
    3.6773   -2.2244   -0.1271 H   0  0  0  0  0  0  0  0  0  0  0  0
    5.9621   -0.4678   -1.1732 H   0  0  0  0  0  0  0  0  0  0  0  0
    5.9426   -2.2414   -1.1436 H   0  0  0  0  0  0  0  0  0  0  0  0
    5.9621   -1.3293    0.3778 H   0  0  0  0  0  0  0  0  0  0  0  0
  1  2  3  0  0  0  0
  2  3  1  0  0  0  0
  3  4  1  0  0  0  0
  3  6  1  0  0  0  0
  3  7  1  0  0  0  0
  4  5  1  0  0  0  0
  4  8  1  0  0  0  0
  4  9  1  0  0  0  0
  5 10  1  0  0  0  0
  5 11  1  0  0  0  0
  5 12  1  0  0  0  0
M  CHG  2   1  -1   2   1
M  END
$$$$
