NPY
 OpenBabel04121316163D

 18 19  0  0  0  0  0  0  0  0999 V2000
    2.4342   -0.6633   -0.0547 C   0  0  0  0  0  0  0  0  0  0  0  0
    2.4129    0.7306   -0.0240 C   0  0  0  0  0  0  0  0  0  0  0  0
    1.1986    1.4083    0.0707 C   0  0  0  0  0  0  0  0  0  0  0  0
   -0.0095    0.7021    0.0956 C   0  0  0  0  0  0  0  0  0  0  0  0
    0.0122   -0.7160    0.0915 C   0  0  0  0  0  0  0  0  0  0  0  0
    1.2420   -1.3818    0.0249 C   0  0  0  0  0  0  0  0  0  0  0  0
   -1.1984   -1.4181    0.1087 C   0  0  0  0  0  0  0  0  0  0  0  0
   -2.4058   -0.7407   -0.0475 C   0  0  0  0  0  0  0  0  0  0  0  0
   -2.4182    0.6504   -0.1274 C   0  0  0  0  0  0  0  0  0  0  0  0
   -1.2387    1.3675    0.0565 C   0  0  0  0  0  0  0  0  0  0  0  0
    3.3786   -1.1903   -0.1538 H   0  0  0  0  0  0  0  0  0  0  0  0
    3.3407    1.2903   -0.0973 H   0  0  0  0  0  0  0  0  0  0  0  0
    1.1979    2.4973    0.0685 H   0  0  0  0  0  0  0  0  0  0  0  0
    1.2749   -2.4694   -0.0182 H   0  0  0  0  0  0  0  0  0  0  0  0
   -1.2051   -2.5033    0.1935 H   0  0  0  0  0  0  0  0  0  0  0  0
   -3.3355   -1.2970   -0.1188 H   0  0  0  0  0  0  0  0  0  0  0  0
   -3.3433    1.1768   -0.3422 H   0  0  0  0  0  0  0  0  0  0  0  0
   -1.2814    2.4535    0.1168 H   0  0  0  0  0  0  0  0  0  0  0  0
  1  2  2  0  0  0  0
  1  6  1  0  0  0  0
  1 11  1  0  0  0  0
  2  3  1  0  0  0  0
  2 12  1  0  0  0  0
  3  4  2  0  0  0  0
  3 13  1  0  0  0  0
  4  5  1  0  0  0  0
  4 10  1  0  0  0  0
  5  6  2  0  0  0  0
  5  7  1  0  0  0  0
  6 14  1  0  0  0  0
  7  8  2  0  0  0  0
  7 15  1  0  0  0  0
  8  9  1  0  0  0  0
  8 16  1  0  0  0  0
  9 10  2  0  0  0  0
  9 17  1  0  0  0  0
 10 18  1  0  0  0  0
M  END
$$$$
