NRO
 OpenBabel04121316163D

 37 38  0  0  0  0  0  0  0  0999 V2000
    0.9809   -0.0405    0.0566 C   0  0  0  0  0  0  0  0  0  0  0  0
    2.4886   -0.0446    0.0540 C   0  0  0  0  0  0  0  0  0  0  0  0
    3.0832   -0.5847   -1.2552 C   0  0  0  0  0  0  0  0  0  0  0  0
    4.5888   -0.5784   -1.2417 C   0  0  0  0  0  0  0  0  0  0  0  0
    5.3178   -0.1507   -0.1973 C   0  0  0  0  0  0  0  0  0  0  0  0
    6.7102   -0.0396   -0.1581 C   0  0  0  0  0  0  0  0  0  0  0  0
    7.5176    0.8455   -0.8487 C   0  0  0  0  0  0  0  0  0  0  0  0
    8.8423    0.5285   -0.5232 C   0  0  0  0  0  0  0  0  0  0  0  0
    8.7777   -0.4918    0.3938 C   0  0  0  0  0  0  0  0  0  0  0  0
    7.4863   -0.8326    0.6315 O   0  0  0  0  0  0  0  0  0  0  0  0
    9.7816   -1.2362    1.1135 C   0  0  0  0  0  0  0  0  0  0  0  0
   11.1145   -1.1551    0.7043 C   0  0  0  0  0  0  0  0  0  0  0  0
   12.1028   -1.8158    1.4155 C   0  0  0  0  0  0  0  0  0  0  0  0
   11.7400   -2.6758    2.4503 C   0  0  0  0  0  0  0  0  0  0  0  0
   10.3996   -2.7990    2.8527 C   0  0  0  0  0  0  0  0  0  0  0  0
    9.4365   -2.0093    2.2270 C   0  0  0  0  0  0  0  0  0  0  0  0
   10.0767   -3.7911    3.9125 C   0  0  0  0  0  0  0  0  0  0  0  0
   10.9435   -4.5007    4.4144 O   0  0  0  0  0  0  0  0  0  0  0  0
    8.7846   -3.8953    4.2761 O   0  0  0  0  0  0  0  0  0  0  0  0
    5.2117   -1.0975   -2.4766 N   0  3  0  0  0  0  0  0  0  0  0  0
    4.4429   -1.4213   -3.3905 O   0  0  0  0  0  0  0  0  0  0  0  0
    6.4406   -1.1996   -2.5600 O   0  5  0  0  0  0  0  0  0  0  0  0
    0.6225    0.3497    1.0143 H   0  0  0  0  0  0  0  0  0  0  0  0
    0.5961   -1.0549   -0.0718 H   0  0  0  0  0  0  0  0  0  0  0  0
    0.5979    0.5967   -0.7441 H   0  0  0  0  0  0  0  0  0  0  0  0
    2.8302   -0.6576    0.8984 H   0  0  0  0  0  0  0  0  0  0  0  0
    2.8350    0.9835    0.2262 H   0  0  0  0  0  0  0  0  0  0  0  0
    2.7241    0.0381   -2.0852 H   0  0  0  0  0  0  0  0  0  0  0  0
    2.7185   -1.6062   -1.4180 H   0  0  0  0  0  0  0  0  0  0  0  0
    4.8443    0.1795    0.7209 H   0  0  0  0  0  0  0  0  0  0  0  0
    7.1717    1.5857   -1.5545 H   0  0  0  0  0  0  0  0  0  0  0  0
    9.7400    0.9845   -0.9059 H   0  0  0  0  0  0  0  0  0  0  0  0
   11.3900   -0.5673   -0.1681 H   0  0  0  0  0  0  0  0  0  0  0  0
   13.1454   -1.6723    1.1478 H   0  0  0  0  0  0  0  0  0  0  0  0
   12.5153   -3.2596    2.9421 H   0  0  0  0  0  0  0  0  0  0  0  0
    8.4097   -1.9643    2.5695 H   0  0  0  0  0  0  0  0  0  0  0  0
    8.1339   -3.3467    3.8085 H   0  0  0  0  0  0  0  0  0  0  0  0
  1  2  1  0  0  0  0
  1 23  1  0  0  0  0
  1 24  1  0  0  0  0
  1 25  1  0  0  0  0
  2  3  1  0  0  0  0
  2 26  1  0  0  0  0
  2 27  1  0  0  0  0
  3  4  1  0  0  0  0
  3 28  1  0  0  0  0
  3 29  1  0  0  0  0
  4  5  2  0  0  0  0
  4 20  1  0  0  0  0
  5  6  1  0  0  0  0
  5 30  1  0  0  0  0
  6  7  2  0  0  0  0
  6 10  1  0  0  0  0
  7  8  1  0  0  0  0
  7 31  1  0  0  0  0
  8  9  2  0  0  0  0
  8 32  1  0  0  0  0
  9 10  1  0  0  0  0
  9 11  1  0  0  0  0
 11 12  2  0  0  0  0
 11 16  1  0  0  0  0
 12 13  1  0  0  0  0
 12 33  1  0  0  0  0
 13 14  2  0  0  0  0
 13 34  1  0  0  0  0
 14 15  1  0  0  0  0
 14 35  1  0  0  0  0
 15 16  2  0  0  0  0
 15 17  1  0  0  0  0
 16 36  1  0  0  0  0
 17 18  2  0  0  0  0
 17 19  1  0  0  0  0
 19 37  1  0  0  0  0
 20 21  2  0  0  0  0
 20 22  1  0  0  0  0
M  CHG  2  20   1  22  -1
M  END
$$$$
