NS5
 OpenBabel04121316163D

100 99  0  0  0  0  0  0  0  0999 V2000
    0.9669    0.1439    0.0531 C   0  0  0  0  0  0  0  0  0  0  0  0
    2.4994    0.1096    0.0269 C   0  0  0  0  0  0  0  0  0  0  0  0
    3.0454   -1.2846   -0.3095 C   0  0  0  0  0  0  0  0  0  0  0  0
    2.5845   -2.2806    0.7178 C   0  0  0  0  0  0  0  0  0  0  0  0
    3.0723   -3.6971    0.4462 C   0  0  0  0  0  0  0  0  0  0  0  0
    2.5584   -4.6444    1.4862 C   0  0  0  0  0  0  0  0  0  0  0  0
    1.7819   -4.2147    2.4919 C   0  0  0  0  0  0  0  0  0  0  0  0
    1.2784   -5.1258    3.5106 C   0  0  0  0  0  0  0  0  0  0  0  0
    0.4378   -4.3992    4.5290 C   0  0  0  0  0  0  0  0  0  0  0  0
   -0.0347   -5.3856    5.5339 C   0  0  0  0  0  0  0  0  0  0  0  0
    0.2672   -6.6916    5.4924 C   0  0  0  0  0  0  0  0  0  0  0  0
   -0.1856   -7.6264    6.4549 C   0  0  0  0  0  0  0  0  0  0  0  0
    0.1223   -8.9241    6.4019 C   0  0  0  0  0  0  0  0  0  0  0  0
   -0.3406   -9.8754    7.3849 C   0  0  0  0  0  0  0  0  0  0  0  0
   -1.1074   -9.4934    8.4037 C   0  0  0  0  0  0  0  0  0  0  0  0
   -1.6237  -10.3448    9.4360 C   0  0  0  0  0  0  0  0  0  0  0  0
   -2.3857   -9.9221   10.4356 C   0  0  0  0  0  0  0  0  0  0  0  0
   -2.7958   -8.5571   10.6196 C   0  0  0  0  0  0  0  0  0  0  0  0
   -3.5580   -8.0610   11.5958 C   0  0  0  0  0  0  0  0  0  0  0  0
   -3.8918   -6.6469   11.6530 C   0  0  0  0  0  0  0  0  0  0  0  0
   -3.4613   -5.7706   10.7442 C   0  0  0  0  0  0  0  0  0  0  0  0
   -3.7562   -4.3814   10.7521 C   0  0  0  0  0  0  0  0  0  0  0  0
   -3.3166   -3.5088    9.8307 C   0  0  0  0  0  0  0  0  0  0  0  0
   -3.6287   -2.1034    9.8609 C   0  0  0  0  0  0  0  0  0  0  0  0
   -4.3806   -1.6247   10.8301 C   0  0  0  0  0  0  0  0  0  0  0  0
   -4.7576   -0.2748   10.9739 C   0  0  0  0  0  0  0  0  0  0  0  0
   -5.5265    0.1646   11.9801 C   0  0  0  0  0  0  0  0  0  0  0  0
   -5.8961    1.6199   12.0782 C   0  0  0  0  0  0  0  0  0  0  0  0
   -5.2946    2.4225   10.9358 C   0  0  0  0  0  0  0  0  0  0  0  0
   -5.6167    3.8633   10.9675 C   0  0  0  0  0  0  0  0  0  0  0  0
   -5.1521    4.6930   10.0203 C   0  0  0  0  0  0  0  0  0  0  0  0
   -4.2838    4.2406    8.8706 C   0  0  0  0  0  0  0  0  0  0  0  0
   -5.4965    6.1441   10.0822 C   0  0  0  0  0  0  0  0  0  0  0  0
   -6.0890   -0.6995   13.0833 C   0  0  0  0  0  0  0  0  0  0  0  0
   -2.4666   -3.8514    8.6743 C   0  0  0  0  0  0  0  0  0  0  0  0
   -4.1189   -8.9040   12.6879 C   0  0  0  0  0  0  0  0  0  0  0  0
    0.0619  -11.3012    7.2316 C   0  0  0  0  0  0  0  0  0  0  0  0
   -0.8729   -4.8020    6.5947 C   0  0  0  0  0  0  0  0  0  0  0  0
    2.9368   -6.0946    1.3640 C   0  0  0  0  0  0  0  0  0  0  0  0
    3.0260    1.0926   -1.0071 C   0  0  0  0  0  0  0  0  0  0  0  0
    0.5516   -0.4916    0.8421 H   0  0  0  0  0  0  0  0  0  0  0  0
    0.5552   -0.1954   -0.9033 H   0  0  0  0  0  0  0  0  0  0  0  0
    0.6020    1.1554    0.2512 H   0  0  0  0  0  0  0  0  0  0  0  0
    2.8666    0.4086    1.0184 H   0  0  0  0  0  0  0  0  0  0  0  0
    4.1414   -1.2716   -0.3207 H   0  0  0  0  0  0  0  0  0  0  0  0
    2.7051   -1.6038   -1.3005 H   0  0  0  0  0  0  0  0  0  0  0  0
    1.4882   -2.3037    0.7210 H   0  0  0  0  0  0  0  0  0  0  0  0
    2.9236   -1.9390    1.7071 H   0  0  0  0  0  0  0  0  0  0  0  0
    4.1660   -3.7221    0.4434 H   0  0  0  0  0  0  0  0  0  0  0  0
    2.7118   -4.0241   -0.5351 H   0  0  0  0  0  0  0  0  0  0  0  0
    1.4763   -3.1830    2.6252 H   0  0  0  0  0  0  0  0  0  0  0  0
    2.1417   -5.5853    4.0097 H   0  0  0  0  0  0  0  0  0  0  0  0
    0.6697   -5.8918    3.0126 H   0  0  0  0  0  0  0  0  0  0  0  0
   -0.4253   -3.9157    4.0514 H   0  0  0  0  0  0  0  0  0  0  0  0
    1.0203   -3.6130    5.0286 H   0  0  0  0  0  0  0  0  0  0  0  0
    0.8831   -7.1304    4.7164 H   0  0  0  0  0  0  0  0  0  0  0  0
   -0.8003   -7.2007    7.2349 H   0  0  0  0  0  0  0  0  0  0  0  0
    0.7454   -9.2970    5.5936 H   0  0  0  0  0  0  0  0  0  0  0  0
   -1.3778   -8.4529    8.4798 H   0  0  0  0  0  0  0  0  0  0  0  0
   -1.3771  -11.3995    9.3993 H   0  0  0  0  0  0  0  0  0  0  0  0
   -2.7080  -10.6682   11.1473 H   0  0  0  0  0  0  0  0  0  0  0  0
   -2.4314   -7.8754    9.8680 H   0  0  0  0  0  0  0  0  0  0  0  0
   -4.5174   -6.3094   12.4757 H   0  0  0  0  0  0  0  0  0  0  0  0
   -2.8427   -6.0892    9.9268 H   0  0  0  0  0  0  0  0  0  0  0  0
   -4.3800   -4.0974   11.5898 H   0  0  0  0  0  0  0  0  0  0  0  0
   -3.2321   -1.4588    9.0738 H   0  0  0  0  0  0  0  0  0  0  0  0
   -4.7559   -2.2822   11.5894 H   0  0  0  0  0  0  0  0  0  0  0  0
   -4.3597    0.3600   10.1867 H   0  0  0  0  0  0  0  0  0  0  0  0
   -5.5362    2.0158   13.0343 H   0  0  0  0  0  0  0  0  0  0  0  0
   -6.9876    1.7130   12.0573 H   0  0  0  0  0  0  0  0  0  0  0  0
   -5.6666    2.0189    9.9820 H   0  0  0  0  0  0  0  0  0  0  0  0
   -4.1991    2.3251   10.9698 H   0  0  0  0  0  0  0  0  0  0  0  0
   -6.2395    4.2224   11.7814 H   0  0  0  0  0  0  0  0  0  0  0  0
   -4.0652    3.1666    8.8786 H   0  0  0  0  0  0  0  0  0  0  0  0
   -3.3170    4.7505    8.8997 H   0  0  0  0  0  0  0  0  0  0  0  0
   -4.7773    4.4459    7.9167 H   0  0  0  0  0  0  0  0  0  0  0  0
   -6.1274    6.3676   10.9502 H   0  0  0  0  0  0  0  0  0  0  0  0
   -6.0471    6.4366    9.1849 H   0  0  0  0  0  0  0  0  0  0  0  0
   -4.5857    6.7414   10.1686 H   0  0  0  0  0  0  0  0  0  0  0  0
   -5.8278   -1.7576   13.0236 H   0  0  0  0  0  0  0  0  0  0  0  0
   -7.1807   -0.6620   13.0659 H   0  0  0  0  0  0  0  0  0  0  0  0
   -5.7171   -0.3564   14.0514 H   0  0  0  0  0  0  0  0  0  0  0  0
   -2.2247   -4.9093    8.6402 H   0  0  0  0  0  0  0  0  0  0  0  0
   -1.5166   -3.3081    8.7277 H   0  0  0  0  0  0  0  0  0  0  0  0
   -2.9847   -3.6123    7.7390 H   0  0  0  0  0  0  0  0  0  0  0  0
   -3.8389   -9.9535   12.5967 H   0  0  0  0  0  0  0  0  0  0  0  0
   -5.2091   -8.8653   12.6594 H   0  0  0  0  0  0  0  0  0  0  0  0
   -3.7389   -8.5590   13.6510 H   0  0  0  0  0  0  0  0  0  0  0  0
    0.6875  -11.4725    6.3565 H   0  0  0  0  0  0  0  0  0  0  0  0
   -0.8388  -11.9177    7.1382 H   0  0  0  0  0  0  0  0  0  0  0  0
    0.6202  -11.6118    8.1215 H   0  0  0  0  0  0  0  0  0  0  0  0
   -1.0132   -3.7245    6.4683 H   0  0  0  0  0  0  0  0  0  0  0  0
   -0.3850   -4.9671    7.5626 H   0  0  0  0  0  0  0  0  0  0  0  0
   -1.8612   -5.2761    6.5674 H   0  0  0  0  0  0  0  0  0  0  0  0
    3.5628   -6.2763    0.4888 H   0  0  0  0  0  0  0  0  0  0  0  0
    2.0405   -6.7192    1.2694 H   0  0  0  0  0  0  0  0  0  0  0  0
    3.4949   -6.4196    2.2497 H   0  0  0  0  0  0  0  0  0  0  0  0
    2.6846    0.8138   -2.0096 H   0  0  0  0  0  0  0  0  0  0  0  0
    4.1208    1.0975   -1.0095 H   0  0  0  0  0  0  0  0  0  0  0  0
    2.6776    2.1055   -0.7905 H   0  0  0  0  0  0  0  0  0  0  0  0
  1  2  1  0  0  0  0
  1 41  1  0  0  0  0
  1 42  1  0  0  0  0
  1 43  1  0  0  0  0
  2  3  1  0  0  0  0
  2 40  1  0  0  0  0
  2 44  1  0  0  0  0
  3  4  1  0  0  0  0
  3 45  1  0  0  0  0
  3 46  1  0  0  0  0
  4  5  1  0  0  0  0
  4 47  1  0  0  0  0
  4 48  1  0  0  0  0
  5  6  1  0  0  0  0
  5 49  1  0  0  0  0
  5 50  1  0  0  0  0
  6  7  2  0  0  0  0
  6 39  1  0  0  0  0
  7  8  1  0  0  0  0
  7 51  1  0  0  0  0
  8  9  1  0  0  0  0
  8 52  1  0  0  0  0
  8 53  1  0  0  0  0
  9 10  1  0  0  0  0
  9 54  1  0  0  0  0
  9 55  1  0  0  0  0
 10 11  2  0  0  0  0
 10 38  1  0  0  0  0
 11 12  1  0  0  0  0
 11 56  1  0  0  0  0
 12 13  2  0  0  0  0
 12 57  1  0  0  0  0
 13 14  1  0  0  0  0
 13 58  1  0  0  0  0
 14 15  2  0  0  0  0
 14 37  1  0  0  0  0
 15 16  1  0  0  0  0
 15 59  1  0  0  0  0
 16 17  2  0  0  0  0
 16 60  1  0  0  0  0
 17 18  1  0  0  0  0
 17 61  1  0  0  0  0
 18 19  2  0  0  0  0
 18 62  1  0  0  0  0
 19 20  1  0  0  0  0
 19 36  1  0  0  0  0
 20 21  2  0  0  0  0
 20 63  1  0  0  0  0
 21 22  1  0  0  0  0
 21 64  1  0  0  0  0
 22 23  2  0  0  0  0
 22 65  1  0  0  0  0
 23 24  1  0  0  0  0
 23 35  1  0  0  0  0
 24 25  2  0  0  0  0
 24 66  1  0  0  0  0
 25 26  1  0  0  0  0
 25 67  1  0  0  0  0
 26 27  2  0  0  0  0
 26 68  1  0  0  0  0
 27 28  1  0  0  0  0
 27 34  1  0  0  0  0
 28 29  1  0  0  0  0
 28 69  1  0  0  0  0
 28 70  1  0  0  0  0
 29 30  1  0  0  0  0
 29 71  1  0  0  0  0
 29 72  1  0  0  0  0
 30 31  2  0  0  0  0
 30 73  1  0  0  0  0
 31 32  1  0  0  0  0
 31 33  1  0  0  0  0
 32 74  1  0  0  0  0
 32 75  1  0  0  0  0
 32 76  1  0  0  0  0
 33 77  1  0  0  0  0
 33 78  1  0  0  0  0
 33 79  1  0  0  0  0
 34 80  1  0  0  0  0
 34 81  1  0  0  0  0
 34 82  1  0  0  0  0
 35 83  1  0  0  0  0
 35 84  1  0  0  0  0
 35 85  1  0  0  0  0
 36 86  1  0  0  0  0
 36 87  1  0  0  0  0
 36 88  1  0  0  0  0
 37 89  1  0  0  0  0
 37 90  1  0  0  0  0
 37 91  1  0  0  0  0
 38 92  1  0  0  0  0
 38 93  1  0  0  0  0
 38 94  1  0  0  0  0
 39 95  1  0  0  0  0
 39 96  1  0  0  0  0
 39 97  1  0  0  0  0
 40 98  1  0  0  0  0
 40 99  1  0  0  0  0
 40100  1  0  0  0  0
M  END
$$$$
