NS9
 OpenBabel04121316163D

 55 57  0  0  1  0  0  0  0  0999 V2000
    0.9898   -0.0649    0.0598 O   0  0  0  0  0  0  0  0  0  0  0  0
    2.4184   -0.0370    0.0728 C   0  0  0  0  0  0  0  0  0  0  0  0
    2.9625    0.9396    1.1504 C   0  0  1  0  0  0  0  0  0  0  0  0
    2.5553    1.9269    0.8892 H   0  0  0  0  0  0  0  0  0  0  0  0
    2.3874    0.5488    2.5644 C   0  0  1  0  0  0  0  0  0  0  0  0
    2.7525   -0.4513    2.8180 H   0  0  0  0  0  0  0  0  0  0  0  0
    2.6918    1.5128    3.7220 C   0  0  0  0  0  0  0  0  0  0  0  0
    3.9563    1.3722    4.3296 O   0  0  0  0  0  0  0  0  0  0  0  0
    0.9466    0.4936    2.5572 O   0  0  0  0  0  0  0  0  0  0  0  0
    4.4515    0.9640    1.0670 N   0  0  0  0  0  0  0  0  0  0  0  0
    5.1967    1.8017    1.8733 C   0  0  0  0  0  0  0  0  0  0  0  0
    4.8218    3.2160    1.7819 C   0  0  0  0  0  0  0  0  0  0  0  0
    5.2849    4.0852    2.6950 C   0  0  0  0  0  0  0  0  0  0  0  0
    4.8846    5.3988    2.6660 N   0  0  0  0  0  0  0  0  0  0  0  0
    3.9903    5.9059    1.6580 C   0  0  0  0  0  0  0  0  0  0  0  0
    3.7697    7.3687    1.7576 C   0  0  0  0  0  0  0  0  0  0  0  0
    2.4928    7.8730    1.4908 C   0  0  0  0  0  0  0  0  0  0  0  0
    2.3095    9.2408    1.3655 C   0  0  0  0  0  0  0  0  0  0  0  0
    3.3750   10.1048    1.6142 C   0  0  0  0  0  0  0  0  0  0  0  0
    4.6241    9.6059    1.9809 C   0  0  0  0  0  0  0  0  0  0  0  0
    4.8396    8.2378    1.9875 C   0  0  0  0  0  0  0  0  0  0  0  0
    6.1652    3.6074    3.6714 N   0  0  0  0  0  0  0  0  0  0  0  0
    6.5685    2.2625    3.6625 C   0  0  0  0  0  0  0  0  0  0  0  0
    6.1074    1.3568    2.7043 N   0  0  0  0  0  0  0  0  0  0  0  0
    7.3026    2.0986    4.8317 C   0  0  0  0  0  0  0  0  0  0  0  0
    7.3873    3.3952    5.3905 C   0  0  0  0  0  0  0  0  0  0  0  0
    6.7296    4.3144    4.6928 N   0  0  0  0  0  0  0  0  0  0  0  0
    7.8901    0.8352    5.3837 C   0  0  0  0  0  0  0  0  0  0  0  0
    8.7470    0.1643    4.3128 C   0  0  0  0  0  0  0  0  0  0  0  0
    8.7428    1.0825    6.6369 C   0  0  0  0  0  0  0  0  0  0  0  0
    0.7104   -0.6724   -0.6498 H   0  0  0  0  0  0  0  0  0  0  0  0
    2.7621    0.2577   -0.9241 H   0  0  0  0  0  0  0  0  0  0  0  0
    2.7682   -1.0531    0.2787 H   0  0  0  0  0  0  0  0  0  0  0  0
    1.9961    1.3241    4.5427 H   0  0  0  0  0  0  0  0  0  0  0  0
    2.5220    2.5531    3.4173 H   0  0  0  0  0  0  0  0  0  0  0  0
    4.5113    0.7423    3.8304 H   0  0  0  0  0  0  0  0  0  0  0  0
    0.6565    0.0432    1.7386 H   0  0  0  0  0  0  0  0  0  0  0  0
    4.9185    0.1228    0.7480 H   0  0  0  0  0  0  0  0  0  0  0  0
    4.1364    3.4868    1.0018 H   0  0  0  0  0  0  0  0  0  0  0  0
    5.2511    5.9988    3.4061 H   0  0  0  0  0  0  0  0  0  0  0  0
    3.0324    5.3729    1.7288 H   0  0  0  0  0  0  0  0  0  0  0  0
    4.4062    5.7020    0.6605 H   0  0  0  0  0  0  0  0  0  0  0  0
    1.6499    7.1974    1.3555 H   0  0  0  0  0  0  0  0  0  0  0  0
    1.3382    9.6284    1.0758 H   0  0  0  0  0  0  0  0  0  0  0  0
    3.2312   11.1757    1.5228 H   0  0  0  0  0  0  0  0  0  0  0  0
    5.4360   10.2760    2.2434 H   0  0  0  0  0  0  0  0  0  0  0  0
    5.8391    7.8450    2.1667 H   0  0  0  0  0  0  0  0  0  0  0  0
    7.9124    3.7036    6.2873 H   0  0  0  0  0  0  0  0  0  0  0  0
    7.0699    0.1594    5.6657 H   0  0  0  0  0  0  0  0  0  0  0  0
    9.5444    0.8421    3.9871 H   0  0  0  0  0  0  0  0  0  0  0  0
    8.1510   -0.0870    3.4298 H   0  0  0  0  0  0  0  0  0  0  0  0
    9.1961   -0.7604    4.6813 H   0  0  0  0  0  0  0  0  0  0  0  0
    9.5640    1.7763    6.4198 H   0  0  0  0  0  0  0  0  0  0  0  0
    9.1802    0.1526    7.0127 H   0  0  0  0  0  0  0  0  0  0  0  0
    8.1461    1.5198    7.4468 H   0  0  0  0  0  0  0  0  0  0  0  0
  1  2  1  0  0  0  0
  1 31  1  0  0  0  0
  2  3  1  0  0  0  0
  2 32  1  0  0  0  0
  2 33  1  0  0  0  0
  3  4  1  6  0  0  0
  3  5  1  0  0  0  0
  3 10  1  0  0  0  0
  5  6  1  1  0  0  0
  5  7  1  0  0  0  0
  5  9  1  0  0  0  0
  7  8  1  0  0  0  0
  7 34  1  0  0  0  0
  7 35  1  0  0  0  0
  8 36  1  0  0  0  0
  9 37  1  0  0  0  0
 10 11  1  0  0  0  0
 10 38  1  0  0  0  0
 11 12  1  0  0  0  0
 11 24  2  0  0  0  0
 12 13  2  0  0  0  0
 12 39  1  0  0  0  0
 13 14  1  0  0  0  0
 13 22  1  0  0  0  0
 14 15  1  0  0  0  0
 14 40  1  0  0  0  0
 15 16  1  0  0  0  0
 15 41  1  0  0  0  0
 15 42  1  0  0  0  0
 16 17  2  0  0  0  0
 16 21  1  0  0  0  0
 17 18  1  0  0  0  0
 17 43  1  0  0  0  0
 18 19  2  0  0  0  0
 18 44  1  0  0  0  0
 19 20  1  0  0  0  0
 19 45  1  0  0  0  0
 20 21  2  0  0  0  0
 20 46  1  0  0  0  0
 21 47  1  0  0  0  0
 22 23  1  0  0  0  0
 22 27  1  0  0  0  0
 23 24  1  0  0  0  0
 23 25  2  0  0  0  0
 25 26  1  0  0  0  0
 25 28  1  0  0  0  0
 26 27  2  0  0  0  0
 26 48  1  0  0  0  0
 28 29  1  0  0  0  0
 28 30  1  0  0  0  0
 28 49  1  0  0  0  0
 29 50  1  0  0  0  0
 29 51  1  0  0  0  0
 29 52  1  0  0  0  0
 30 53  1  0  0  0  0
 30 54  1  0  0  0  0
 30 55  1  0  0  0  0
M  END
$$$$
