NSS
 OpenBabel04121316163D

 52 54  0  0  1  0  0  0  0  0999 V2000
    1.0151    0.0744    0.1428 N   0  0  0  0  0  0  0  0  0  0  0  0
    2.3545   -0.0894    0.0862 C   0  0  0  0  0  0  0  0  0  0  0  0
    2.8996   -0.4382   -0.9556 O   0  0  0  0  0  0  0  0  0  0  0  0
    3.1385    0.2187    1.3356 C   0  0  0  0  0  0  0  0  0  0  0  0
    4.6336    0.1927    1.0185 C   0  0  1  0  0  0  0  0  0  0  0  0
    4.9655   -0.7647    0.6039 H   0  0  0  0  0  0  0  0  0  0  0  0
    5.0796    1.3462    0.0907 C   0  0  0  0  0  0  0  0  0  0  0  0
    5.8812    2.1577    0.5516 O   0  0  0  0  0  0  0  0  0  0  0  0
    4.5873    1.3969   -1.2148 N   0  0  0  0  0  0  0  0  0  0  0  0
    4.9696    2.6368   -2.2383 S   0  0  0  0  0  0  0  0  0  0  0  0
    4.4535    3.8380   -1.6296 O   0  0  0  0  0  0  0  0  0  0  0  0
    6.3697    2.4701   -2.5644 O   0  0  0  0  0  0  0  0  0  0  0  0
    4.1035    2.3618   -3.5882 O   0  0  0  0  0  0  0  0  0  0  0  0
    4.3427    3.3033   -4.6327 C   0  0  0  0  0  0  0  0  0  0  0  0
    3.5179    3.0888   -5.9095 C   0  0  1  0  0  0  0  0  0  0  0  0
    4.2202    3.1315   -6.7558 H   0  0  0  0  0  0  0  0  0  0  0  0
    2.8136    1.8338   -5.9832 O   0  0  0  0  0  0  0  0  0  0  0  0
    1.7724    2.0551   -6.9560 C   0  0  2  0  0  0  0  0  0  0  0  0
    2.1836    1.8640   -7.9566 H   0  0  0  0  0  0  0  0  0  0  0  0
    1.3134    3.5122   -6.8067 C   0  0  1  0  0  0  0  0  0  0  0  0
    0.4321    3.6076   -6.1637 H   0  0  0  0  0  0  0  0  0  0  0  0
    2.4711    4.1914   -6.0920 C   0  0  2  0  0  0  0  0  0  0  0  0
    2.1238    4.5550   -5.1189 H   0  0  0  0  0  0  0  0  0  0  0  0
    3.0002    5.3071   -6.7944 O   0  0  0  0  0  0  0  0  0  0  0  0
    0.9758    4.1274   -8.0473 O   0  0  0  0  0  0  0  0  0  0  0  0
    0.6458    1.1513   -6.7655 N   0  0  0  0  0  0  0  0  0  0  0  0
   -0.0412    0.5591   -7.7996 C   0  0  0  0  0  0  0  0  0  0  0  0
   -1.2775    0.2609   -7.4612 N   0  0  0  0  0  0  0  0  0  0  0  0
   -1.3824    0.6285   -6.1361 C   0  0  0  0  0  0  0  0  0  0  0  0
   -0.1791    1.1327   -5.6683 C   0  0  0  0  0  0  0  0  0  0  0  0
    0.0714    1.6256   -4.4431 N   0  0  0  0  0  0  0  0  0  0  0  0
   -1.0244    1.5503   -3.6637 C   0  0  0  0  0  0  0  0  0  0  0  0
   -2.2520    1.0885   -3.9796 N   0  0  0  0  0  0  0  0  0  0  0  0
   -2.4611    0.6265   -5.2350 C   0  0  0  0  0  0  0  0  0  0  0  0
   -3.7214    0.2000   -5.5820 N   0  0  0  0  0  0  0  0  0  0  0  0
    5.3890    0.3397    2.3446 N   0  3  0  0  0  0  0  0  0  0  0  0
    5.2099    1.2713    2.7532 H   0  0  0  0  0  0  0  0  0  0  0  0
    5.1931   -0.3889    3.0396 H   0  0  0  0  0  0  0  0  0  0  0  0
    6.4048    0.3529    2.1549 H   0  0  0  0  0  0  0  0  0  0  0  0
    0.4919   -0.1431   -0.7018 H   0  0  0  0  0  0  0  0  0  0  0  0
    0.4763    0.1829    0.9931 H   0  0  0  0  0  0  0  0  0  0  0  0
    2.8951   -0.5504    2.0784 H   0  0  0  0  0  0  0  0  0  0  0  0
    2.8401    1.1955    1.7325 H   0  0  0  0  0  0  0  0  0  0  0  0
    3.9382    0.7027   -1.6037 H   0  0  0  0  0  0  0  0  0  0  0  0
    5.4068    3.2657   -4.8935 H   0  0  0  0  0  0  0  0  0  0  0  0
    4.1642    4.3127   -4.2404 H   0  0  0  0  0  0  0  0  0  0  0  0
    2.2312    5.8251   -7.1060 H   0  0  0  0  0  0  0  0  0  0  0  0
    0.2026    3.6561   -8.4130 H   0  0  0  0  0  0  0  0  0  0  0  0
    0.3799    0.4267   -8.7898 H   0  0  0  0  0  0  0  0  0  0  0  0
   -0.9067    1.9182   -2.6492 H   0  0  0  0  0  0  0  0  0  0  0  0
   -4.4537    0.2167   -4.8911 H   0  0  0  0  0  0  0  0  0  0  0  0
   -3.8853   -0.1286   -6.5239 H   0  0  0  0  0  0  0  0  0  0  0  0
  1  2  1  0  0  0  0
  1 40  1  0  0  0  0
  1 41  1  0  0  0  0
  2  3  2  0  0  0  0
  2  4  1  0  0  0  0
  4  5  1  0  0  0  0
  4 42  1  0  0  0  0
  4 43  1  0  0  0  0
  5  6  1  6  0  0  0
  5  7  1  0  0  0  0
  5 36  1  0  0  0  0
  7  8  2  0  0  0  0
  7  9  1  0  0  0  0
  9 10  1  0  0  0  0
  9 44  1  0  0  0  0
 10 11  2  0  0  0  0
 10 12  2  0  0  0  0
 10 13  1  0  0  0  0
 13 14  1  0  0  0  0
 14 15  1  0  0  0  0
 14 45  1  0  0  0  0
 14 46  1  0  0  0  0
 15 16  1  6  0  0  0
 15 17  1  0  0  0  0
 15 22  1  0  0  0  0
 17 18  1  0  0  0  0
 18 20  1  0  0  0  0
 18 26  1  0  0  0  0
 18 19  1  6  0  0  0
 20 21  1  1  0  0  0
 20 22  1  0  0  0  0
 20 25  1  0  0  0  0
 22 23  1  1  0  0  0
 22 24  1  0  0  0  0
 24 47  1  0  0  0  0
 25 48  1  0  0  0  0
 26 27  1  0  0  0  0
 26 30  1  0  0  0  0
 27 28  2  0  0  0  0
 27 49  1  0  0  0  0
 28 29  1  0  0  0  0
 29 30  2  0  0  0  0
 29 34  1  0  0  0  0
 30 31  1  0  0  0  0
 31 32  2  0  0  0  0
 32 33  1  0  0  0  0
 32 50  1  0  0  0  0
 33 34  2  0  0  0  0
 34 35  1  0  0  0  0
 35 51  1  0  0  0  0
 35 52  1  0  0  0  0
 36 37  1  0  0  0  0
 36 38  1  0  0  0  0
 36 39  1  0  0  0  0
M  CHG  1  36   1
M  END
$$$$
