NT
 OpenBabel04121316163D

 57 58  0  0  0  0  0  0  0  0999 V2000
    0.9557   -0.0572    0.0752 N   0  0  0  0  0  0  0  0  0  0  0  0
    2.3093   -0.0383    0.1035 C   0  0  0  0  0  0  0  0  0  0  0  0
    2.9569    0.3866    1.1328 N   0  0  0  0  0  0  0  0  0  0  0  0
    3.0645   -0.5366   -1.1103 C   0  0  0  0  0  0  0  0  0  0  0  0
    4.5598   -0.4497   -0.8831 C   0  0  0  0  0  0  0  0  0  0  0  0
    5.3198   -0.9695   -1.9874 N   0  0  0  0  0  0  0  0  0  0  0  0
    6.6906   -0.9116   -1.9188 C   0  0  0  0  0  0  0  0  0  0  0  0
    7.3125   -0.4806   -0.9612 O   0  0  0  0  0  0  0  0  0  0  0  0
    7.3163   -1.3820   -3.1136 C   0  0  0  0  0  0  0  0  0  0  0  0
    8.0273   -0.6117   -3.9966 C   0  0  0  0  0  0  0  0  0  0  0  0
    8.5026   -1.4564   -5.0092 C   0  0  0  0  0  0  0  0  0  0  0  0
    8.0947   -2.7385   -4.7242 C   0  0  0  0  0  0  0  0  0  0  0  0
    7.3710   -2.6767   -3.5628 N   0  0  0  0  0  0  0  0  0  0  0  0
    6.7922   -3.8062   -2.8765 C   0  0  0  0  0  0  0  0  0  0  0  0
    9.2473   -1.1180   -6.1053 N   0  0  0  0  0  0  0  0  0  0  0  0
    9.6328    0.1770   -6.3713 C   0  0  0  0  0  0  0  0  0  0  0  0
    9.3454    1.1374   -5.6664 O   0  0  0  0  0  0  0  0  0  0  0  0
   10.3863    0.3857   -7.5848 C   0  0  0  0  0  0  0  0  0  0  0  0
   10.5775    1.6532   -8.0948 C   0  0  0  0  0  0  0  0  0  0  0  0
   11.3553    1.5757   -9.2549 C   0  0  0  0  0  0  0  0  0  0  0  0
   11.6489    0.2462   -9.4455 C   0  0  0  0  0  0  0  0  0  0  0  0
   11.0546   -0.4704   -8.4274 N   0  0  0  0  0  0  0  0  0  0  0  0
   11.1713   -1.9019   -8.2793 C   0  0  0  0  0  0  0  0  0  0  0  0
   11.7590    2.6209  -10.0567 N   0  0  0  0  0  0  0  0  0  0  0  0
   11.3999    3.9323   -9.7736 C   0  0  0  0  0  0  0  0  0  0  0  0
   10.7144    4.3207   -8.8261 O   0  0  0  0  0  0  0  0  0  0  0  0
   11.9264    4.9454  -10.7650 C   0  0  0  0  0  0  0  0  0  0  0  0
   11.4904    6.2735  -10.3713 N   0  0  0  0  0  0  0  0  0  0  0  0
   11.7802    7.4027  -11.0298 C   0  0  0  0  0  0  0  0  0  0  0  0
   12.4820    7.4750  -12.1024 N   0  0  0  0  0  0  0  0  0  0  0  0
   11.2771    8.5193  -10.4993 N   0  0  0  0  0  0  0  0  0  0  0  0
    0.4137    0.2820    0.8568 H   0  0  0  0  0  0  0  0  0  0  0  0
    0.4481   -0.3721   -0.7416 H   0  0  0  0  0  0  0  0  0  0  0  0
    2.3215    0.6896    1.8695 H   0  0  0  0  0  0  0  0  0  0  0  0
    2.7713    0.0609   -1.9824 H   0  0  0  0  0  0  0  0  0  0  0  0
    2.7662   -1.5723   -1.3127 H   0  0  0  0  0  0  0  0  0  0  0  0
    4.8545   -1.0313   -0.0015 H   0  0  0  0  0  0  0  0  0  0  0  0
    4.8702    0.5889   -0.7117 H   0  0  0  0  0  0  0  0  0  0  0  0
    4.8774   -1.1901   -2.8693 H   0  0  0  0  0  0  0  0  0  0  0  0
    8.1672    0.4570   -3.8932 H   0  0  0  0  0  0  0  0  0  0  0  0
    8.2665   -3.6785   -5.2325 H   0  0  0  0  0  0  0  0  0  0  0  0
    6.9947   -4.7174   -3.4425 H   0  0  0  0  0  0  0  0  0  0  0  0
    5.7145   -3.6424   -2.8095 H   0  0  0  0  0  0  0  0  0  0  0  0
    7.2430   -3.8680   -1.8833 H   0  0  0  0  0  0  0  0  0  0  0  0
    9.4405   -1.8699   -6.7319 H   0  0  0  0  0  0  0  0  0  0  0  0
   10.1646    2.5377   -7.6227 H   0  0  0  0  0  0  0  0  0  0  0  0
   12.2285   -0.2605  -10.2048 H   0  0  0  0  0  0  0  0  0  0  0  0
   11.8160   -2.3117   -9.0555 H   0  0  0  0  0  0  0  0  0  0  0  0
   10.1746   -2.3345   -8.3987 H   0  0  0  0  0  0  0  0  0  0  0  0
   11.5903   -2.1116   -7.2905 H   0  0  0  0  0  0  0  0  0  0  0  0
   12.3255    2.3921  -10.8630 H   0  0  0  0  0  0  0  0  0  0  0  0
   11.5302    4.6997  -11.7549 H   0  0  0  0  0  0  0  0  0  0  0  0
   13.0193    4.8942  -10.7680 H   0  0  0  0  0  0  0  0  0  0  0  0
   10.9290    6.2952   -9.5199 H   0  0  0  0  0  0  0  0  0  0  0  0
   12.7786    6.5373  -12.3638 H   0  0  0  0  0  0  0  0  0  0  0  0
   10.7297    8.5586   -9.6562 H   0  0  0  0  0  0  0  0  0  0  0  0
   11.4970    9.3794  -10.9823 H   0  0  0  0  0  0  0  0  0  0  0  0
  1  2  1  0  0  0  0
  1 32  1  0  0  0  0
  1 33  1  0  0  0  0
  2  3  2  0  0  0  0
  2  4  1  0  0  0  0
  3 34  1  0  0  0  0
  4  5  1  0  0  0  0
  4 35  1  0  0  0  0
  4 36  1  0  0  0  0
  5  6  1  0  0  0  0
  5 37  1  0  0  0  0
  5 38  1  0  0  0  0
  6  7  1  0  0  0  0
  6 39  1  0  0  0  0
  7  8  2  0  0  0  0
  7  9  1  0  0  0  0
  9 10  2  0  0  0  0
  9 13  1  0  0  0  0
 10 11  1  0  0  0  0
 10 40  1  0  0  0  0
 11 12  2  0  0  0  0
 11 15  1  0  0  0  0
 12 13  1  0  0  0  0
 12 41  1  0  0  0  0
 13 14  1  0  0  0  0
 14 42  1  0  0  0  0
 14 43  1  0  0  0  0
 14 44  1  0  0  0  0
 15 16  1  0  0  0  0
 15 45  1  0  0  0  0
 16 17  2  0  0  0  0
 16 18  1  0  0  0  0
 18 19  2  0  0  0  0
 18 22  1  0  0  0  0
 19 20  1  0  0  0  0
 19 46  1  0  0  0  0
 20 21  2  0  0  0  0
 20 24  1  0  0  0  0
 21 22  1  0  0  0  0
 21 47  1  0  0  0  0
 22 23  1  0  0  0  0
 23 48  1  0  0  0  0
 23 49  1  0  0  0  0
 23 50  1  0  0  0  0
 24 25  1  0  0  0  0
 24 51  1  0  0  0  0
 25 26  2  0  0  0  0
 25 27  1  0  0  0  0
 27 28  1  0  0  0  0
 27 52  1  0  0  0  0
 27 53  1  0  0  0  0
 28 29  1  0  0  0  0
 28 54  1  0  0  0  0
 29 30  2  0  0  0  0
 29 31  1  0  0  0  0
 30 55  1  0  0  0  0
 31 56  1  0  0  0  0
 31 57  1  0  0  0  0
M  END
$$$$
