NTA
 OpenBabel04121316163D

 22 21  0  0  0  0  0  0  0  0999 V2000
    0.9301    0.6345   -0.1002 O   0  0  0  0  0  0  0  0  0  0  0  0
    2.0919   -0.0107    0.1625 C   0  0  0  0  0  0  0  0  0  0  0  0
    2.2177   -1.1535   -0.2082 O   0  0  0  0  0  0  0  0  0  0  0  0
    3.0508    0.8590    0.9782 C   0  0  0  0  0  0  0  0  0  0  0  0
    4.5020    0.7015    0.6605 N   0  0  0  0  0  0  0  0  0  0  0  0
    4.8620    1.1925   -0.7058 C   0  0  0  0  0  0  0  0  0  0  0  0
    4.3884    0.3133   -1.8729 C   0  0  0  0  0  0  0  0  0  0  0  0
    4.1653   -0.8808   -1.8450 O   0  0  0  0  0  0  0  0  0  0  0  0
    4.3380    0.9797   -3.0557 O   0  0  0  0  0  0  0  0  0  0  0  0
    5.3070    1.4276    1.6997 C   0  0  0  0  0  0  0  0  0  0  0  0
    6.8299    1.2160    1.5462 C   0  0  0  0  0  0  0  0  0  0  0  0
    7.3737    0.5021    0.7163 O   0  0  0  0  0  0  0  0  0  0  0  0
    7.5812    1.9440    2.4089 O   0  0  0  0  0  0  0  0  0  0  0  0
    0.5015    0.0093   -0.7271 H   0  0  0  0  0  0  0  0  0  0  0  0
    2.8642    0.5633    2.0192 H   0  0  0  0  0  0  0  0  0  0  0  0
    2.7579    1.9107    0.8718 H   0  0  0  0  0  0  0  0  0  0  0  0
    5.9436    1.1868   -0.8506 H   0  0  0  0  0  0  0  0  0  0  0  0
    4.5307    2.2300   -0.8290 H   0  0  0  0  0  0  0  0  0  0  0  0
    5.0260    1.6644   -3.1320 H   0  0  0  0  0  0  0  0  0  0  0  0
    5.0408    1.0581    2.6993 H   0  0  0  0  0  0  0  0  0  0  0  0
    5.0921    2.5043    1.6614 H   0  0  0  0  0  0  0  0  0  0  0  0
    7.1048    2.4650    3.0787 H   0  0  0  0  0  0  0  0  0  0  0  0
  1  2  1  0  0  0  0
  1 14  1  0  0  0  0
  2  3  2  0  0  0  0
  2  4  1  0  0  0  0
  4  5  1  0  0  0  0
  4 15  1  0  0  0  0
  4 16  1  0  0  0  0
  5  6  1  0  0  0  0
  5 10  1  0  0  0  0
  6  7  1  0  0  0  0
  6 17  1  0  0  0  0
  6 18  1  0  0  0  0
  7  8  2  0  0  0  0
  7  9  1  0  0  0  0
  9 19  1  0  0  0  0
 10 11  1  0  0  0  0
 10 20  1  0  0  0  0
 10 21  1  0  0  0  0
 11 12  2  0  0  0  0
 11 13  1  0  0  0  0
 13 22  1  0  0  0  0
M  END
$$$$
