NTM
 OpenBabel04121316163D

 17 17  0  0  0  0  0  0  0  0999 V2000
    0.9666    0.0826   -0.1176 O   0  0  0  0  0  0  0  0  0  0  0  0
    2.3183    0.0100   -0.1659 C   0  0  0  0  0  0  0  0  0  0  0  0
    2.9168   -0.6469   -0.9862 O   0  0  0  0  0  0  0  0  0  0  0  0
    2.9883    0.5524    1.0402 C   0  0  0  0  0  0  0  0  0  0  0  0
    2.9020    1.9089    1.1779 N   0  0  0  0  0  0  0  0  0  0  0  0
    3.3946    2.4321    2.3233 C   0  0  0  0  0  0  0  0  0  0  0  0
    3.7968    1.6618    3.3967 C   0  0  0  0  0  0  0  0  0  0  0  0
    3.9458    0.2929    3.1922 C   0  0  0  0  0  0  0  0  0  0  0  0
    3.5976   -0.2930    1.9608 C   0  0  0  0  0  0  0  0  0  0  0  0
    3.9180   -1.7385    1.8003 C   0  0  0  0  0  0  0  0  0  0  0  0
    4.4616   -2.3412    2.7184 O   0  0  0  0  0  0  0  0  0  0  0  0
    3.6371   -2.3756    0.6537 O   0  0  0  0  0  0  0  0  0  0  0  0
    0.6223    0.8679    0.3498 H   0  0  0  0  0  0  0  0  0  0  0  0
    3.4755    3.5163    2.3602 H   0  0  0  0  0  0  0  0  0  0  0  0
    4.0279    2.1124    4.3574 H   0  0  0  0  0  0  0  0  0  0  0  0
    4.3606   -0.3152    3.9974 H   0  0  0  0  0  0  0  0  0  0  0  0
    3.3739   -1.8798   -0.1569 H   0  0  0  0  0  0  0  0  0  0  0  0
  1  2  1  0  0  0  0
  1 13  1  0  0  0  0
  2  3  2  0  0  0  0
  2  4  1  0  0  0  0
  4  5  2  0  0  0  0
  4  9  1  0  0  0  0
  5  6  1  0  0  0  0
  6  7  2  0  0  0  0
  6 14  1  0  0  0  0
  7  8  1  0  0  0  0
  7 15  1  0  0  0  0
  8  9  2  0  0  0  0
  8 16  1  0  0  0  0
  9 10  1  0  0  0  0
 10 11  2  0  0  0  0
 10 12  1  0  0  0  0
 12 17  1  0  0  0  0
M  END
$$$$
