NTP
 OpenBabel04121316163D

160164  0  0  1  0  0  0  0  0999 V2000
   -4.0254   -8.0343   -7.5976 C   0  0  0  0  0  0  0  0  0  0  0  0
   -4.5027   -7.1320   -6.6261 O   0  0  0  0  0  0  0  0  0  0  0  0
   -5.3046   -7.5460   -5.5218 C   0  0  2  0  0  0  0  0  0  0  0  0
   -5.4867   -6.6300   -4.9348 H   0  0  0  0  0  0  0  0  0  0  0  0
   -4.4899   -8.4468   -4.6867 C   0  0  1  0  0  0  0  0  0  0  0  0
   -4.2345   -9.3535   -5.2351 H   0  0  0  0  0  0  0  0  0  0  0  0
   -3.3154   -7.7060   -4.3058 O   0  0  0  0  0  0  0  0  0  0  0  0
   -2.3630   -7.3119   -5.2703 C   0  0  0  0  0  0  0  0  0  0  0  0
   -5.3534   -8.8329   -3.4661 C   0  0  2  0  0  0  0  0  0  0  0  0
   -5.6080   -7.9577   -2.8568 H   0  0  0  0  0  0  0  0  0  0  0  0
   -4.5963   -9.7143   -2.6587 O   0  0  0  0  0  0  0  0  0  0  0  0
   -3.5046   -8.9802   -2.1107 C   0  0  2  0  0  0  0  0  0  0  0  0
   -3.4620   -7.9544   -2.4345 H   0  0  0  0  0  0  0  0  0  0  0  0
   -2.1957   -9.6402   -2.4357 C   0  0  1  0  0  0  0  0  0  0  0  0
   -2.5171  -10.6044   -2.0866 H   0  0  0  0  0  0  0  0  0  0  0  0
   -1.7644  -10.1473   -3.8349 C   0  0  0  0  0  0  0  0  0  0  0  0
   -2.7290  -10.9687   -4.4958 O   0  0  0  0  0  0  0  0  0  0  0  0
   -2.3535  -11.4857   -5.9950 S   0  0  0  0  0  0  0  0  0  0  0  0
   -2.2591  -10.3339   -6.8522 O   0  0  0  0  0  0  0  0  0  0  0  0
   -1.2499  -12.4078   -5.9171 O   0  0  0  0  0  0  0  0  0  0  0  0
   -3.6754  -12.2799   -6.4683 O   0  0  0  0  0  0  0  0  0  0  0  0
   -1.0690   -8.9926   -1.7781 O   0  0  0  0  0  0  0  0  0  0  0  0
   -1.1336   -8.5216   -0.3881 C   0  0  1  0  0  0  0  0  0  0  0  0
   -0.3686   -7.7318   -0.3161 H   0  0  0  0  0  0  0  0  0  0  0  0
   -2.5725   -7.7915   -0.1888 C   0  0  1  0  0  0  0  0  0  0  0  0
   -2.5510   -6.9159   -0.8602 H   0  0  0  0  0  0  0  0  0  0  0  0
   -3.7036   -8.7740   -0.6255 C   0  0  1  0  0  0  0  0  0  0  0  0
   -3.6401   -9.7179   -0.1041 H   0  0  0  0  0  0  0  0  0  0  0  0
   -5.0550   -8.3053   -0.4479 O   0  0  0  0  0  0  0  0  0  0  0  0
   -5.8775   -8.8656    0.8583 S   0  0  0  0  0  0  0  0  0  0  0  0
   -6.4998  -10.1121    0.4902 O   0  0  0  0  0  0  0  0  0  0  0  0
   -4.9872   -8.7678    1.9933 O   0  0  0  0  0  0  0  0  0  0  0  0
   -7.0819   -7.8085    1.0939 O   0  0  0  0  0  0  0  0  0  0  0  0
   -2.8331   -7.2925    1.1211 O   0  0  0  0  0  0  0  0  0  0  0  0
   -3.8467   -6.0030    1.2891 S   0  0  0  0  0  0  0  0  0  0  0  0
   -3.0935   -4.8123    0.9862 O   0  0  0  0  0  0  0  0  0  0  0  0
   -5.1049   -6.1917    0.6037 O   0  0  0  0  0  0  0  0  0  0  0  0
   -4.1776   -5.9902    2.8623 O   0  0  0  0  0  0  0  0  0  0  0  0
   -0.8676   -9.4411    0.7922 O   0  0  0  0  0  0  0  0  0  0  0  0
    0.1512  -10.5190    1.0262 C   0  0  2  0  0  0  0  0  0  0  0  0
    0.2395  -11.1588    0.1785 H   0  0  0  0  0  0  0  0  0  0  0  0
   -0.1488  -11.6449    2.2023 C   0  0  1  0  0  0  0  0  0  0  0  0
   -1.0601  -12.2826    2.1643 H   0  0  0  0  0  0  0  0  0  0  0  0
    0.7988  -12.6779    2.1946 O   0  0  0  0  0  0  0  0  0  0  0  0
    2.1303  -12.2921    2.0386 C   0  0  2  0  0  0  0  0  0  0  0  0
    2.4522  -11.9433    3.0077 H   0  0  0  0  0  0  0  0  0  0  0  0
    2.5293  -11.2040    1.0255 C   0  0  1  0  0  0  0  0  0  0  0  0
    2.4895  -11.8173    0.1333 H   0  0  0  0  0  0  0  0  0  0  0  0
    1.5353  -10.0193    0.9442 C   0  0  1  0  0  0  0  0  0  0  0  0
    1.6413   -9.2906    1.7519 H   0  0  0  0  0  0  0  0  0  0  0  0
    1.5526   -9.3771   -0.3984 O   0  0  0  0  0  0  0  0  0  0  0  0
    1.7907  -10.3256   -1.4400 C   0  0  0  0  0  0  0  0  0  0  0  0
    3.8957  -10.7134    1.1052 O   0  0  0  0  0  0  0  0  0  0  0  0
    4.4927   -9.6478   -0.0308 S   0  0  0  0  0  0  0  0  0  0  0  0
    4.7438  -10.3868   -1.2547 O   0  0  0  0  0  0  0  0  0  0  0  0
    3.7632   -8.4048   -0.0027 O   0  0  0  0  0  0  0  0  0  0  0  0
    5.9484   -9.2981    0.5087 O   0  0  0  0  0  0  0  0  0  0  0  0
    2.7312  -13.5256    1.7750 O   0  0  0  0  0  0  0  0  0  0  0  0
    2.6479  -14.1302    0.4875 C   0  0  2  0  0  0  0  0  0  0  0  0
    3.1446  -13.5067   -0.2667 H   0  0  0  0  0  0  0  0  0  0  0  0
    1.2712  -14.6529   -0.0810 C   0  0  1  0  0  0  0  0  0  0  0  0
    0.8123  -15.3156    0.6576 H   0  0  0  0  0  0  0  0  0  0  0  0
    0.1251  -13.6833   -0.6021 C   0  0  0  0  0  0  0  0  0  0  0  0
   -0.8731  -13.1854    0.3330 O   0  0  0  0  0  0  0  0  0  0  0  0
   -1.9556  -12.0175   -0.1167 S   0  0  0  0  0  0  0  0  0  0  0  0
   -1.1875  -11.3086   -1.0592 O   0  0  0  0  0  0  0  0  0  0  0  0
   -3.2562  -12.5948   -0.4785 O   0  0  0  0  0  0  0  0  0  0  0  0
   -2.3590  -11.0703    1.1880 O   0  0  0  0  0  0  0  0  0  0  0  0
    1.6099  -15.3710   -1.3046 O   0  0  0  0  0  0  0  0  0  0  0  0
    2.5173  -16.4721   -1.1500 C   0  0  1  0  0  0  0  0  0  0  0  0
    2.5790  -16.9407   -2.1408 H   0  0  0  0  0  0  0  0  0  0  0  0
    3.9238  -15.9492   -0.6744 C   0  0  1  0  0  0  0  0  0  0  0  0
    4.2719  -15.2271   -1.4247 H   0  0  0  0  0  0  0  0  0  0  0  0
    3.6449  -15.2911    0.6843 C   0  0  1  0  0  0  0  0  0  0  0  0
    3.2172  -16.0351    1.3632 H   0  0  0  0  0  0  0  0  0  0  0  0
    4.8107  -14.7306    1.3310 O   0  0  0  0  0  0  0  0  0  0  0  0
    5.0804  -15.1920    2.9001 S   0  0  0  0  0  0  0  0  0  0  0  0
    4.2760  -14.3643    3.7701 O   0  0  0  0  0  0  0  0  0  0  0  0
    4.9978  -16.6369    2.9657 O   0  0  0  0  0  0  0  0  0  0  0  0
    6.6089  -14.7497    3.1963 O   0  0  0  0  0  0  0  0  0  0  0  0
    4.9040  -16.9910   -0.5718 O   0  0  0  0  0  0  0  0  0  0  0  0
    6.4820  -16.6609   -0.3162 S   0  0  0  0  0  0  0  0  0  0  0  0
    6.9867  -16.0004   -1.4938 O   0  0  0  0  0  0  0  0  0  0  0  0
    6.7170  -16.0869    0.9745 O   0  0  0  0  0  0  0  0  0  0  0  0
    7.1496  -18.1151   -0.2027 O   0  0  0  0  0  0  0  0  0  0  0  0
    1.9152  -17.4024   -0.2518 O   0  0  0  0  0  0  0  0  0  0  0  0
    2.6515  -18.6073   -0.1365 C   0  0  0  0  0  0  0  0  0  0  0  0
   -0.4505  -11.0000    3.5091 C   0  0  0  0  0  0  0  0  0  0  0  0
   -1.4060  -10.2699    3.6996 O   0  0  0  0  0  0  0  0  0  0  0  0
    0.4776  -11.3320    4.4175 O   0  0  0  0  0  0  0  0  0  0  0  0
   -6.5646   -9.4553   -3.8630 O   0  0  0  0  0  0  0  0  0  0  0  0
   -7.4041   -8.5710   -4.6133 C   0  0  1  0  0  0  0  0  0  0  0  0
   -7.6841   -7.7192   -3.9749 H   0  0  0  0  0  0  0  0  0  0  0  0
   -6.6614   -8.1357   -5.8920 C   0  0  1  0  0  0  0  0  0  0  0  0
   -6.5112   -9.0171   -6.5222 H   0  0  0  0  0  0  0  0  0  0  0  0
   -7.4400   -7.1750   -6.6247 O   0  0  0  0  0  0  0  0  0  0  0  0
   -6.6409   -6.4334   -7.5703 C   0  0  1  0  0  0  0  0  0  0  0  0
   -5.9076   -5.8575   -7.0270 H   0  0  0  0  0  0  0  0  0  0  0  0
   -6.0157   -7.1788   -8.5938 O   0  0  0  0  0  0  0  0  0  0  0  0
   -6.8548   -8.0405   -9.3121 C   0  0  2  0  0  0  0  0  0  0  0  0
   -7.3905   -8.6575   -8.5802 H   0  0  0  0  0  0  0  0  0  0  0  0
   -6.0381   -8.9906  -10.2481 C   0  0  0  0  0  0  0  0  0  0  0  0
   -6.8344   -9.6509  -11.2201 O   0  0  0  0  0  0  0  0  0  0  0  0
   -6.1855  -10.7865  -12.1611 S   0  0  0  0  0  0  0  0  0  0  0  0
   -5.3921  -10.1010  -13.1526 O   0  0  0  0  0  0  0  0  0  0  0  0
   -5.6480  -11.8180  -11.3052 O   0  0  0  0  0  0  0  0  0  0  0  0
   -7.4738  -11.3981  -12.9184 O   0  0  0  0  0  0  0  0  0  0  0  0
   -7.7950   -7.1258  -10.0605 C   0  0  2  0  0  0  0  0  0  0  0  0
   -7.1822   -6.5481  -10.7736 H   0  0  0  0  0  0  0  0  0  0  0  0
   -8.4579   -6.0922   -9.0805 C   0  0  1  0  0  0  0  0  0  0  0  0
   -9.1626   -6.6410   -8.4446 H   0  0  0  0  0  0  0  0  0  0  0  0
   -7.4105   -5.3589   -8.2231 C   0  0  1  0  0  0  0  0  0  0  0  0
   -6.7456   -4.7922   -8.8870 H   0  0  0  0  0  0  0  0  0  0  0  0
   -7.8607   -4.5161   -7.1481 O   0  0  0  0  0  0  0  0  0  0  0  0
   -6.8109   -3.3593   -6.6523 S   0  0  0  0  0  0  0  0  0  0  0  0
   -5.8218   -3.9836   -5.8030 O   0  0  0  0  0  0  0  0  0  0  0  0
   -6.4516   -2.5599   -7.7970 O   0  0  0  0  0  0  0  0  0  0  0  0
   -7.7197   -2.4691   -5.6720 O   0  0  0  0  0  0  0  0  0  0  0  0
   -9.1758   -5.1348   -9.8541 O   0  0  0  0  0  0  0  0  0  0  0  0
   -9.9057   -4.2494   -9.0234 C   0  0  0  0  0  0  0  0  0  0  0  0
   -8.7502   -7.8989  -10.7902 O   0  0  0  0  0  0  0  0  0  0  0  0
   -9.2146   -9.0753  -10.1197 C   0  0  0  0  0  0  0  0  0  0  0  0
   -8.6979   -9.3071   -4.9822 C   0  0  0  0  0  0  0  0  0  0  0  0
   -8.9439  -10.4680   -4.6900 O   0  0  0  0  0  0  0  0  0  0  0  0
   -9.5912   -8.5586   -5.6766 O   0  0  0  0  0  0  0  0  0  0  0  0
   -3.5147   -7.4408   -8.3610 H   0  0  0  0  0  0  0  0  0  0  0  0
   -4.7810   -8.6867   -8.0100 H   0  0  0  0  0  0  0  0  0  0  0  0
   -3.3478   -8.7217   -7.1818 H   0  0  0  0  0  0  0  0  0  0  0  0
   -1.4532   -7.0073   -4.7612 H   0  0  0  0  0  0  0  0  0  0  0  0
   -2.6950   -6.4475   -5.8376 H   0  0  0  0  0  0  0  0  0  0  0  0
   -2.1011   -8.1453   -5.9116 H   0  0  0  0  0  0  0  0  0  0  0  0
   -0.8443  -10.7373   -3.7421 H   0  0  0  0  0  0  0  0  0  0  0  0
   -1.4816   -9.3147   -4.4548 H   0  0  0  0  0  0  0  0  0  0  0  0
   -4.4605  -11.6995   -6.4762 H   0  0  0  0  0  0  0  0  0  0  0  0
   -7.3354   -7.3627    0.2658 H   0  0  0  0  0  0  0  0  0  0  0  0
   -3.3766   -5.7952    3.3794 H   0  0  0  0  0  0  0  0  0  0  0  0
    2.4134  -10.3164   -2.3417 H   0  0  0  0  0  0  0  0  0  0  0  0
    1.2207  -11.2329   -1.3754 H   0  0  0  0  0  0  0  0  0  0  0  0
    2.6855  -10.6192   -1.0014 H   0  0  0  0  0  0  0  0  0  0  0  0
    6.5072  -10.0592    0.2780 H   0  0  0  0  0  0  0  0  0  0  0  0
   -0.4980  -14.2649   -1.2793 H   0  0  0  0  0  0  0  0  0  0  0  0
    0.6167  -12.9589   -1.2642 H   0  0  0  0  0  0  0  0  0  0  0  0
   -1.8438  -10.2386    1.4443 H   0  0  0  0  0  0  0  0  0  0  0  0
    6.7592  -13.8253    2.9335 H   0  0  0  0  0  0  0  0  0  0  0  0
    7.2665  -18.5266   -1.0703 H   0  0  0  0  0  0  0  0  0  0  0  0
    2.1248  -19.2895    0.5290 H   0  0  0  0  0  0  0  0  0  0  0  0
    3.6090  -18.4229    0.3449 H   0  0  0  0  0  0  0  0  0  0  0  0
    2.7905  -19.0616   -1.1211 H   0  0  0  0  0  0  0  0  0  0  0  0
    0.8864  -12.1788    4.1253 H   0  0  0  0  0  0  0  0  0  0  0  0
   -5.5514   -9.7551   -9.6303 H   0  0  0  0  0  0  0  0  0  0  0  0
   -5.2663   -8.4185  -10.7641 H   0  0  0  0  0  0  0  0  0  0  0  0
   -7.8884  -10.7177  -13.4853 H   0  0  0  0  0  0  0  0  0  0  0  0
   -7.9001   -2.9760   -4.8567 H   0  0  0  0  0  0  0  0  0  0  0  0
  -10.4955   -3.5928   -9.6520 H   0  0  0  0  0  0  0  0  0  0  0  0
   -9.2378   -3.5923   -8.4695 H   0  0  0  0  0  0  0  0  0  0  0  0
  -10.5370   -4.8190   -8.3345 H   0  0  0  0  0  0  0  0  0  0  0  0
   -9.8691   -9.6098  -10.8007 H   0  0  0  0  0  0  0  0  0  0  0  0
   -9.6734   -8.8204   -9.1674 H   0  0  0  0  0  0  0  0  0  0  0  0
   -8.4350   -9.8054   -9.8725 H   0  0  0  0  0  0  0  0  0  0  0  0
   -9.2820   -7.6596   -5.9100 H   0  0  0  0  0  0  0  0  0  0  0  0
  1  2  1  0  0  0  0
  1126  1  0  0  0  0
  1127  1  0  0  0  0
  1128  1  0  0  0  0
  3  5  1  0  0  0  0
  3 94  1  0  0  0  0
  3  4  1  1  0  0  0
  3  2  1  0  0  0  0
  5  6  1  6  0  0  0
  5  7  1  0  0  0  0
  5  9  1  0  0  0  0
  7  8  1  0  0  0  0
  8129  1  0  0  0  0
  8130  1  0  0  0  0
  8131  1  0  0  0  0
  9 10  1  1  0  0  0
  9 11  1  0  0  0  0
  9 91  1  0  0  0  0
 12 14  1  0  0  0  0
 12 27  1  0  0  0  0
 12 13  1  6  0  0  0
 12 11  1  0  0  0  0
 14 15  1  1  0  0  0
 14 16  1  0  0  0  0
 14 22  1  0  0  0  0
 16 17  1  0  0  0  0
 16132  1  0  0  0  0
 16133  1  0  0  0  0
 17 18  1  0  0  0  0
 18 19  2  0  0  0  0
 18 20  2  0  0  0  0
 18 21  1  0  0  0  0
 21134  1  0  0  0  0
 22 23  1  0  0  0  0
 23 24  1  1  0  0  0
 23 25  1  0  0  0  0
 23 39  1  0  0  0  0
 25 26  1  6  0  0  0
 25 27  1  0  0  0  0
 25 34  1  0  0  0  0
 27 29  1  0  0  0  0
 27 28  1  1  0  0  0
 29 30  1  0  0  0  0
 30 31  2  0  0  0  0
 30 32  2  0  0  0  0
 30 33  1  0  0  0  0
 33135  1  0  0  0  0
 34 35  1  0  0  0  0
 35 36  2  0  0  0  0
 35 37  2  0  0  0  0
 35 38  1  0  0  0  0
 38136  1  0  0  0  0
 40 42  1  0  0  0  0
 40 49  1  0  0  0  0
 40 41  1  6  0  0  0
 40 39  1  0  0  0  0
 42 44  1  0  0  0  0
 42 88  1  0  0  0  0
 42 43  1  6  0  0  0
 44 45  1  0  0  0  0
 45 47  1  0  0  0  0
 45 58  1  0  0  0  0
 45 46  1  1  0  0  0
 47 48  1  6  0  0  0
 47 49  1  0  0  0  0
 47 53  1  0  0  0  0
 49 51  1  0  0  0  0
 49 50  1  1  0  0  0
 51 52  1  0  0  0  0
 52137  1  0  0  0  0
 52138  1  0  0  0  0
 52139  1  0  0  0  0
 53 54  1  0  0  0  0
 54 55  2  0  0  0  0
 54 56  2  0  0  0  0
 54 57  1  0  0  0  0
 57140  1  0  0  0  0
 59 61  1  0  0  0  0
 59 74  1  0  0  0  0
 59 60  1  6  0  0  0
 59 58  1  0  0  0  0
 61 62  1  1  0  0  0
 61 63  1  0  0  0  0
 61 69  1  0  0  0  0
 63 64  1  0  0  0  0
 63141  1  0  0  0  0
 63142  1  0  0  0  0
 64 65  1  0  0  0  0
 65 66  2  0  0  0  0
 65 67  2  0  0  0  0
 65 68  1  0  0  0  0
 68143  1  0  0  0  0
 69 70  1  0  0  0  0
 70 71  1  6  0  0  0
 70 72  1  0  0  0  0
 70 86  1  0  0  0  0
 72 73  1  6  0  0  0
 72 74  1  0  0  0  0
 72 81  1  0  0  0  0
 74 76  1  0  0  0  0
 74 75  1  1  0  0  0
 76 77  1  0  0  0  0
 77 78  2  0  0  0  0
 77 79  2  0  0  0  0
 77 80  1  0  0  0  0
 80144  1  0  0  0  0
 81 82  1  0  0  0  0
 82 83  2  0  0  0  0
 82 84  2  0  0  0  0
 82 85  1  0  0  0  0
 85145  1  0  0  0  0
 86 87  1  0  0  0  0
 87146  1  0  0  0  0
 87147  1  0  0  0  0
 87148  1  0  0  0  0
 88 89  2  0  0  0  0
 88 90  1  0  0  0  0
 90149  1  0  0  0  0
 91 92  1  0  0  0  0
 92 93  1  1  0  0  0
 92 94  1  0  0  0  0
 92123  1  0  0  0  0
 94 96  1  0  0  0  0
 94 95  1  6  0  0  0
 96 97  1  0  0  0  0
 97 98  1  1  0  0  0
 97 99  1  0  0  0  0
 97112  1  0  0  0  0
 99100  1  0  0  0  0
100101  1  1  0  0  0
100102  1  0  0  0  0
100108  1  0  0  0  0
102103  1  0  0  0  0
102150  1  0  0  0  0
102151  1  0  0  0  0
103104  1  0  0  0  0
104105  2  0  0  0  0
104106  2  0  0  0  0
104107  1  0  0  0  0
107152  1  0  0  0  0
108110  1  0  0  0  0
108121  1  0  0  0  0
108109  1  6  0  0  0
110111  1  1  0  0  0
110112  1  0  0  0  0
110119  1  0  0  0  0
112114  1  0  0  0  0
112113  1  6  0  0  0
114115  1  0  0  0  0
115116  2  0  0  0  0
115117  2  0  0  0  0
115118  1  0  0  0  0
118153  1  0  0  0  0
119120  1  0  0  0  0
120154  1  0  0  0  0
120155  1  0  0  0  0
120156  1  0  0  0  0
121122  1  0  0  0  0
122157  1  0  0  0  0
122158  1  0  0  0  0
122159  1  0  0  0  0
123124  2  0  0  0  0
123125  1  0  0  0  0
125160  1  0  0  0  0
M  END
$$$$
