NU5
 OpenBabel04121316163D

 66 69  0  0  0  0  0  0  0  0999 V2000
    1.0528    0.0582   -0.0295 O   0  0  0  0  0  0  0  0  0  0  0  0
    2.4724    0.0659   -0.0468 C   0  0  0  0  0  0  0  0  0  0  0  0
    2.9884    0.0877    1.3843 C   0  0  0  0  0  0  0  0  0  0  0  0
    4.5118    0.0880    1.4007 C   0  0  0  0  0  0  0  0  0  0  0  0
    5.0042    0.1060    2.7806 N   0  0  0  0  0  0  0  0  0  0  0  0
    6.4703    0.1109    2.7841 C   0  0  0  0  0  0  0  0  0  0  0  0
    7.0140    0.1551    4.2027 C   0  0  0  0  0  0  0  0  0  0  0  0
    8.7899    0.1993    4.1207 S   0  0  0  0  0  0  0  0  0  0  0  0
    9.2335   -1.0830    3.5837 O   0  0  0  0  0  0  0  0  0  0  0  0
    9.2128    1.4365    3.5100 O   0  0  0  0  0  0  0  0  0  0  0  0
    9.3048    0.2556    5.8078 C   0  0  0  0  0  0  0  0  0  0  0  0
    9.5488    1.4619    6.4769 C   0  0  0  0  0  0  0  0  0  0  0  0
   10.2108    1.4584    7.7226 C   0  0  0  0  0  0  0  0  0  0  0  0
   10.5201    0.2500    8.3486 C   0  0  0  0  0  0  0  0  0  0  0  0
   10.0675   -0.9153    7.7028 C   0  0  0  0  0  0  0  0  0  0  0  0
    9.5750   -0.9429    6.4191 C   0  0  0  0  0  0  0  0  0  0  0  0
   11.2472    0.1843    9.5537 N   0  0  0  0  0  0  0  0  0  0  0  0
   11.6482   -0.9783   10.2319 C   0  0  0  0  0  0  0  0  0  0  0  0
   12.1597   -0.8854   11.4669 N   0  0  0  0  0  0  0  0  0  0  0  0
   12.3458   -2.0430   12.1649 C   0  0  0  0  0  0  0  0  0  0  0  0
   12.6742   -1.9955   13.4808 O   0  0  0  0  0  0  0  0  0  0  0  0
   13.2945   -0.8173   13.9575 C   0  0  0  0  0  0  0  0  0  0  0  0
   13.9820   -1.1778   15.2991 C   0  0  0  0  0  0  0  0  0  0  0  0
   13.9518   -2.6929   15.6115 C   0  0  0  0  0  0  0  0  0  0  0  0
   14.8130   -3.4947   14.6275 C   0  0  0  0  0  0  0  0  0  0  0  0
   16.2465   -2.9863   14.6231 C   0  0  0  0  0  0  0  0  0  0  0  0
   16.3110   -1.4848   14.3433 C   0  0  0  0  0  0  0  0  0  0  0  0
   15.4410   -0.6947   15.3253 C   0  0  0  0  0  0  0  0  0  0  0  0
   12.0160   -3.2876   11.6233 C   0  0  0  0  0  0  0  0  0  0  0  0
   11.5375   -3.2283   10.3491 C   0  0  0  0  0  0  0  0  0  0  0  0
   11.4032   -2.1407    9.6237 N   0  0  0  0  0  0  0  0  0  0  0  0
   11.1731   -4.4895    9.9994 N   0  0  0  0  0  0  0  0  0  0  0  0
   10.7238   -4.7554    9.1343 H   0  0  0  0  0  0  0  0  0  0  0  0
   11.5077   -5.2954   11.0502 C   0  0  0  0  0  0  0  0  0  0  0  0
   12.0153   -4.6023   12.0526 N   0  0  0  0  0  0  0  0  0  0  0  0
    0.7563    0.0555   -0.9557 H   0  0  0  0  0  0  0  0  0  0  0  0
    2.8122    0.9497   -0.5964 H   0  0  0  0  0  0  0  0  0  0  0  0
    2.8182   -0.8317   -0.5698 H   0  0  0  0  0  0  0  0  0  0  0  0
    2.5950   -0.7807    1.9280 H   0  0  0  0  0  0  0  0  0  0  0  0
    2.5966    0.9725    1.9021 H   0  0  0  0  0  0  0  0  0  0  0  0
    4.8797    0.9695    0.8616 H   0  0  0  0  0  0  0  0  0  0  0  0
    4.8826   -0.8047    0.8818 H   0  0  0  0  0  0  0  0  0  0  0  0
    4.6518   -0.7170    3.2709 H   0  0  0  0  0  0  0  0  0  0  0  0
    6.8354    0.9853    2.2319 H   0  0  0  0  0  0  0  0  0  0  0  0
    6.8465   -0.7821    2.2688 H   0  0  0  0  0  0  0  0  0  0  0  0
    6.7147   -0.7360    4.7659 H   0  0  0  0  0  0  0  0  0  0  0  0
    6.6803    1.0508    4.7344 H   0  0  0  0  0  0  0  0  0  0  0  0
    9.2613    2.4058    6.0225 H   0  0  0  0  0  0  0  0  0  0  0  0
   10.4809    2.4078    8.1795 H   0  0  0  0  0  0  0  0  0  0  0  0
   10.0928   -1.8932    8.1523 H   0  0  0  0  0  0  0  0  0  0  0  0
    9.4342   -1.9085    5.9411 H   0  0  0  0  0  0  0  0  0  0  0  0
   11.5698    1.0314    9.9963 H   0  0  0  0  0  0  0  0  0  0  0  0
   12.5083   -0.0754   14.1287 H   0  0  0  0  0  0  0  0  0  0  0  0
   14.0069   -0.3924   13.2389 H   0  0  0  0  0  0  0  0  0  0  0  0
   13.4370   -0.6523   16.0948 H   0  0  0  0  0  0  0  0  0  0  0  0
   12.9199   -3.0665   15.6069 H   0  0  0  0  0  0  0  0  0  0  0  0
   14.3251   -2.8618   16.6292 H   0  0  0  0  0  0  0  0  0  0  0  0
   14.4405   -3.4234   13.6019 H   0  0  0  0  0  0  0  0  0  0  0  0
   14.7722   -4.5592   14.8774 H   0  0  0  0  0  0  0  0  0  0  0  0
   16.8167   -3.5276   13.8610 H   0  0  0  0  0  0  0  0  0  0  0  0
   16.7032   -3.2003   15.5951 H   0  0  0  0  0  0  0  0  0  0  0  0
   15.9821   -1.2950   13.3145 H   0  0  0  0  0  0  0  0  0  0  0  0
   17.3482   -1.1407   14.4027 H   0  0  0  0  0  0  0  0  0  0  0  0
   15.4916    0.3768   15.1012 H   0  0  0  0  0  0  0  0  0  0  0  0
   15.8447   -0.8235   16.3387 H   0  0  0  0  0  0  0  0  0  0  0  0
   11.3498   -6.3654   11.0226 H   0  0  0  0  0  0  0  0  0  0  0  0
  1  2  1  0  0  0  0
  1 36  1  0  0  0  0
  2  3  1  0  0  0  0
  2 37  1  0  0  0  0
  2 38  1  0  0  0  0
  3  4  1  0  0  0  0
  3 39  1  0  0  0  0
  3 40  1  0  0  0  0
  4  5  1  0  0  0  0
  4 41  1  0  0  0  0
  4 42  1  0  0  0  0
  5  6  1  0  0  0  0
  5 43  1  0  0  0  0
  6  7  1  0  0  0  0
  6 44  1  0  0  0  0
  6 45  1  0  0  0  0
  7  8  1  0  0  0  0
  7 46  1  0  0  0  0
  7 47  1  0  0  0  0
  8  9  2  0  0  0  0
  8 10  2  0  0  0  0
  8 11  1  0  0  0  0
 11 12  2  0  0  0  0
 11 16  1  0  0  0  0
 12 13  1  0  0  0  0
 12 48  1  0  0  0  0
 13 14  2  0  0  0  0
 13 49  1  0  0  0  0
 14 15  1  0  0  0  0
 14 17  1  0  0  0  0
 15 16  2  0  0  0  0
 15 50  1  0  0  0  0
 16 51  1  0  0  0  0
 17 18  1  0  0  0  0
 17 52  1  0  0  0  0
 18 19  2  0  0  0  0
 18 31  1  0  0  0  0
 19 20  1  0  0  0  0
 20 21  1  0  0  0  0
 20 29  2  0  0  0  0
 21 22  1  0  0  0  0
 22 23  1  0  0  0  0
 22 53  1  0  0  0  0
 22 54  1  0  0  0  0
 23 24  1  0  0  0  0
 23 28  1  0  0  0  0
 23 55  1  0  0  0  0
 24 25  1  0  0  0  0
 24 56  1  0  0  0  0
 24 57  1  0  0  0  0
 25 26  1  0  0  0  0
 25 58  1  0  0  0  0
 25 59  1  0  0  0  0
 26 27  1  0  0  0  0
 26 60  1  0  0  0  0
 26 61  1  0  0  0  0
 27 28  1  0  0  0  0
 27 62  1  0  0  0  0
 27 63  1  0  0  0  0
 28 64  1  0  0  0  0
 28 65  1  0  0  0  0
 29 30  1  0  0  0  0
 29 35  1  0  0  0  0
 30 31  2  0  0  0  0
 30 32  1  0  0  0  0
 32 33  1  0  0  0  0
 32 34  1  0  0  0  0
 34 35  2  0  0  0  0
 34 66  1  0  0  0  0
M  END
$$$$
