NVC
 OpenBabel04121316163D

 51 53  0  0  1  0  0  0  0  0999 V2000
    1.0718   -0.0968   -0.1460 C   0  0  0  0  0  0  0  0  0  0  0  0
    2.5972   -0.0881   -0.1491 C   0  0  0  0  0  0  0  0  0  0  0  0
    3.1472    0.9195    0.8301 C   0  0  0  0  0  0  0  0  0  0  0  0
    4.6523    0.9228    1.0000 C   0  0  0  0  0  0  0  0  0  0  0  0
    5.0505    1.8860    2.1390 C   0  0  1  0  0  0  0  0  0  0  0  0
    4.6345    2.8669    1.8894 H   0  0  0  0  0  0  0  0  0  0  0  0
    4.5278    1.4002    3.5326 C   0  0  0  0  0  0  0  0  0  0  0  0
    5.2786    0.8190    4.3194 O   0  0  0  0  0  0  0  0  0  0  0  0
    3.1672    1.4513    3.7603 N   0  0  0  0  0  0  0  0  0  0  0  0
    2.3993    0.2625    4.0888 C   0  0  0  0  0  0  0  0  0  0  0  0
    1.0421    0.5665    3.4631 C   0  0  0  0  0  0  0  0  0  0  0  0
    0.8822    2.0823    3.5404 C   0  0  0  0  0  0  0  0  0  0  0  0
    2.3051    2.6425    3.7953 C   0  0  1  0  0  0  0  0  0  0  0  0
    2.6124    3.3740    3.0428 H   0  0  0  0  0  0  0  0  0  0  0  0
    2.3111    3.2197    5.1843 C   0  0  0  0  0  0  0  0  0  0  0  0
    1.8874    2.6148    6.2825 N   0  0  0  0  0  0  0  0  0  0  0  0
    2.0499    3.5554    7.2527 C   0  0  0  0  0  0  0  0  0  0  0  0
    2.5381    4.7296    6.7035 C   0  0  0  0  0  0  0  0  0  0  0  0
    2.6774    4.5326    5.3556 O   0  0  0  0  0  0  0  0  0  0  0  0
    2.8169    5.8751    7.4405 C   0  0  0  0  0  0  0  0  0  0  0  0
    2.5729    5.7849    8.8203 C   0  0  0  0  0  0  0  0  0  0  0  0
    2.0738    4.6127    9.4035 C   0  0  0  0  0  0  0  0  0  0  0  0
    1.8008    3.4827    8.6258 C   0  0  0  0  0  0  0  0  0  0  0  0
    6.5856    1.9980    2.1700 C   0  0  0  0  0  0  0  0  0  0  0  0
    7.0861    2.9980    3.1201 N   0  0  0  0  0  0  0  0  0  0  0  0
    6.3490    3.8548    3.8891 C   0  0  0  0  0  0  0  0  0  0  0  0
    5.1343    4.0591    3.8065 O   0  0  0  0  0  0  0  0  0  0  0  0
    8.4820    3.0607    3.3030 O   0  0  0  0  0  0  0  0  0  0  0  0
    0.6981   -0.7404   -0.9419 H   0  0  0  0  0  0  0  0  0  0  0  0
    0.6670    0.9132   -0.2714 H   0  0  0  0  0  0  0  0  0  0  0  0
    0.6580   -0.5152    0.7749 H   0  0  0  0  0  0  0  0  0  0  0  0
    2.9692    0.1441   -1.1459 H   0  0  0  0  0  0  0  0  0  0  0  0
    2.9531   -1.0837    0.1410 H   0  0  0  0  0  0  0  0  0  0  0  0
    2.7835    0.5620    1.7636 H   0  0  0  0  0  0  0  0  0  0  0  0
    2.7515    1.9309    0.6786 H   0  0  0  0  0  0  0  0  0  0  0  0
    5.1133    1.2233    0.0523 H   0  0  0  0  0  0  0  0  0  0  0  0
    5.0011   -0.0908    1.2347 H   0  0  0  0  0  0  0  0  0  0  0  0
    2.3221    0.1465    5.1704 H   0  0  0  0  0  0  0  0  0  0  0  0
    2.8741   -0.6301    3.6629 H   0  0  0  0  0  0  0  0  0  0  0  0
    0.2133   -0.0161    3.8662 H   0  0  0  0  0  0  0  0  0  0  0  0
    1.0447    0.3276    2.4098 H   0  0  0  0  0  0  0  0  0  0  0  0
    0.1640    2.3199    4.3324 H   0  0  0  0  0  0  0  0  0  0  0  0
    0.4672    2.4830    2.6073 H   0  0  0  0  0  0  0  0  0  0  0  0
    3.2061    6.7742    6.9805 H   0  0  0  0  0  0  0  0  0  0  0  0
    2.7770    6.6444    9.4562 H   0  0  0  0  0  0  0  0  0  0  0  0
    1.8976    4.5711   10.4760 H   0  0  0  0  0  0  0  0  0  0  0  0
    1.4160    2.5679    9.0607 H   0  0  0  0  0  0  0  0  0  0  0  0
    6.9807    2.2688    1.1807 H   0  0  0  0  0  0  0  0  0  0  0  0
    7.0459    1.0320    2.4242 H   0  0  0  0  0  0  0  0  0  0  0  0
    6.9503    4.3940    4.6264 H   0  0  0  0  0  0  0  0  0  0  0  0
    8.8492    2.4325    2.6578 H   0  0  0  0  0  0  0  0  0  0  0  0
  1  2  1  0  0  0  0
  1 29  1  0  0  0  0
  1 30  1  0  0  0  0
  1 31  1  0  0  0  0
  2  3  1  0  0  0  0
  2 32  1  0  0  0  0
  2 33  1  0  0  0  0
  3  4  1  0  0  0  0
  3 34  1  0  0  0  0
  3 35  1  0  0  0  0
  4  5  1  0  0  0  0
  4 36  1  0  0  0  0
  4 37  1  0  0  0  0
  5  6  1  6  0  0  0
  5  7  1  0  0  0  0
  5 24  1  0  0  0  0
  7  8  2  0  0  0  0
  7  9  1  0  0  0  0
  9 10  1  0  0  0  0
  9 13  1  0  0  0  0
 10 11  1  0  0  0  0
 10 38  1  0  0  0  0
 10 39  1  0  0  0  0
 11 12  1  0  0  0  0
 11 40  1  0  0  0  0
 11 41  1  0  0  0  0
 12 13  1  0  0  0  0
 12 42  1  0  0  0  0
 12 43  1  0  0  0  0
 13 15  1  0  0  0  0
 13 14  1  6  0  0  0
 15 16  2  0  0  0  0
 15 19  1  0  0  0  0
 16 17  1  0  0  0  0
 17 18  2  0  0  0  0
 17 23  1  0  0  0  0
 18 19  1  0  0  0  0
 18 20  1  0  0  0  0
 20 21  2  0  0  0  0
 20 44  1  0  0  0  0
 21 22  1  0  0  0  0
 21 45  1  0  0  0  0
 22 23  2  0  0  0  0
 22 46  1  0  0  0  0
 23 47  1  0  0  0  0
 24 25  1  0  0  0  0
 24 48  1  0  0  0  0
 24 49  1  0  0  0  0
 25 26  1  0  0  0  0
 25 28  1  0  0  0  0
 26 27  2  0  0  0  0
 26 50  1  0  0  0  0
 28 51  1  0  0  0  0
M  END
$$$$
