NVP
 OpenBabel04121316163D

 34 37  0  0  0  0  0  0  0  0999 V2000
    1.6366   -0.1321   -0.2095 C   0  0  0  0  0  0  0  0  0  0  0  0
    3.1080    0.3562   -0.4528 C   0  0  0  0  0  0  0  0  0  0  0  0
    3.2815    1.4667    0.2921 C   0  0  0  0  0  0  0  0  0  0  0  0
    4.0307    1.1187    1.4007 C   0  0  0  0  0  0  0  0  0  0  0  0
    4.5001   -0.2276    1.6737 N   0  0  0  0  0  0  0  0  0  0  0  0
    4.4792   -1.1289    0.6324 C   0  0  0  0  0  0  0  0  0  0  0  0
    4.3251   -0.3912   -0.4897 C   0  0  0  0  0  0  0  0  0  0  0  0
    5.6235    0.3817   -0.6254 N   0  0  0  0  0  0  0  0  0  0  0  0
    5.7988    1.2399   -0.0818 H   0  0  0  0  0  0  0  0  0  0  0  0
    6.8338   -0.2002   -0.9196 C   0  0  0  0  0  0  0  0  0  0  0  0
    7.4526    0.2567   -1.8561 O   0  0  0  0  0  0  0  0  0  0  0  0
    7.3887   -1.3261   -0.1374 C   0  0  0  0  0  0  0  0  0  0  0  0
    6.6381   -2.4713    0.1050 C   0  0  0  0  0  0  0  0  0  0  0  0
    5.2262   -2.4008    0.4227 N   0  0  0  0  0  0  0  0  0  0  0  0
    4.3305   -3.5596    0.0408 C   0  0  0  0  0  0  0  0  0  0  0  0
    4.3943   -4.4443   -1.1921 C   0  0  0  0  0  0  0  0  0  0  0  0
    4.6226   -5.0299    0.1766 C   0  0  0  0  0  0  0  0  0  0  0  0
    7.3087   -3.6613    0.1652 N   0  0  0  0  0  0  0  0  0  0  0  0
    8.6632   -3.6586    0.3029 C   0  0  0  0  0  0  0  0  0  0  0  0
    9.4158   -2.5119    0.4358 C   0  0  0  0  0  0  0  0  0  0  0  0
    8.7847   -1.3291    0.0872 C   0  0  0  0  0  0  0  0  0  0  0  0
    0.9744    0.7549   -0.2312 H   0  0  0  0  0  0  0  0  0  0  0  0
    1.4504   -0.5477    0.7990 H   0  0  0  0  0  0  0  0  0  0  0  0
    1.2211   -0.8080   -0.9595 H   0  0  0  0  0  0  0  0  0  0  0  0
    2.9477    2.4166   -0.1098 H   0  0  0  0  0  0  0  0  0  0  0  0
    4.6240    1.9256    1.8297 H   0  0  0  0  0  0  0  0  0  0  0  0
    3.3234   -3.3273    0.3798 H   0  0  0  0  0  0  0  0  0  0  0  0
    5.2456   -4.5111   -1.8633 H   0  0  0  0  0  0  0  0  0  0  0  0
    3.4578   -4.6657   -1.7009 H   0  0  0  0  0  0  0  0  0  0  0  0
    5.6147   -5.4136    0.3773 H   0  0  0  0  0  0  0  0  0  0  0  0
    3.8423   -5.6131    0.6541 H   0  0  0  0  0  0  0  0  0  0  0  0
    9.1386   -4.6373    0.3276 H   0  0  0  0  0  0  0  0  0  0  0  0
   10.4614   -2.5452    0.7264 H   0  0  0  0  0  0  0  0  0  0  0  0
    9.3724   -0.4206   -0.0348 H   0  0  0  0  0  0  0  0  0  0  0  0
  1  2  1  0  0  0  0
  1 22  1  0  0  0  0
  1 23  1  0  0  0  0
  1 24  1  0  0  0  0
  2  3  2  0  0  0  0
  2  7  1  0  0  0  0
  3  4  1  0  0  0  0
  3 25  1  0  0  0  0
  4  5  2  0  0  0  0
  4 26  1  0  0  0  0
  5  6  1  0  0  0  0
  6  7  2  0  0  0  0
  6 14  1  0  0  0  0
  7  8  1  0  0  0  0
  8  9  1  0  0  0  0
  8 10  1  0  0  0  0
 10 11  2  0  0  0  0
 10 12  1  0  0  0  0
 12 13  2  0  0  0  0
 12 21  1  0  0  0  0
 13 14  1  0  0  0  0
 13 18  1  0  0  0  0
 14 15  1  0  0  0  0
 15 16  1  0  0  0  0
 15 17  1  0  0  0  0
 15 27  1  0  0  0  0
 16 17  1  0  0  0  0
 16 28  1  0  0  0  0
 16 29  1  0  0  0  0
 17 30  1  0  0  0  0
 17 31  1  0  0  0  0
 18 19  2  0  0  0  0
 19 20  1  0  0  0  0
 19 32  1  0  0  0  0
 20 21  2  0  0  0  0
 20 33  1  0  0  0  0
 21 34  1  0  0  0  0
M  END
$$$$
