NXA
 OpenBabel04121316163D

 16 15  0  0  1  0  0  0  0  0999 V2000
    6.5407   -0.4487   -0.6563 O   0  0  0  0  0  0  0  0  0  0  0  0
    6.0952   -1.0889    0.4233 C   0  0  0  0  0  0  0  0  0  0  0  0
    6.5829   -2.1435    0.7978 O   0  0  0  0  0  0  0  0  0  0  0  0
    4.9793   -0.5120    0.9502 N   0  0  0  0  0  0  0  0  0  0  0  0
    4.5252    0.8565    0.6663 C   0  0  2  0  0  0  0  0  0  0  0  0
    3.4284    0.8185    0.7409 H   0  0  0  0  0  0  0  0  0  0  0  0
    4.8381    1.3388   -0.7686 C   0  0  0  0  0  0  0  0  0  0  0  0
    5.4768    2.3471   -1.0377 O   0  0  0  0  0  0  0  0  0  0  0  0
    4.3386    0.5188   -1.7325 O   0  0  0  0  0  0  0  0  0  0  0  0
    5.0111    1.8764    1.6892 C   0  0  0  0  0  0  0  0  0  0  0  0
    7.1979   -0.9778   -1.1457 H   0  0  0  0  0  0  0  0  0  0  0  0
    4.6925   -0.9330    1.8278 H   0  0  0  0  0  0  0  0  0  0  0  0
    4.1013   -0.3525   -1.3574 H   0  0  0  0  0  0  0  0  0  0  0  0
    4.6516    2.8797    1.4274 H   0  0  0  0  0  0  0  0  0  0  0  0
    6.1034    1.9111    1.7240 H   0  0  0  0  0  0  0  0  0  0  0  0
    4.6434    1.6487    2.6957 H   0  0  0  0  0  0  0  0  0  0  0  0
  1  2  1  0  0  0  0
  1 11  1  0  0  0  0
  2  3  2  0  0  0  0
  2  4  1  0  0  0  0
  4 12  1  0  0  0  0
  5  7  1  0  0  0  0
  5 10  1  0  0  0  0
  5  6  1  1  0  0  0
  5  4  1  0  0  0  0
  7  8  2  0  0  0  0
  7  9  1  0  0  0  0
  9 13  1  0  0  0  0
 10 14  1  0  0  0  0
 10 15  1  0  0  0  0
 10 16  1  0  0  0  0
M  END
$$$$
