NXX
 OpenBabel04121316163D

 71 75  0  0  1  0  0  0  0  0999 V2000
    0.0230    6.6911    1.9155 O   0  0  0  0  0  0  0  0  0  0  0  0
    0.9479    6.7616    3.0081 C   0  0  2  0  0  0  0  0  0  0  0  0
    1.3353    7.7742    3.0083 H   0  0  0  0  0  0  0  0  0  0  0  0
    2.1065    5.8187    2.8283 C   0  0  2  0  0  0  0  0  0  0  0  0
    2.9319    6.0995    3.4939 H   0  0  0  0  0  0  0  0  0  0  0  0
    2.6181    5.7403    1.5146 O   0  0  0  0  0  0  0  0  0  0  0  0
    1.4412    4.5767    3.3146 C   0  0  2  0  0  0  0  0  0  0  0  0
    0.8049    4.1012    2.5529 H   0  0  0  0  0  0  0  0  0  0  0  0
    0.6153    4.8927    4.4376 O   0  0  0  0  0  0  0  0  0  0  0  0
    0.2858    6.2694    4.3235 C   0  0  1  0  0  0  0  0  0  0  0  0
   -0.8047    6.3299    4.3120 H   0  0  0  0  0  0  0  0  0  0  0  0
    0.7510    6.9769    5.5438 N   0  3  0  0  0  0  0  0  0  0  0  0
    1.0064    8.2996    5.4771 C   0  0  0  0  0  0  0  0  0  0  0  0
    1.5304    8.9824    6.5512 C   0  0  0  0  0  0  0  0  0  0  0  0
    1.8375    8.2803    7.7037 C   0  0  0  0  0  0  0  0  0  0  0  0
    1.5135    6.9240    7.8131 C   0  0  0  0  0  0  0  0  0  0  0  0
    0.8931    6.3085    6.7272 C   0  0  0  0  0  0  0  0  0  0  0  0
    1.8875    6.2318    9.0683 C   0  0  0  0  0  0  0  0  0  0  0  0
    2.4968    6.8386    9.9539 O   0  0  0  0  0  0  0  0  0  0  0  0
    1.5680    4.9413    9.1990 O   0  0  0  0  0  0  0  0  0  0  0  0
    2.4229    3.5764    3.7307 C   0  0  0  0  0  0  0  0  0  0  0  0
    3.5286    3.8676    4.5516 O   0  0  0  0  0  0  0  0  0  0  0  0
    4.5329    2.5337    4.6801 P   0  0  2  0  0  0  0  0  0  0  0  0
    3.9763    1.8177    3.4302 O   0  0  0  0  0  0  0  0  0  0  0  0
    3.6882    1.4168    5.6960 O   0  0  0  0  0  0  0  0  0  0  0  0
    2.8188    0.2883    4.7145 P   0  0  1  0  0  0  0  0  0  0  0  0
    1.8089    1.1750    4.0271 O   0  0  0  0  0  0  0  0  0  0  0  0
    4.2474   -0.3723    4.1397 O   0  0  0  0  0  0  0  0  0  0  0  0
    5.4377   -0.1814    4.9359 C   0  0  0  0  0  0  0  0  0  0  0  0
    6.7448   -0.7343    4.4610 C   0  0  1  0  0  0  0  0  0  0  0  0
    7.4448   -0.6901    5.3102 H   0  0  0  0  0  0  0  0  0  0  0  0
    6.6120   -2.0678    4.0015 O   0  0  0  0  0  0  0  0  0  0  0  0
    7.7575   -2.2451    3.1647 C   0  0  2  0  0  0  0  0  0  0  0  0
    8.5955   -2.5402    3.8076 H   0  0  0  0  0  0  0  0  0  0  0  0
    8.0174   -0.8909    2.4778 C   0  0  1  0  0  0  0  0  0  0  0  0
    7.5260   -0.8188    1.5013 H   0  0  0  0  0  0  0  0  0  0  0  0
    7.3168    0.1278    3.3271 C   0  0  2  0  0  0  0  0  0  0  0  0
    6.5276    0.6050    2.7339 H   0  0  0  0  0  0  0  0  0  0  0  0
    8.1488    1.1935    3.7864 O   0  0  0  0  0  0  0  0  0  0  0  0
    9.4070   -0.6154    2.3280 O   0  0  0  0  0  0  0  0  0  0  0  0
    7.5459   -3.3297    2.2343 N   0  0  0  0  0  0  0  0  0  0  0  0
    6.9745   -4.5474    2.4787 C   0  0  0  0  0  0  0  0  0  0  0  0
    7.0858   -5.3507    1.4374 N   0  0  0  0  0  0  0  0  0  0  0  0
    7.7571   -4.6118    0.4814 C   0  0  0  0  0  0  0  0  0  0  0  0
    8.0657   -3.3625    0.9685 C   0  0  0  0  0  0  0  0  0  0  0  0
    8.7459   -2.3886    0.3398 N   0  0  0  0  0  0  0  0  0  0  0  0
    9.0582   -2.7291   -0.9168 C   0  0  0  0  0  0  0  0  0  0  0  0
    8.8281   -3.9049   -1.5207 N   0  0  0  0  0  0  0  0  0  0  0  0
    8.1903   -4.8784   -0.8256 C   0  0  0  0  0  0  0  0  0  0  0  0
    7.9959   -6.0895   -1.4380 N   0  0  0  0  0  0  0  0  0  0  0  0
    1.9493   -0.8402    3.7329 O   0  0  0  0  0  0  0  0  0  0  0  0
    5.1564    3.3358    6.0804 O   0  0  0  0  0  0  0  0  0  0  0  0
   -0.2952    5.7809    1.7689 H   0  0  0  0  0  0  0  0  0  0  0  0
    1.9099    5.5393    0.8769 H   0  0  0  0  0  0  0  0  0  0  0  0
    0.7983    8.8255    4.5525 H   0  0  0  0  0  0  0  0  0  0  0  0
    1.7163   10.0497    6.4740 H   0  0  0  0  0  0  0  0  0  0  0  0
    2.3253    8.8052    8.5265 H   0  0  0  0  0  0  0  0  0  0  0  0
    0.5043    5.2960    6.7636 H   0  0  0  0  0  0  0  0  0  0  0  0
    1.1221    4.4316    8.5030 H   0  0  0  0  0  0  0  0  0  0  0  0
    1.8457    2.9991    4.4225 H   0  0  0  0  0  0  0  0  0  0  0  0
    2.7198    3.1536    2.7643 H   0  0  0  0  0  0  0  0  0  0  0  0
    5.2644   -0.3140    6.0077 H   0  0  0  0  0  0  0  0  0  0  0  0
    5.7381    0.8473    4.8460 H   0  0  0  0  0  0  0  0  0  0  0  0
    8.7651    1.3830    3.0429 H   0  0  0  0  0  0  0  0  0  0  0  0
    9.7321   -1.3187    1.7222 H   0  0  0  0  0  0  0  0  0  0  0  0
    6.5078   -4.8053    3.4232 H   0  0  0  0  0  0  0  0  0  0  0  0
    9.5547   -1.9625   -1.5049 H   0  0  0  0  0  0  0  0  0  0  0  0
    8.3455   -6.2133   -2.3736 H   0  0  0  0  0  0  0  0  0  0  0  0
    7.5365   -6.8251   -0.9218 H   0  0  0  0  0  0  0  0  0  0  0  0
    1.0786   -0.4238    3.5930 H   0  0  0  0  0  0  0  0  0  0  0  0
    5.7796    2.7634    6.5662 H   0  0  0  0  0  0  0  0  0  0  0  0
  1 53  1  0  0  0  0
  2  4  1  0  0  0  0
  2 10  1  0  0  0  0
  2  3  1  1  0  0  0
  2  1  1  0  0  0  0
  4  7  1  0  0  0  0
  4  6  1  0  0  0  0
  4  5  1  1  0  0  0
  6 54  1  0  0  0  0
  7  9  1  0  0  0  0
  7 21  1  0  0  0  0
  7  8  1  6  0  0  0
  9 10  1  0  0  0  0
 10 12  1  0  0  0  0
 10 11  1  6  0  0  0
 12 13  2  0  0  0  0
 12 17  1  0  0  0  0
 13 14  1  0  0  0  0
 13 55  1  0  0  0  0
 14 15  2  0  0  0  0
 14 56  1  0  0  0  0
 15 16  1  0  0  0  0
 15 57  1  0  0  0  0
 16 17  2  0  0  0  0
 16 18  1  0  0  0  0
 17 58  1  0  0  0  0
 18 19  2  0  0  0  0
 18 20  1  0  0  0  0
 20 59  1  0  0  0  0
 21 22  1  0  0  0  0
 21 60  1  0  0  0  0
 21 61  1  0  0  0  0
 23 25  1  1  0  0  0
 23 52  1  0  0  0  0
 23 24  2  0  0  0  0
 23 22  1  0  0  0  0
 26 25  1  1  0  0  0
 26 27  2  0  0  0  0
 26 28  1  0  0  0  0
 26 51  1  0  0  0  0
 28 29  1  0  0  0  0
 29 30  1  0  0  0  0
 29 62  1  0  0  0  0
 29 63  1  0  0  0  0
 30 31  1  1  0  0  0
 30 32  1  0  0  0  0
 30 37  1  0  0  0  0
 32 33  1  0  0  0  0
 33 35  1  0  0  0  0
 33 41  1  0  0  0  0
 33 34  1  1  0  0  0
 35 36  1  6  0  0  0
 35 37  1  0  0  0  0
 35 40  1  0  0  0  0
 37 38  1  6  0  0  0
 37 39  1  0  0  0  0
 39 64  1  0  0  0  0
 40 65  1  0  0  0  0
 41 42  1  0  0  0  0
 41 45  1  0  0  0  0
 42 43  2  0  0  0  0
 42 66  1  0  0  0  0
 43 44  1  0  0  0  0
 44 45  2  0  0  0  0
 44 49  1  0  0  0  0
 45 46  1  0  0  0  0
 46 47  2  0  0  0  0
 47 48  1  0  0  0  0
 47 67  1  0  0  0  0
 48 49  2  0  0  0  0
 49 50  1  0  0  0  0
 50 68  1  0  0  0  0
 50 69  1  0  0  0  0
 51 70  1  0  0  0  0
 52 71  1  0  0  0  0
M  CHG  1  12   1
M  END
$$$$
