NYL
 OpenBabel04121316163D

 21 21  0  0  0  0  0  0  0  0999 V2000
    1.0589    0.0306   -0.0016 C   0  0  0  0  0  0  0  0  0  0  0  0
    2.4091    0.0450   -0.0256 C   0  0  0  0  0  0  0  0  0  0  0  0
    3.1924    0.5054   -1.2168 C   0  0  0  0  0  0  0  0  0  0  0  0
    4.6077    0.5429   -0.8567 N   0  0  0  0  0  0  0  0  0  0  0  0
    5.4671    0.8280   -1.9247 C   0  0  0  0  0  0  0  0  0  0  0  0
    5.6219    2.1672   -2.2896 C   0  0  0  0  0  0  0  0  0  0  0  0
    6.3502    2.5309   -3.4189 C   0  0  0  0  0  0  0  0  0  0  0  0
    6.9940    1.5531   -4.1696 C   0  0  0  0  0  0  0  0  0  0  0  0
    6.9180    0.2165   -3.7760 C   0  0  0  0  0  0  0  0  0  0  0  0
    6.1207   -0.1519   -2.6810 C   0  0  0  0  0  0  0  0  0  0  0  0
    0.5231   -0.2991    0.8794 H   0  0  0  0  0  0  0  0  0  0  0  0
    0.4801    0.3501   -0.8594 H   0  0  0  0  0  0  0  0  0  0  0  0
    2.9421   -0.2804    0.8591 H   0  0  0  0  0  0  0  0  0  0  0  0
    2.8653    1.5173   -1.4863 H   0  0  0  0  0  0  0  0  0  0  0  0
    2.9912   -0.1634   -2.0649 H   0  0  0  0  0  0  0  0  0  0  0  0
    4.9335   -0.1804   -0.2288 H   0  0  0  0  0  0  0  0  0  0  0  0
    5.1758    2.9334   -1.6613 H   0  0  0  0  0  0  0  0  0  0  0  0
    6.4118    3.5772   -3.7009 H   0  0  0  0  0  0  0  0  0  0  0  0
    7.5555    1.8360   -5.0561 H   0  0  0  0  0  0  0  0  0  0  0  0
    7.4722   -0.5369   -4.3318 H   0  0  0  0  0  0  0  0  0  0  0  0
    6.0179   -1.2067   -2.4412 H   0  0  0  0  0  0  0  0  0  0  0  0
  1  2  2  0  0  0  0
  1 11  1  0  0  0  0
  1 12  1  0  0  0  0
  2  3  1  0  0  0  0
  2 13  1  0  0  0  0
  3  4  1  0  0  0  0
  3 14  1  0  0  0  0
  3 15  1  0  0  0  0
  4  5  1  0  0  0  0
  4 16  1  0  0  0  0
  5  6  2  0  0  0  0
  5 10  1  0  0  0  0
  6  7  1  0  0  0  0
  6 17  1  0  0  0  0
  7  8  2  0  0  0  0
  7 18  1  0  0  0  0
  8  9  1  0  0  0  0
  8 19  1  0  0  0  0
  9 10  2  0  0  0  0
  9 20  1  0  0  0  0
 10 21  1  0  0  0  0
M  END
$$$$
