NYM
 OpenBabel04121316163D

 37 38  0  0  1  0  0  0  0  0999 V2000
    0.9306   -0.0021   -0.0834 N   0  0  0  0  0  0  0  0  0  0  0  0
    2.3864   -0.0168   -0.0417 C   0  0  1  0  0  0  0  0  0  0  0  0
    2.7600    0.0821   -1.0689 H   0  0  0  0  0  0  0  0  0  0  0  0
    2.9678    1.0964    0.8042 C   0  0  0  0  0  0  0  0  0  0  0  0
    4.3640    0.5623    1.1298 C   0  0  1  0  0  0  0  0  0  0  0  0
    4.7490    1.0063    2.0561 H   0  0  0  0  0  0  0  0  0  0  0  0
    4.1532   -0.8431    1.3425 O   0  0  0  0  0  0  0  0  0  0  0  0
    2.9836   -1.2709    0.6060 C   0  0  2  0  0  0  0  0  0  0  0  0
    2.2886   -1.6978    1.3399 H   0  0  0  0  0  0  0  0  0  0  0  0
    3.3143   -2.3452   -0.4339 C   0  0  0  0  0  0  0  0  0  0  0  0
    2.1696   -2.7402   -1.1779 O   0  0  0  0  0  0  0  0  0  0  0  0
    2.5821   -3.9113   -2.3826 P   0  0  0  0  0  0  0  0  0  0  0  0
    1.1361   -4.3793   -2.4704 O   0  0  0  0  0  0  0  0  0  0  0  0
    2.8487   -2.7035   -3.4363 O   0  0  0  0  0  0  0  0  0  0  0  0
    2.9946   -5.0824   -3.5872 O   0  0  0  0  0  0  0  0  0  0  0  0
    5.3636    0.8287    0.0661 N   0  0  0  0  0  0  0  0  0  0  0  0
    5.5890    2.1523   -0.2982 C   0  0  0  0  0  0  0  0  0  0  0  0
    6.2406    2.4857   -1.4225 C   0  0  0  0  0  0  0  0  0  0  0  0
    6.3481    3.8642   -1.9819 C   0  0  0  0  0  0  0  0  0  0  0  0
    6.8545    1.4005   -2.2085 C   0  0  0  0  0  0  0  0  0  0  0  0
    7.3779    1.6025   -3.3107 O   0  0  0  0  0  0  0  0  0  0  0  0
    6.8239    0.1738   -1.6394 N   0  0  0  0  0  0  0  0  0  0  0  0
    7.2532   -0.5850   -2.1461 H   0  0  0  0  0  0  0  0  0  0  0  0
    6.0477   -0.2000   -0.5767 C   0  0  0  0  0  0  0  0  0  0  0  0
    6.0031   -1.3953   -0.3155 O   0  0  0  0  0  0  0  0  0  0  0  0
    0.5798    0.8629   -0.4857 H   0  0  0  0  0  0  0  0  0  0  0  0
    0.5422   -0.0788    0.8565 H   0  0  0  0  0  0  0  0  0  0  0  0
    2.3942    1.1986    1.7346 H   0  0  0  0  0  0  0  0  0  0  0  0
    2.9495    2.0630    0.2931 H   0  0  0  0  0  0  0  0  0  0  0  0
    3.7632   -3.2226    0.0456 H   0  0  0  0  0  0  0  0  0  0  0  0
    4.0268   -1.9694   -1.1676 H   0  0  0  0  0  0  0  0  0  0  0  0
    2.3906   -1.9010   -3.1287 H   0  0  0  0  0  0  0  0  0  0  0  0
    2.4670   -5.8772   -3.3845 H   0  0  0  0  0  0  0  0  0  0  0  0
    5.1588    2.9219    0.3387 H   0  0  0  0  0  0  0  0  0  0  0  0
    5.8674    4.6059   -1.3377 H   0  0  0  0  0  0  0  0  0  0  0  0
    5.8498    3.9049   -2.9582 H   0  0  0  0  0  0  0  0  0  0  0  0
    7.3952    4.1501   -2.1180 H   0  0  0  0  0  0  0  0  0  0  0  0
  1  2  1  0  0  0  0
  1 26  1  0  0  0  0
  1 27  1  0  0  0  0
  2  3  1  6  0  0  0
  2  4  1  0  0  0  0
  2  8  1  0  0  0  0
  4  5  1  0  0  0  0
  4 28  1  0  0  0  0
  4 29  1  0  0  0  0
  5  6  1  1  0  0  0
  5  7  1  0  0  0  0
  5 16  1  0  0  0  0
  7  8  1  0  0  0  0
  8  9  1  1  0  0  0
  8 10  1  0  0  0  0
 10 11  1  0  0  0  0
 10 30  1  0  0  0  0
 10 31  1  0  0  0  0
 11 12  1  0  0  0  0
 12 13  2  0  0  0  0
 12 14  1  0  0  0  0
 12 15  1  0  0  0  0
 14 32  1  0  0  0  0
 15 33  1  0  0  0  0
 16 17  1  0  0  0  0
 16 24  1  0  0  0  0
 17 18  2  0  0  0  0
 17 34  1  0  0  0  0
 18 19  1  0  0  0  0
 18 20  1  0  0  0  0
 19 35  1  0  0  0  0
 19 36  1  0  0  0  0
 19 37  1  0  0  0  0
 20 21  2  0  0  0  0
 20 22  1  0  0  0  0
 22 23  1  0  0  0  0
 22 24  1  0  0  0  0
 24 25  2  0  0  0  0
M  END
$$$$
