NYT
 OpenBabel04121316163D

 87 90  0  0  1  0  0  0  0  0999 V2000
    9.7514   -7.9895    0.2318 O   0  0  0  0  0  0  0  0  0  0  0  0
    8.3565   -8.2831    0.2753 C   0  0  0  0  0  0  0  0  0  0  0  0
    7.5743   -7.1965    1.0255 C   0  0  1  0  0  0  0  0  0  0  0  0
    6.6518   -7.6561    1.4055 H   0  0  0  0  0  0  0  0  0  0  0  0
    8.3323   -6.6442    2.1266 O   0  0  0  0  0  0  0  0  0  0  0  0
    7.8026   -5.3188    2.3691 C   0  0  2  0  0  0  0  0  0  0  0  0
    7.3647   -4.7684    0.9895 C   0  0  2  0  0  0  0  0  0  0  0  0
    6.4371   -4.1958    1.0731 H   0  0  0  0  0  0  0  0  0  0  0  0
    7.2377   -6.0181    0.1219 C   0  0  2  0  0  0  0  0  0  0  0  0
    7.9427   -5.9844   -0.7173 H   0  0  0  0  0  0  0  0  0  0  0  0
    5.9387   -6.1186   -0.4449 O   0  0  0  0  0  0  0  0  0  0  0  0
    8.2818   -3.9178    0.2886 O   0  0  0  0  0  0  0  0  0  0  0  0
    8.6576   -4.4914    3.1688 O   0  0  0  0  0  0  0  0  0  0  0  0
    9.9278   -4.2801    2.6123 C   0  0  0  0  0  0  0  0  0  0  0  0
   10.8846   -3.4367    3.4533 C   0  0  1  0  0  0  0  0  0  0  0  0
   12.0284   -3.5083    2.5927 O   0  0  0  0  0  0  0  0  0  0  0  0
   13.1608   -2.8537    3.0879 C   0  0  1  0  0  0  0  0  0  0  0  0
   12.9542   -2.5211    4.0742 H   0  0  0  0  0  0  0  0  0  0  0  0
   14.2025   -3.7418    3.3885 O   0  0  0  0  0  0  0  0  0  0  0  0
   14.5908   -4.4707    2.2543 C   0  0  2  0  0  0  0  0  0  0  0  0
   13.7364   -5.0289    1.8466 H   0  0  0  0  0  0  0  0  0  0  0  0
   15.5885   -5.4859    2.7846 C   0  0  0  0  0  0  0  0  0  0  0  0
   16.0437   -6.3574    1.7698 O   0  0  0  0  0  0  0  0  0  0  0  0
   15.1244   -3.4937    1.1964 C   0  0  2  0  0  0  0  0  0  0  0  0
   16.0026   -2.9659    1.5920 H   0  0  0  0  0  0  0  0  0  0  0  0
   14.0547   -2.4448    0.8334 C   0  0  1  0  0  0  0  0  0  0  0  0
   13.2105   -2.9146    0.3129 H   0  0  0  0  0  0  0  0  0  0  0  0
   13.5692   -1.7471    2.0942 C   0  0  1  0  0  0  0  0  0  0  0  0
   14.3858   -1.1481    2.5114 H   0  0  0  0  0  0  0  0  0  0  0  0
   12.5015   -0.8297    1.7930 O   0  0  0  0  0  0  0  0  0  0  0  0
   14.5970   -1.5002   -0.0945 O   0  0  0  0  0  0  0  0  0  0  0  0
   15.4896   -4.1502   -0.0134 O   0  0  0  0  0  0  0  0  0  0  0  0
   10.4679   -2.0565    3.5889 O   0  0  0  0  0  0  0  0  0  0  0  0
   10.9507   -1.5359    4.8564 C   0  0  1  0  0  0  0  0  0  0  0  0
   10.1355   -0.9383    5.2787 H   0  0  0  0  0  0  0  0  0  0  0  0
   11.2106   -2.7636    5.7543 C   0  0  2  0  0  0  0  0  0  0  0  0
   12.1829   -2.7411    6.2516 H   0  0  0  0  0  0  0  0  0  0  0  0
   11.0436   -4.0093    4.8669 C   0  0  2  0  0  0  0  0  0  0  0  0
   10.1521   -4.5678    5.1744 H   0  0  0  0  0  0  0  0  0  0  0  0
   12.1282   -4.9358    4.9481 O   0  0  0  0  0  0  0  0  0  0  0  0
   10.2341   -2.7885    6.8027 O   0  0  0  0  0  0  0  0  0  0  0  0
   12.1399   -0.5160    4.7489 C   0  0  0  0  0  0  0  0  0  0  0  0
   12.7079   -0.2133    6.0065 O   0  0  0  0  0  0  0  0  0  0  0  0
    6.5800   -5.5258    3.2727 C   0  0  0  0  0  0  0  0  0  0  0  0
    5.9821   -4.3148    3.7172 O   0  0  0  0  0  0  0  0  0  0  0  0
    4.7632   -4.5110    4.4424 C   0  0  2  0  0  0  0  0  0  0  0  0
    3.5985   -4.3054    3.4350 C   0  0  0  0  0  0  0  0  0  0  0  0
    2.7782   -5.4556    3.2342 O   0  0  0  0  0  0  0  0  0  0  0  0
    4.7121   -3.4412    5.4310 O   0  0  0  0  0  0  0  0  0  0  0  0
    5.4829   -3.8856    6.5673 C   0  0  1  0  0  0  0  0  0  0  0  0
    5.1054   -3.3708    7.4585 H   0  0  0  0  0  0  0  0  0  0  0  0
    5.2487   -5.3910    6.6677 C   0  0  2  0  0  0  0  0  0  0  0  0
    6.1474   -5.9584    6.9251 H   0  0  0  0  0  0  0  0  0  0  0  0
    4.6312   -5.7881    5.3301 C   0  0  2  0  0  0  0  0  0  0  0  0
    3.5721   -5.9817    5.5088 H   0  0  0  0  0  0  0  0  0  0  0  0
    5.1203   -7.0266    4.8205 O   0  0  0  0  0  0  0  0  0  0  0  0
    4.2797   -5.6741    7.6939 O   0  0  0  0  0  0  0  0  0  0  0  0
    6.9685   -3.5419    6.4095 C   0  0  0  0  0  0  0  0  0  0  0  0
    7.7516   -4.0392    7.4873 O   0  0  0  0  0  0  0  0  0  0  0  0
   10.1929   -8.7935   -0.0948 H   0  0  0  0  0  0  0  0  0  0  0  0
    8.2161   -9.2570    0.7565 H   0  0  0  0  0  0  0  0  0  0  0  0
    8.0041   -8.3677   -0.7588 H   0  0  0  0  0  0  0  0  0  0  0  0
    5.7897   -5.2852   -0.9322 H   0  0  0  0  0  0  0  0  0  0  0  0
    9.0909   -4.4389    0.1252 H   0  0  0  0  0  0  0  0  0  0  0  0
    9.8376   -3.7121    1.6961 H   0  0  0  0  0  0  0  0  0  0  0  0
   10.3925   -5.2484    2.3787 H   0  0  0  0  0  0  0  0  0  0  0  0
   15.1103   -6.0855    3.5721 H   0  0  0  0  0  0  0  0  0  0  0  0
   16.4357   -4.9808    3.2621 H   0  0  0  0  0  0  0  0  0  0  0  0
   15.2634   -6.6439    1.2683 H   0  0  0  0  0  0  0  0  0  0  0  0
   11.7524   -1.3341    1.4260 H   0  0  0  0  0  0  0  0  0  0  0  0
   15.0416   -2.0342   -0.7797 H   0  0  0  0  0  0  0  0  0  0  0  0
   14.7630   -4.7534   -0.2423 H   0  0  0  0  0  0  0  0  0  0  0  0
   12.3008   -5.1191    5.8868 H   0  0  0  0  0  0  0  0  0  0  0  0
    9.3593   -2.9469    6.3994 H   0  0  0  0  0  0  0  0  0  0  0  0
   11.8511    0.3781    4.1876 H   0  0  0  0  0  0  0  0  0  0  0  0
   13.0181   -0.8189    4.1997 H   0  0  0  0  0  0  0  0  0  0  0  0
   12.2647    0.6030    6.3331 H   0  0  0  0  0  0  0  0  0  0  0  0
    6.9757   -6.0290    4.1613 H   0  0  0  0  0  0  0  0  0  0  0  0
    5.8296   -6.1398    2.7697 H   0  0  0  0  0  0  0  0  0  0  0  0
    2.9479   -3.4795    3.7425 H   0  0  0  0  0  0  0  0  0  0  0  0
    3.9948   -4.0441    2.4470 H   0  0  0  0  0  0  0  0  0  0  0  0
    2.2431   -5.5906    4.0343 H   0  0  0  0  0  0  0  0  0  0  0  0
    5.4801   -7.5559    5.5558 H   0  0  0  0  0  0  0  0  0  0  0  0
    3.4768   -5.1551    7.4978 H   0  0  0  0  0  0  0  0  0  0  0  0
    7.1126   -2.4592    6.3342 H   0  0  0  0  0  0  0  0  0  0  0  0
    7.4010   -3.9703    5.5071 H   0  0  0  0  0  0  0  0  0  0  0  0
    7.4838   -3.5859    8.3064 H   0  0  0  0  0  0  0  0  0  0  0  0
  1  2  1  0  0  0  0
  1 60  1  0  0  0  0
  2  3  1  0  0  0  0
  2 61  1  0  0  0  0
  2 62  1  0  0  0  0
  3  4  1  1  0  0  0
  3  5  1  0  0  0  0
  3  9  1  0  0  0  0
  5  6  1  0  0  0  0
  6  7  1  0  0  0  0
  6 13  1  1  0  0  0
  6 44  1  0  0  0  0
  7  9  1  0  0  0  0
  7 12  1  0  0  0  0
  7  8  1  1  0  0  0
  9 10  1  6  0  0  0
  9 11  1  0  0  0  0
 11 63  1  0  0  0  0
 12 64  1  0  0  0  0
 13 14  1  0  0  0  0
 14 65  1  0  0  0  0
 14 66  1  0  0  0  0
 15 14  1  6  0  0  0
 15 16  1  0  0  0  0
 15 33  1  0  0  0  0
 15 38  1  0  0  0  0
 16 17  1  0  0  0  0
 17 18  1  1  0  0  0
 17 19  1  0  0  0  0
 17 28  1  0  0  0  0
 19 20  1  0  0  0  0
 20 21  1  6  0  0  0
 20 22  1  0  0  0  0
 20 24  1  0  0  0  0
 22 23  1  0  0  0  0
 22 67  1  0  0  0  0
 22 68  1  0  0  0  0
 23 69  1  0  0  0  0
 24 26  1  0  0  0  0
 24 32  1  0  0  0  0
 24 25  1  1  0  0  0
 26 27  1  6  0  0  0
 26 28  1  0  0  0  0
 26 31  1  0  0  0  0
 28 30  1  0  0  0  0
 28 29  1  1  0  0  0
 30 70  1  0  0  0  0
 31 71  1  0  0  0  0
 32 72  1  0  0  0  0
 33 34  1  0  0  0  0
 34 35  1  1  0  0  0
 34 36  1  0  0  0  0
 34 42  1  0  0  0  0
 36 38  1  0  0  0  0
 36 41  1  0  0  0  0
 36 37  1  1  0  0  0
 38 39  1  1  0  0  0
 38 40  1  0  0  0  0
 40 73  1  0  0  0  0
 41 74  1  0  0  0  0
 42 43  1  0  0  0  0
 42 75  1  0  0  0  0
 42 76  1  0  0  0  0
 43 77  1  0  0  0  0
 44 45  1  0  0  0  0
 44 78  1  0  0  0  0
 44 79  1  0  0  0  0
 46 49  1  0  0  0  0
 46 54  1  0  0  0  0
 46 47  1  6  0  0  0
 46 45  1  0  0  0  0
 47 48  1  0  0  0  0
 47 80  1  0  0  0  0
 47 81  1  0  0  0  0
 48 82  1  0  0  0  0
 49 50  1  0  0  0  0
 50 51  1  1  0  0  0
 50 52  1  0  0  0  0
 50 58  1  0  0  0  0
 52 54  1  0  0  0  0
 52 57  1  0  0  0  0
 52 53  1  1  0  0  0
 54 55  1  1  0  0  0
 54 56  1  0  0  0  0
 56 83  1  0  0  0  0
 57 84  1  0  0  0  0
 58 59  1  0  0  0  0
 58 85  1  0  0  0  0
 58 86  1  0  0  0  0
 59 87  1  0  0  0  0
M  END
$$$$
