NZS
 OpenBabel04121316163D

 47 50  0  0  0  0  0  0  0  0999 V2000
    1.3316    0.2420   -0.2001 C   0  0  0  0  0  0  0  0  0  0  0  0
    2.7373    0.0131    0.0550 O   0  0  0  0  0  0  0  0  0  0  0  0
    3.2894   -1.1604   -0.4009 C   0  0  0  0  0  0  0  0  0  0  0  0
    4.2253   -1.1290   -1.4088 C   0  0  0  0  0  0  0  0  0  0  0  0
    4.7871   -2.3353   -1.8568 C   0  0  0  0  0  0  0  0  0  0  0  0
    4.2365   -3.5753   -1.4661 C   0  0  0  0  0  0  0  0  0  0  0  0
    3.3165   -3.6164   -0.4230 C   0  0  0  0  0  0  0  0  0  0  0  0
    3.1426   -2.3902    0.2431 C   0  0  0  0  0  0  0  0  0  0  0  0
    2.5672   -4.7814   -0.0790 N   0  0  0  0  0  0  0  0  0  0  0  0
    1.4352   -4.9327    0.7830 C   0  0  0  0  0  0  0  0  0  0  0  0
    1.0173   -6.1463    1.2504 N   0  0  0  0  0  0  0  0  0  0  0  0
   -0.0293   -6.2091    2.1372 C   0  0  0  0  0  0  0  0  0  0  0  0
   -0.6809   -5.1567    2.7051 N   0  0  0  0  0  0  0  0  0  0  0  0
   -0.2597   -3.9812    2.2329 C   0  0  0  0  0  0  0  0  0  0  0  0
    0.6731   -3.8523    1.2267 C   0  0  0  0  0  0  0  0  0  0  0  0
    0.5094   -2.5411    0.8455 C   0  0  0  0  0  0  0  0  0  0  0  0
   -0.0166   -1.7875    1.7935 N   0  0  0  0  0  0  0  0  0  0  0  0
   -0.6264   -2.6891    2.5565 N   0  0  0  0  0  0  0  0  0  0  0  0
   -1.6365   -2.1231    3.4054 C   0  0  0  0  0  0  0  0  0  0  0  0
   -0.5838   -7.4544    2.3484 N   0  0  0  0  0  0  0  0  0  0  0  0
   -2.0381   -7.5221    2.4198 C   0  0  0  0  0  0  0  0  0  0  0  0
   -2.4786   -8.6664    1.5359 C   0  0  0  0  0  0  0  0  0  0  0  0
   -1.8215  -10.1758    2.1764 S   0  0  0  0  0  0  0  0  0  0  0  0
   -2.0772  -11.2151    1.2125 O   0  0  0  0  0  0  0  0  0  0  0  0
   -2.2775  -10.3242    3.5579 O   0  0  0  0  0  0  0  0  0  0  0  0
   -0.0790   -9.8262    2.1861 C   0  0  0  0  0  0  0  0  0  0  0  0
    0.1855   -8.5392    2.9527 C   0  0  0  0  0  0  0  0  0  0  0  0
    1.0744    1.2936   -0.0389 H   0  0  0  0  0  0  0  0  0  0  0  0
    0.7117   -0.2024    0.5602 H   0  0  0  0  0  0  0  0  0  0  0  0
    0.9748   -0.0823   -1.1881 H   0  0  0  0  0  0  0  0  0  0  0  0
    4.5646   -0.1708   -1.7884 H   0  0  0  0  0  0  0  0  0  0  0  0
    5.6453   -2.3023   -2.5232 H   0  0  0  0  0  0  0  0  0  0  0  0
    4.5790   -4.4830   -1.9563 H   0  0  0  0  0  0  0  0  0  0  0  0
    2.8066   -2.3979    1.2732 H   0  0  0  0  0  0  0  0  0  0  0  0
    2.8183   -5.6477   -0.5416 H   0  0  0  0  0  0  0  0  0  0  0  0
    0.8896   -2.0983   -0.0512 H   0  0  0  0  0  0  0  0  0  0  0  0
   -1.5808   -1.0230    3.3216 H   0  0  0  0  0  0  0  0  0  0  0  0
   -1.4388   -2.3987    4.4361 H   0  0  0  0  0  0  0  0  0  0  0  0
   -2.6108   -2.4308    3.0289 H   0  0  0  0  0  0  0  0  0  0  0  0
   -2.5166   -6.6159    2.0293 H   0  0  0  0  0  0  0  0  0  0  0  0
   -2.3751   -7.6480    3.4560 H   0  0  0  0  0  0  0  0  0  0  0  0
   -2.0754   -8.5585    0.5211 H   0  0  0  0  0  0  0  0  0  0  0  0
   -3.5634   -8.7591    1.4891 H   0  0  0  0  0  0  0  0  0  0  0  0
    0.2268   -9.7312    1.1386 H   0  0  0  0  0  0  0  0  0  0  0  0
    0.4197  -10.6914    2.6300 H   0  0  0  0  0  0  0  0  0  0  0  0
    1.2630   -8.3377    2.9611 H   0  0  0  0  0  0  0  0  0  0  0  0
   -0.1163   -8.6693    4.0017 H   0  0  0  0  0  0  0  0  0  0  0  0
  1  2  1  0  0  0  0
  1 28  1  0  0  0  0
  1 29  1  0  0  0  0
  1 30  1  0  0  0  0
  2  3  1  0  0  0  0
  3  4  2  0  0  0  0
  3  8  1  0  0  0  0
  4  5  1  0  0  0  0
  4 31  1  0  0  0  0
  5  6  2  0  0  0  0
  5 32  1  0  0  0  0
  6  7  1  0  0  0  0
  6 33  1  0  0  0  0
  7  8  2  0  0  0  0
  7  9  1  0  0  0  0
  8 34  1  0  0  0  0
  9 10  1  0  0  0  0
  9 35  1  0  0  0  0
 10 11  2  0  0  0  0
 10 15  1  0  0  0  0
 11 12  1  0  0  0  0
 12 13  2  0  0  0  0
 12 20  1  0  0  0  0
 13 14  1  0  0  0  0
 14 15  2  0  0  0  0
 14 18  1  0  0  0  0
 15 16  1  0  0  0  0
 16 17  2  0  0  0  0
 16 36  1  0  0  0  0
 17 18  1  0  0  0  0
 18 19  1  0  0  0  0
 19 37  1  0  0  0  0
 19 38  1  0  0  0  0
 19 39  1  0  0  0  0
 20 21  1  0  0  0  0
 20 27  1  0  0  0  0
 21 22  1  0  0  0  0
 21 40  1  0  0  0  0
 21 41  1  0  0  0  0
 22 23  1  0  0  0  0
 22 42  1  0  0  0  0
 22 43  1  0  0  0  0
 23 24  2  0  0  0  0
 23 25  2  0  0  0  0
 23 26  1  0  0  0  0
 26 27  1  0  0  0  0
 26 44  1  0  0  0  0
 26 45  1  0  0  0  0
 27 46  1  0  0  0  0
 27 47  1  0  0  0  0
M  END
$$$$
