NZU
 OpenBabel04121316163D

 46 49  0  0  0  0  0  0  0  0999 V2000
    1.0270    0.0184   -0.0460 C   0  0  0  0  0  0  0  0  0  0  0  0
    2.4694    0.0062   -0.0449 N   0  0  0  0  0  0  0  0  0  0  0  0
    3.1414    1.1814   -0.0471 N   0  0  0  0  0  0  0  0  0  0  0  0
    4.4222    0.8009   -0.0472 C   0  0  0  0  0  0  0  0  0  0  0  0
    4.5817   -0.5957   -0.0466 C   0  0  0  0  0  0  0  0  0  0  0  0
    3.2949   -1.0893   -0.0430 C   0  0  0  0  0  0  0  0  0  0  0  0
    2.9525   -2.3821   -0.0396 N   0  0  0  0  0  0  0  0  0  0  0  0
    4.0201   -3.2085   -0.0454 C   0  0  0  0  0  0  0  0  0  0  0  0
    5.3225   -2.8282   -0.0466 N   0  0  0  0  0  0  0  0  0  0  0  0
    5.6348   -1.5120   -0.0475 C   0  0  0  0  0  0  0  0  0  0  0  0
    6.9454   -1.0926   -0.0502 N   0  0  0  0  0  0  0  0  0  0  0  0
    8.0362   -2.0375   -0.0539 C   0  0  0  0  0  0  0  0  0  0  0  0
    9.3572   -1.2733   -0.0606 C   0  0  0  0  0  0  0  0  0  0  0  0
   10.5577   -2.2150   -0.0617 C   0  0  0  0  0  0  0  0  0  0  0  0
   12.0820   -1.2736   -0.0676 S   0  0  0  0  0  0  0  0  0  0  0  0
   12.1554   -0.5657   -1.3337 O   0  0  0  0  0  0  0  0  0  0  0  0
   12.1631   -0.5589    1.1891 O   0  0  0  0  0  0  0  0  0  0  0  0
   13.3769   -2.4936   -0.0696 C   0  0  0  0  0  0  0  0  0  0  0  0
    3.7693   -4.6529   -0.0554 C   0  0  0  0  0  0  0  0  0  0  0  0
    4.7924   -5.6477    0.0005 C   0  0  0  0  0  0  0  0  0  0  0  0
    4.5658   -7.0589   -0.0138 C   0  0  0  0  0  0  0  0  0  0  0  0
    3.2815   -7.6304   -0.0847 C   0  0  0  0  0  0  0  0  0  0  0  0
    2.2377   -6.6918   -0.1410 C   0  0  0  0  0  0  0  0  0  0  0  0
    2.5061   -5.2682   -0.1252 C   0  0  0  0  0  0  0  0  0  0  0  0
    1.2780   -4.6626   -0.1963 C   0  0  0  0  0  0  0  0  0  0  0  0
    0.3707   -5.6738   -0.2442 N   0  0  0  0  0  0  0  0  0  0  0  0
   -0.6385   -5.5901   -0.2989 H   0  0  0  0  0  0  0  0  0  0  0  0
    0.9113   -6.9025   -0.2142 N   0  0  0  0  0  0  0  0  0  0  0  0
    0.6765    1.0556   -0.0458 H   0  0  0  0  0  0  0  0  0  0  0  0
    0.6661   -0.4860    0.8533 H   0  0  0  0  0  0  0  0  0  0  0  0
    0.6673   -0.4850   -0.9465 H   0  0  0  0  0  0  0  0  0  0  0  0
    5.1972    1.5540   -0.0478 H   0  0  0  0  0  0  0  0  0  0  0  0
    7.1364   -0.1006   -0.0581 H   0  0  0  0  0  0  0  0  0  0  0  0
    7.9775   -2.6780   -0.9416 H   0  0  0  0  0  0  0  0  0  0  0  0
    7.9846   -2.6746    0.8366 H   0  0  0  0  0  0  0  0  0  0  0  0
    9.4027   -0.6103    0.8136 H   0  0  0  0  0  0  0  0  0  0  0  0
    9.3970   -0.6157   -0.9391 H   0  0  0  0  0  0  0  0  0  0  0  0
   10.5523   -2.8498   -0.9528 H   0  0  0  0  0  0  0  0  0  0  0  0
   10.5579   -2.8444    0.8334 H   0  0  0  0  0  0  0  0  0  0  0  0
   13.2966   -3.1082   -0.9673 H   0  0  0  0  0  0  0  0  0  0  0  0
   13.3021   -3.1028    0.8325 H   0  0  0  0  0  0  0  0  0  0  0  0
   14.3323   -1.9612   -0.0741 H   0  0  0  0  0  0  0  0  0  0  0  0
    5.8326   -5.3166    0.0595 H   0  0  0  0  0  0  0  0  0  0  0  0
    5.4296   -7.7227    0.0322 H   0  0  0  0  0  0  0  0  0  0  0  0
    3.1068   -8.6968   -0.0956 H   0  0  0  0  0  0  0  0  0  0  0  0
    0.9560   -3.6327   -0.2159 H   0  0  0  0  0  0  0  0  0  0  0  0
  1  2  1  0  0  0  0
  1 29  1  0  0  0  0
  1 30  1  0  0  0  0
  1 31  1  0  0  0  0
  2  3  1  0  0  0  0
  2  6  1  0  0  0  0
  3  4  2  0  0  0  0
  4  5  1  0  0  0  0
  4 32  1  0  0  0  0
  5  6  2  0  0  0  0
  5 10  1  0  0  0  0
  6  7  1  0  0  0  0
  7  8  2  0  0  0  0
  8  9  1  0  0  0  0
  8 19  1  0  0  0  0
  9 10  2  0  0  0  0
 10 11  1  0  0  0  0
 11 12  1  0  0  0  0
 11 33  1  0  0  0  0
 12 13  1  0  0  0  0
 12 34  1  0  0  0  0
 12 35  1  0  0  0  0
 13 14  1  0  0  0  0
 13 36  1  0  0  0  0
 13 37  1  0  0  0  0
 14 15  1  0  0  0  0
 14 38  1  0  0  0  0
 14 39  1  0  0  0  0
 15 16  2  0  0  0  0
 15 17  2  0  0  0  0
 15 18  1  0  0  0  0
 18 40  1  0  0  0  0
 18 41  1  0  0  0  0
 18 42  1  0  0  0  0
 19 20  2  0  0  0  0
 19 24  1  0  0  0  0
 20 21  1  0  0  0  0
 20 43  1  0  0  0  0
 21 22  2  0  0  0  0
 21 44  1  0  0  0  0
 22 23  1  0  0  0  0
 22 45  1  0  0  0  0
 23 24  1  0  0  0  0
 23 28  2  0  0  0  0
 24 25  2  0  0  0  0
 25 26  1  0  0  0  0
 25 46  1  0  0  0  0
 26 27  1  0  0  0  0
 26 28  1  0  0  0  0
M  END
$$$$
