O09
 OpenBabel04121316163D

 27 27  0  0  0  0  0  0  0  0999 V2000
    0.9301    0.0933   -0.2795 O   0  0  0  0  0  0  0  0  0  0  0  0
    2.2517    0.0255   -0.0060 C   0  0  0  0  0  0  0  0  0  0  0  0
    2.6754   -0.7392    0.8545 O   0  0  0  0  0  0  0  0  0  0  0  0
    3.0464    0.8634   -0.9680 C   0  0  0  0  0  0  0  0  0  0  0  0
    4.4252    0.6429   -0.7046 O   0  0  0  0  0  0  0  0  0  0  0  0
    5.1732    1.4155   -1.5915 N   0  0  0  0  0  0  0  0  0  0  0  0
    6.4290    1.1862   -1.3899 C   0  0  0  0  0  0  0  0  0  0  0  0
    7.4032    1.8910   -2.2164 C   0  0  0  0  0  0  0  0  0  0  0  0
    7.3558    3.2818   -2.2427 C   0  0  0  0  0  0  0  0  0  0  0  0
    8.0384    3.9673   -3.2418 C   0  0  0  0  0  0  0  0  0  0  0  0
    8.8496    3.2711   -4.1474 C   0  0  0  0  0  0  0  0  0  0  0  0
    9.0089    1.8810   -3.9934 C   0  0  0  0  0  0  0  0  0  0  0  0
    8.2426    1.1773   -3.0634 C   0  0  0  0  0  0  0  0  0  0  0  0
    9.4991    3.9809   -5.2956 C   0  0  0  0  0  0  0  0  0  0  0  0
    9.3299    5.2400   -5.5576 N   0  0  0  0  0  0  0  0  0  0  0  0
   10.3086    3.3191   -6.1594 N   0  0  0  0  0  0  0  0  0  0  0  0
    0.5502   -0.7219    0.1069 H   0  0  0  0  0  0  0  0  0  0  0  0
    2.7913    1.9213   -0.8454 H   0  0  0  0  0  0  0  0  0  0  0  0
    2.8051    0.5194   -1.9811 H   0  0  0  0  0  0  0  0  0  0  0  0
    6.8005    0.4730   -0.6346 H   0  0  0  0  0  0  0  0  0  0  0  0
    6.7503    3.8256   -1.5223 H   0  0  0  0  0  0  0  0  0  0  0  0
    7.8874    5.0386   -3.2993 H   0  0  0  0  0  0  0  0  0  0  0  0
    9.6921    1.3133   -4.6149 H   0  0  0  0  0  0  0  0  0  0  0  0
    8.2631    0.0906   -3.0537 H   0  0  0  0  0  0  0  0  0  0  0  0
    8.7087    5.7072   -4.8991 H   0  0  0  0  0  0  0  0  0  0  0  0
   10.4379    2.3217   -6.1708 H   0  0  0  0  0  0  0  0  0  0  0  0
   10.6372    3.8459   -6.9584 H   0  0  0  0  0  0  0  0  0  0  0  0
  1  2  1  0  0  0  0
  1 17  1  0  0  0  0
  2  3  2  0  0  0  0
  2  4  1  0  0  0  0
  4  5  1  0  0  0  0
  4 18  1  0  0  0  0
  4 19  1  0  0  0  0
  5  6  1  0  0  0  0
  6  7  2  0  0  0  0
  7  8  1  0  0  0  0
  7 20  1  0  0  0  0
  8  9  2  0  0  0  0
  8 13  1  0  0  0  0
  9 10  1  0  0  0  0
  9 21  1  0  0  0  0
 10 11  2  0  0  0  0
 10 22  1  0  0  0  0
 11 12  1  0  0  0  0
 11 14  1  0  0  0  0
 12 13  2  0  0  0  0
 12 23  1  0  0  0  0
 13 24  1  0  0  0  0
 14 15  2  0  0  0  0
 14 16  1  0  0  0  0
 15 25  1  0  0  0  0
 16 26  1  0  0  0  0
 16 27  1  0  0  0  0
M  END
$$$$
