O14
 OpenBabel04121316163D

 39 40  0  0  0  0  0  0  0  0999 V2000
    0.9942   -0.0163   -0.0171 C   0  0  0  0  0  0  0  0  0  0  0  0
    2.4554   -0.0410   -0.1078 N   0  0  0  0  0  0  0  0  0  0  0  0
    2.9445   -1.3866   -0.4527 C   0  0  0  0  0  0  0  0  0  0  0  0
    2.5502   -1.8157   -1.8703 C   0  0  0  0  0  0  0  0  0  0  0  0
    3.0757   -0.7994   -2.8787 C   0  0  0  0  0  0  0  0  0  0  0  0
    2.5778    0.6080   -2.5210 C   0  0  0  0  0  0  0  0  0  0  0  0
    2.9499    0.9528   -1.0778 C   0  0  0  0  0  0  0  0  0  0  0  0
    4.5062   -0.8966   -2.8131 O   0  0  0  0  0  0  0  0  0  0  0  0
    5.0656    0.0114   -3.7008 N   0  0  0  0  0  0  0  0  0  0  0  0
    6.3513   -0.0459   -3.6175 C   0  0  0  0  0  0  0  0  0  0  0  0
    7.1131    0.8488   -4.4774 C   0  0  0  0  0  0  0  0  0  0  0  0
    6.9336    2.2199   -4.3180 C   0  0  0  0  0  0  0  0  0  0  0  0
    7.3412    3.0788   -5.3334 C   0  0  0  0  0  0  0  0  0  0  0  0
    8.0032    2.5731   -6.4621 C   0  0  0  0  0  0  0  0  0  0  0  0
    8.3017    1.1993   -6.5232 C   0  0  0  0  0  0  0  0  0  0  0  0
    7.8124    0.3229   -5.5560 C   0  0  0  0  0  0  0  0  0  0  0  0
    8.3400    3.4683   -7.6164 C   0  0  0  0  0  0  0  0  0  0  0  0
    8.0119    4.7170   -7.6852 N   0  0  0  0  0  0  0  0  0  0  0  0
    9.0179    2.9940   -8.6957 N   0  0  0  0  0  0  0  0  0  0  0  0
    0.6448   -0.7448    0.7210 H   0  0  0  0  0  0  0  0  0  0  0  0
    0.4948   -0.2471   -0.9634 H   0  0  0  0  0  0  0  0  0  0  0  0
    0.6460    0.9701    0.3031 H   0  0  0  0  0  0  0  0  0  0  0  0
    2.5791   -2.1209    0.2743 H   0  0  0  0  0  0  0  0  0  0  0  0
    4.0390   -1.4036   -0.3502 H   0  0  0  0  0  0  0  0  0  0  0  0
    1.4625   -1.9095   -1.9588 H   0  0  0  0  0  0  0  0  0  0  0  0
    2.9739   -2.8050   -2.0750 H   0  0  0  0  0  0  0  0  0  0  0  0
    2.7488   -1.0744   -3.8883 H   0  0  0  0  0  0  0  0  0  0  0  0
    1.4910    0.6615   -2.6576 H   0  0  0  0  0  0  0  0  0  0  0  0
    3.0005    1.3647   -3.1914 H   0  0  0  0  0  0  0  0  0  0  0  0
    2.5703    1.9495   -0.8206 H   0  0  0  0  0  0  0  0  0  0  0  0
    4.0424    1.0301   -0.9888 H   0  0  0  0  0  0  0  0  0  0  0  0
    6.8940   -0.7400   -2.9538 H   0  0  0  0  0  0  0  0  0  0  0  0
    6.4210    2.6105   -3.4423 H   0  0  0  0  0  0  0  0  0  0  0  0
    7.0910    4.1273   -5.2255 H   0  0  0  0  0  0  0  0  0  0  0  0
    8.8714    0.7744   -7.3416 H   0  0  0  0  0  0  0  0  0  0  0  0
    7.9156   -0.7507   -5.6891 H   0  0  0  0  0  0  0  0  0  0  0  0
    7.4977    5.0431   -6.8661 H   0  0  0  0  0  0  0  0  0  0  0  0
    9.1982    2.0213   -8.8714 H   0  0  0  0  0  0  0  0  0  0  0  0
    9.1041    3.6340   -9.4750 H   0  0  0  0  0  0  0  0  0  0  0  0
  1  2  1  0  0  0  0
  1 20  1  0  0  0  0
  1 21  1  0  0  0  0
  1 22  1  0  0  0  0
  2  3  1  0  0  0  0
  2  7  1  0  0  0  0
  3  4  1  0  0  0  0
  3 23  1  0  0  0  0
  3 24  1  0  0  0  0
  4  5  1  0  0  0  0
  4 25  1  0  0  0  0
  4 26  1  0  0  0  0
  5  6  1  0  0  0  0
  5  8  1  0  0  0  0
  5 27  1  0  0  0  0
  6  7  1  0  0  0  0
  6 28  1  0  0  0  0
  6 29  1  0  0  0  0
  7 30  1  0  0  0  0
  7 31  1  0  0  0  0
  8  9  1  0  0  0  0
  9 10  2  0  0  0  0
 10 11  1  0  0  0  0
 10 32  1  0  0  0  0
 11 12  2  0  0  0  0
 11 16  1  0  0  0  0
 12 13  1  0  0  0  0
 12 33  1  0  0  0  0
 13 14  2  0  0  0  0
 13 34  1  0  0  0  0
 14 15  1  0  0  0  0
 14 17  1  0  0  0  0
 15 16  2  0  0  0  0
 15 35  1  0  0  0  0
 16 36  1  0  0  0  0
 17 18  2  0  0  0  0
 17 19  1  0  0  0  0
 18 37  1  0  0  0  0
 19 38  1  0  0  0  0
 19 39  1  0  0  0  0
M  END
$$$$
