O48
 OpenBabel04121316163D

 38 37  0  0  0  0  0  0  0  0999 V2000
    0.9470   -0.0350   -0.0704 C   0  0  0  0  0  0  0  0  0  0  0  0
    2.4634   -0.0411   -0.0754 C   0  0  0  0  0  0  0  0  0  0  0  0
    2.9883   -1.1452   -0.9831 C   0  0  0  0  0  0  0  0  0  0  0  0
    4.5095   -1.1542   -0.9905 C   0  0  0  0  0  0  0  0  0  0  0  0
    5.0243   -2.2599   -1.8995 C   0  0  0  0  0  0  0  0  0  0  0  0
    6.5449   -2.2716   -1.9092 C   0  0  0  0  0  0  0  0  0  0  0  0
    7.0563   -3.3799   -2.8203 C   0  0  0  0  0  0  0  0  0  0  0  0
    8.5762   -3.3964   -2.8339 C   0  0  0  0  0  0  0  0  0  0  0  0
    9.1147   -4.5012   -3.7421 C   0  0  0  0  0  0  0  0  0  0  0  0
   10.6353   -4.4702   -3.7167 C   0  0  0  0  0  0  0  0  0  0  0  0
   11.2108   -5.4748   -4.5424 O   0  0  0  0  0  0  0  0  0  0  0  0
   12.8392   -5.4825   -4.5506 S   0  0  0  0  0  0  0  0  0  0  0  0
   13.2857   -4.2702   -5.1898 O   0  0  0  0  0  0  0  0  0  0  0  0
   13.2861   -5.8772   -3.2343 O   0  0  0  0  0  0  0  0  0  0  0  0
   13.2337   -6.7331   -5.5768 N   0  0  0  0  0  0  0  0  0  0  0  0
    0.5732    0.7585    0.5819 H   0  0  0  0  0  0  0  0  0  0  0  0
    0.5575   -0.9920    0.2912 H   0  0  0  0  0  0  0  0  0  0  0  0
    0.5575    0.1347   -1.0793 H   0  0  0  0  0  0  0  0  0  0  0  0
    2.8341   -0.1896    0.9456 H   0  0  0  0  0  0  0  0  0  0  0  0
    2.8341    0.9319   -0.4186 H   0  0  0  0  0  0  0  0  0  0  0  0
    2.6151   -0.9974   -2.0041 H   0  0  0  0  0  0  0  0  0  0  0  0
    2.6151   -2.1183   -0.6406 H   0  0  0  0  0  0  0  0  0  0  0  0
    4.8865   -1.3054    0.0284 H   0  0  0  0  0  0  0  0  0  0  0  0
    4.8865   -0.1838   -1.3360 H   0  0  0  0  0  0  0  0  0  0  0  0
    4.6476   -2.1094   -2.9187 H   0  0  0  0  0  0  0  0  0  0  0  0
    4.6476   -3.2307   -1.5547 H   0  0  0  0  0  0  0  0  0  0  0  0
    6.9210   -2.4211   -0.8894 H   0  0  0  0  0  0  0  0  0  0  0  0
    6.9210   -1.3000   -2.2530 H   0  0  0  0  0  0  0  0  0  0  0  0
    6.6773   -3.2257   -3.8375 H   0  0  0  0  0  0  0  0  0  0  0  0
    6.6773   -4.3481   -2.4723 H   0  0  0  0  0  0  0  0  0  0  0  0
    8.9493   -3.5409   -1.8117 H   0  0  0  0  0  0  0  0  0  0  0  0
    8.9493   -2.4215   -3.1733 H   0  0  0  0  0  0  0  0  0  0  0  0
    8.7487   -4.3653   -4.7669 H   0  0  0  0  0  0  0  0  0  0  0  0
    8.7487   -5.4803   -3.4106 H   0  0  0  0  0  0  0  0  0  0  0  0
   10.9787   -4.6190   -2.6869 H   0  0  0  0  0  0  0  0  0  0  0  0
   10.9787   -3.4887   -4.0618 H   0  0  0  0  0  0  0  0  0  0  0  0
   12.9823   -6.5441   -6.5425 H   0  0  0  0  0  0  0  0  0  0  0  0
   12.9823   -7.6438   -5.2049 H   0  0  0  0  0  0  0  0  0  0  0  0
  1  2  1  0  0  0  0
  1 16  1  0  0  0  0
  1 17  1  0  0  0  0
  1 18  1  0  0  0  0
  2  3  1  0  0  0  0
  2 19  1  0  0  0  0
  2 20  1  0  0  0  0
  3  4  1  0  0  0  0
  3 21  1  0  0  0  0
  3 22  1  0  0  0  0
  4  5  1  0  0  0  0
  4 23  1  0  0  0  0
  4 24  1  0  0  0  0
  5  6  1  0  0  0  0
  5 25  1  0  0  0  0
  5 26  1  0  0  0  0
  6  7  1  0  0  0  0
  6 27  1  0  0  0  0
  6 28  1  0  0  0  0
  7  8  1  0  0  0  0
  7 29  1  0  0  0  0
  7 30  1  0  0  0  0
  8  9  1  0  0  0  0
  8 31  1  0  0  0  0
  8 32  1  0  0  0  0
  9 10  1  0  0  0  0
  9 33  1  0  0  0  0
  9 34  1  0  0  0  0
 10 11  1  0  0  0  0
 10 35  1  0  0  0  0
 10 36  1  0  0  0  0
 11 12  1  0  0  0  0
 12 13  2  0  0  0  0
 12 14  2  0  0  0  0
 12 15  1  0  0  0  0
 15 37  1  0  0  0  0
 15 38  1  0  0  0  0
M  END
$$$$
