O59
 OpenBabel04121316163D

 38 37  0  0  0  0  0  0  0  0999 V2000
    1.1682    0.0327   -0.0710 N   0  0  0  0  0  0  0  0  0  0  0  0
    2.8371    0.1175    0.0176 S   0  0  0  0  0  0  0  0  0  0  0  0
    3.2004    1.4618   -0.3709 O   0  0  0  0  0  0  0  0  0  0  0  0
    3.1741   -0.4110    1.3159 O   0  0  0  0  0  0  0  0  0  0  0  0
    3.3813   -0.9193   -1.1125 O   0  0  0  0  0  0  0  0  0  0  0  0
    4.7984   -0.9930   -1.2004 C   0  0  0  0  0  0  0  0  0  0  0  0
    5.2721   -1.9714   -2.2658 C   0  0  0  0  0  0  0  0  0  0  0  0
    6.8018   -1.9910   -2.2874 C   0  0  0  0  0  0  0  0  0  0  0  0
    7.3354   -2.9552   -3.3373 C   0  0  0  0  0  0  0  0  0  0  0  0
    8.8626   -2.9567   -3.3388 C   0  0  0  0  0  0  0  0  0  0  0  0
    9.3955   -3.9209   -4.3890 C   0  0  0  0  0  0  0  0  0  0  0  0
   10.9249   -3.9410   -4.4108 C   0  0  0  0  0  0  0  0  0  0  0  0
   11.3984   -4.9193   -5.4763 C   0  0  0  0  0  0  0  0  0  0  0  0
   12.8168   -4.9933   -5.5568 O   0  0  0  0  0  0  0  0  0  0  0  0
   13.3685   -6.0300   -6.6857 S   0  0  0  0  0  0  0  0  0  0  0  0
   13.0151   -7.3660   -6.2700 O   0  0  0  0  0  0  0  0  0  0  0  0
   13.0150   -5.5021   -7.9817 O   0  0  0  0  0  0  0  0  0  0  0  0
   15.0258   -5.9202   -6.5663 N   0  0  0  0  0  0  0  0  0  0  0  0
    0.7855    0.7239    0.5767 H   0  0  0  0  0  0  0  0  0  0  0  0
    0.8430   -0.9043    0.1590 H   0  0  0  0  0  0  0  0  0  0  0  0
    5.1943   -1.3064   -0.2280 H   0  0  0  0  0  0  0  0  0  0  0  0
    5.1894    0.0038   -1.4322 H   0  0  0  0  0  0  0  0  0  0  0  0
    4.8808   -1.6814   -3.2482 H   0  0  0  0  0  0  0  0  0  0  0  0
    4.8810   -2.9750   -2.0604 H   0  0  0  0  0  0  0  0  0  0  0  0
    7.1827   -2.2803   -1.2993 H   0  0  0  0  0  0  0  0  0  0  0  0
    7.1826   -0.9819   -2.4914 H   0  0  0  0  0  0  0  0  0  0  0  0
    6.9637   -2.6651   -4.3274 H   0  0  0  0  0  0  0  0  0  0  0  0
    6.9637   -3.9664   -3.1325 H   0  0  0  0  0  0  0  0  0  0  0  0
    9.2345   -3.2469   -2.3489 H   0  0  0  0  0  0  0  0  0  0  0  0
    9.2346   -1.9456   -3.5438 H   0  0  0  0  0  0  0  0  0  0  0  0
    9.0148   -3.6317   -5.3770 H   0  0  0  0  0  0  0  0  0  0  0  0
    9.0148   -4.9300   -4.1848 H   0  0  0  0  0  0  0  0  0  0  0  0
   11.3165   -4.2311   -3.4286 H   0  0  0  0  0  0  0  0  0  0  0  0
   11.3165   -2.9376   -4.6162 H   0  0  0  0  0  0  0  0  0  0  0  0
   11.0057   -4.6048   -6.4496 H   0  0  0  0  0  0  0  0  0  0  0  0
   11.0056   -5.9158   -5.2458 H   0  0  0  0  0  0  0  0  0  0  0  0
   15.3862   -6.2946   -5.6939 H   0  0  0  0  0  0  0  0  0  0  0  0
   15.3862   -5.0191   -6.8652 H   0  0  0  0  0  0  0  0  0  0  0  0
  1  2  1  0  0  0  0
  1 19  1  0  0  0  0
  1 20  1  0  0  0  0
  2  3  2  0  0  0  0
  2  4  2  0  0  0  0
  2  5  1  0  0  0  0
  5  6  1  0  0  0  0
  6  7  1  0  0  0  0
  6 21  1  0  0  0  0
  6 22  1  0  0  0  0
  7  8  1  0  0  0  0
  7 23  1  0  0  0  0
  7 24  1  0  0  0  0
  8  9  1  0  0  0  0
  8 25  1  0  0  0  0
  8 26  1  0  0  0  0
  9 10  1  0  0  0  0
  9 27  1  0  0  0  0
  9 28  1  0  0  0  0
 10 11  1  0  0  0  0
 10 29  1  0  0  0  0
 10 30  1  0  0  0  0
 11 12  1  0  0  0  0
 11 31  1  0  0  0  0
 11 32  1  0  0  0  0
 12 13  1  0  0  0  0
 12 33  1  0  0  0  0
 12 34  1  0  0  0  0
 13 14  1  0  0  0  0
 13 35  1  0  0  0  0
 13 36  1  0  0  0  0
 14 15  1  0  0  0  0
 15 16  2  0  0  0  0
 15 17  2  0  0  0  0
 15 18  1  0  0  0  0
 18 37  1  0  0  0  0
 18 38  1  0  0  0  0
M  END
$$$$
