O8G
 OpenBabel04121316163D

 36 38  0  0  0  0  0  0  0  0999 V2000
    1.0707   -0.0337   -0.1455 N   0  5  0  0  0  0  0  0  0  0  0  0
    2.2147   -0.0306   -0.1094 N   0  3  0  0  0  0  0  0  0  0  0  0
    3.4507   -0.0253   -0.0557 N   0  0  0  0  0  0  0  0  0  0  0  0
    4.1734   -0.0901   -1.3349 C   0  0  0  0  0  0  0  0  0  0  0  0
    5.6872   -0.0661   -1.0598 C   0  0  0  0  0  0  0  0  0  0  0  0
    6.1962   -0.0182    0.0544 O   0  0  0  0  0  0  0  0  0  0  0  0
    6.4373   -0.1264   -2.2254 N   0  0  0  0  0  0  0  0  0  0  0  0
    7.0252   -1.3885   -2.6516 C   0  0  0  0  0  0  0  0  0  0  0  0
    6.8068   -1.4927   -4.1606 C   0  0  0  0  0  0  0  0  0  0  0  0
    7.4460   -0.2757   -4.8908 C   0  0  0  0  0  0  0  0  0  0  0  0
    6.8336    1.0098   -4.3259 C   0  0  0  0  0  0  0  0  0  0  0  0
    7.0217    1.0758   -2.8090 C   0  0  0  0  0  0  0  0  0  0  0  0
    8.9381   -0.3559   -4.7804 C   0  0  0  0  0  0  0  0  0  0  0  0
    9.7363    0.7520   -4.6796 O   0  0  0  0  0  0  0  0  0  0  0  0
   11.0669    0.2686   -4.5196 N   0  0  0  0  0  0  0  0  0  0  0  0
   10.9051   -1.0636   -4.5467 C   0  0  0  0  0  0  0  0  0  0  0  0
    9.6094   -1.4672   -4.7087 N   0  0  0  0  0  0  0  0  0  0  0  0
   11.9330   -2.1399   -4.4336 C   0  0  0  0  0  0  0  0  0  0  0  0
   13.3016   -2.0525   -4.2969 C   0  0  0  0  0  0  0  0  0  0  0  0
   13.9034   -3.3580   -4.2367 C   0  0  0  0  0  0  0  0  0  0  0  0
   12.9759   -4.3711   -4.3276 C   0  0  0  0  0  0  0  0  0  0  0  0
   11.3987   -3.7773   -4.4844 S   0  0  0  0  0  0  0  0  0  0  0  0
    3.9130    0.7691   -1.9648 H   0  0  0  0  0  0  0  0  0  0  0  0
    3.9216   -1.0153   -1.8683 H   0  0  0  0  0  0  0  0  0  0  0  0
    6.5592   -2.2286   -2.1261 H   0  0  0  0  0  0  0  0  0  0  0  0
    8.0932   -1.3982   -2.3977 H   0  0  0  0  0  0  0  0  0  0  0  0
    5.7246   -1.4927   -4.3511 H   0  0  0  0  0  0  0  0  0  0  0  0
    7.1962   -2.4434   -4.5408 H   0  0  0  0  0  0  0  0  0  0  0  0
    7.1910   -0.3612   -5.9542 H   0  0  0  0  0  0  0  0  0  0  0  0
    5.7534    0.9954   -4.5373 H   0  0  0  0  0  0  0  0  0  0  0  0
    7.2432    1.8928   -4.8244 H   0  0  0  0  0  0  0  0  0  0  0  0
    6.5480    1.9699   -2.3936 H   0  0  0  0  0  0  0  0  0  0  0  0
    8.0879    1.1155   -2.5549 H   0  0  0  0  0  0  0  0  0  0  0  0
   13.8624   -1.1258   -4.2454 H   0  0  0  0  0  0  0  0  0  0  0  0
   14.9635   -3.5522   -4.1325 H   0  0  0  0  0  0  0  0  0  0  0  0
   13.1248   -5.4404   -4.3119 H   0  0  0  0  0  0  0  0  0  0  0  0
  1  2  2  0  0  0  0
  2  3  2  0  0  0  0
  3  4  1  0  0  0  0
  4  5  1  0  0  0  0
  4 23  1  0  0  0  0
  4 24  1  0  0  0  0
  5  6  2  0  0  0  0
  5  7  1  0  0  0  0
  7  8  1  0  0  0  0
  7 12  1  0  0  0  0
  8  9  1  0  0  0  0
  8 25  1  0  0  0  0
  8 26  1  0  0  0  0
  9 10  1  0  0  0  0
  9 27  1  0  0  0  0
  9 28  1  0  0  0  0
 10 11  1  0  0  0  0
 10 13  1  0  0  0  0
 10 29  1  0  0  0  0
 11 12  1  0  0  0  0
 11 30  1  0  0  0  0
 11 31  1  0  0  0  0
 12 32  1  0  0  0  0
 12 33  1  0  0  0  0
 13 14  1  0  0  0  0
 13 17  2  0  0  0  0
 14 15  1  0  0  0  0
 15 16  2  0  0  0  0
 16 17  1  0  0  0  0
 16 18  1  0  0  0  0
 18 19  2  0  0  0  0
 18 22  1  0  0  0  0
 19 20  1  0  0  0  0
 19 34  1  0  0  0  0
 20 21  2  0  0  0  0
 20 35  1  0  0  0  0
 21 22  1  0  0  0  0
 21 36  1  0  0  0  0
M  CHG  2   1  -1   2   1
M  END
$$$$
