O8H
 OpenBabel04121316163D

 58 62  0  0  0  0  0  0  0  0999 V2000
    1.1546    0.0100    0.0564 I   0  0  0  0  0  0  0  0  0  0  0  0
    3.2339    0.0324    0.0047 C   0  0  0  0  0  0  0  0  0  0  0  0
    3.9105    1.2509   -0.0021 C   0  0  0  0  0  0  0  0  0  0  0  0
    5.2905    1.2680   -0.2154 C   0  0  0  0  0  0  0  0  0  0  0  0
    6.0035    0.0641   -0.3054 C   0  0  0  0  0  0  0  0  0  0  0  0
    5.3418   -1.1561   -0.1542 C   0  0  0  0  0  0  0  0  0  0  0  0
    3.9437   -1.1694   -0.0611 C   0  0  0  0  0  0  0  0  0  0  0  0
    7.7319    0.1783   -0.7062 S   0  0  0  0  0  0  0  0  0  0  0  0
    7.8128    0.6700   -2.0581 O   0  0  0  0  0  0  0  0  0  0  0  0
    8.3903    0.8478    0.3992 O   0  0  0  0  0  0  0  0  0  0  0  0
    8.3190   -1.4025   -0.7639 N   0  0  0  0  0  0  0  0  0  0  0  0
    9.7968   -1.4448   -1.0599 C   0  0  0  0  0  0  0  0  0  0  0  0
   10.2624   -2.8605   -1.0781 C   0  0  0  0  0  0  0  0  0  0  0  0
   11.5688   -3.2747   -1.1433 N   0  0  0  0  0  0  0  0  0  0  0  0
   11.5858   -4.6128   -1.1344 N   0  0  0  0  0  0  0  0  0  0  0  0
   10.3043   -5.0388   -1.0514 N   0  0  0  0  0  0  0  0  0  0  0  0
    9.4709   -3.9719   -1.0577 C   0  0  0  0  0  0  0  0  0  0  0  0
    9.9746   -6.4593   -0.9873 C   0  0  0  0  0  0  0  0  0  0  0  0
    8.4702   -6.7243   -0.8944 C   0  0  0  0  0  0  0  0  0  0  0  0
    7.5996   -5.8573   -0.8220 O   0  0  0  0  0  0  0  0  0  0  0  0
    8.0643   -8.0225   -1.1527 N   0  0  0  0  0  0  0  0  0  0  0  0
    6.8430   -8.0585   -1.9426 C   0  0  0  0  0  0  0  0  0  0  0  0
    6.7827   -9.3884   -2.6728 C   0  0  0  0  0  0  0  0  0  0  0  0
    6.8034  -10.5877   -1.6873 C   0  0  0  0  0  0  0  0  0  0  0  0
    8.0707  -10.4413   -0.8073 C   0  0  0  0  0  0  0  0  0  0  0  0
    8.1437   -9.0679   -0.1224 C   0  0  0  0  0  0  0  0  0  0  0  0
    5.5457  -10.5806   -0.8670 C   0  0  0  0  0  0  0  0  0  0  0  0
    4.9073  -11.7115   -0.4388 O   0  0  0  0  0  0  0  0  0  0  0  0
    3.7613  -11.2592    0.3051 N   0  0  0  0  0  0  0  0  0  0  0  0
    3.8624   -9.9221    0.2293 C   0  0  0  0  0  0  0  0  0  0  0  0
    4.9388   -9.5025   -0.4789 N   0  0  0  0  0  0  0  0  0  0  0  0
    3.0086   -8.8345    0.8074 C   0  0  0  0  0  0  0  0  0  0  0  0
    1.8476   -8.8987    1.5460 C   0  0  0  0  0  0  0  0  0  0  0  0
    1.3879   -7.5860    1.9226 C   0  0  0  0  0  0  0  0  0  0  0  0
    2.2034   -6.5822    1.4522 C   0  0  0  0  0  0  0  0  0  0  0  0
    3.4981   -7.1945    0.5516 S   0  0  0  0  0  0  0  0  0  0  0  0
    3.3783    2.1900    0.1300 H   0  0  0  0  0  0  0  0  0  0  0  0
    5.8056    2.2212   -0.3229 H   0  0  0  0  0  0  0  0  0  0  0  0
    5.8809   -2.0978   -0.1215 H   0  0  0  0  0  0  0  0  0  0  0  0
    3.4188   -2.1222   -0.0495 H   0  0  0  0  0  0  0  0  0  0  0  0
    7.8064   -1.9279   -1.4747 H   0  0  0  0  0  0  0  0  0  0  0  0
   10.3432   -0.8912   -0.2937 H   0  0  0  0  0  0  0  0  0  0  0  0
    9.9690   -1.0134   -2.0508 H   0  0  0  0  0  0  0  0  0  0  0  0
    8.4015   -4.0172   -1.0153 H   0  0  0  0  0  0  0  0  0  0  0  0
   10.4966   -6.8894   -0.1287 H   0  0  0  0  0  0  0  0  0  0  0  0
   10.3622   -6.9068   -1.9133 H   0  0  0  0  0  0  0  0  0  0  0  0
    6.8497   -7.2413   -2.6742 H   0  0  0  0  0  0  0  0  0  0  0  0
    5.9922   -7.8284   -1.2971 H   0  0  0  0  0  0  0  0  0  0  0  0
    7.6767   -9.4344   -3.3110 H   0  0  0  0  0  0  0  0  0  0  0  0
    5.9095   -9.4098   -3.3304 H   0  0  0  0  0  0  0  0  0  0  0  0
    6.8648  -11.5080   -2.2766 H   0  0  0  0  0  0  0  0  0  0  0  0
    8.9550  -10.5212   -1.4566 H   0  0  0  0  0  0  0  0  0  0  0  0
    8.1356  -11.2541   -0.0772 H   0  0  0  0  0  0  0  0  0  0  0  0
    9.0613   -8.9546    0.4656 H   0  0  0  0  0  0  0  0  0  0  0  0
    7.3125   -8.9482    0.5880 H   0  0  0  0  0  0  0  0  0  0  0  0
    1.3399   -9.8155    1.8203 H   0  0  0  0  0  0  0  0  0  0  0  0
    0.5046   -7.3798    2.5140 H   0  0  0  0  0  0  0  0  0  0  0  0
    2.1169   -5.5125    1.5801 H   0  0  0  0  0  0  0  0  0  0  0  0
  1  2  1  0  0  0  0
  2  3  2  0  0  0  0
  2  7  1  0  0  0  0
  3  4  1  0  0  0  0
  3 37  1  0  0  0  0
  4  5  2  0  0  0  0
  4 38  1  0  0  0  0
  5  6  1  0  0  0  0
  5  8  1  0  0  0  0
  6  7  2  0  0  0  0
  6 39  1  0  0  0  0
  7 40  1  0  0  0  0
  8  9  2  0  0  0  0
  8 10  2  0  0  0  0
  8 11  1  0  0  0  0
 11 12  1  0  0  0  0
 11 41  1  0  0  0  0
 12 13  1  0  0  0  0
 12 42  1  0  0  0  0
 12 43  1  0  0  0  0
 13 14  1  0  0  0  0
 13 17  2  0  0  0  0
 14 15  2  0  0  0  0
 15 16  1  0  0  0  0
 16 17  1  0  0  0  0
 16 18  1  0  0  0  0
 17 44  1  0  0  0  0
 18 19  1  0  0  0  0
 18 45  1  0  0  0  0
 18 46  1  0  0  0  0
 19 20  2  0  0  0  0
 19 21  1  0  0  0  0
 21 22  1  0  0  0  0
 21 26  1  0  0  0  0
 22 23  1  0  0  0  0
 22 47  1  0  0  0  0
 22 48  1  0  0  0  0
 23 24  1  0  0  0  0
 23 49  1  0  0  0  0
 23 50  1  0  0  0  0
 24 25  1  0  0  0  0
 24 27  1  0  0  0  0
 24 51  1  0  0  0  0
 25 26  1  0  0  0  0
 25 52  1  0  0  0  0
 25 53  1  0  0  0  0
 26 54  1  0  0  0  0
 26 55  1  0  0  0  0
 27 28  1  0  0  0  0
 27 31  2  0  0  0  0
 28 29  1  0  0  0  0
 29 30  2  0  0  0  0
 30 31  1  0  0  0  0
 30 32  1  0  0  0  0
 32 33  2  0  0  0  0
 32 36  1  0  0  0  0
 33 34  1  0  0  0  0
 33 56  1  0  0  0  0
 34 35  2  0  0  0  0
 34 57  1  0  0  0  0
 35 36  1  0  0  0  0
 35 58  1  0  0  0  0
M  END
$$$$
