O90
 OpenBabel04121316163D

 53 55  0  0  0  0  0  0  0  0999 V2000
    1.0010   -0.1008    0.0391 C   0  0  0  0  0  0  0  0  0  0  0  0
    2.5122   -0.1192    0.0530 C   0  0  0  0  0  0  0  0  0  0  0  0
    3.0698   -0.9259   -1.1266 C   0  0  0  0  0  0  0  0  0  0  0  0
    4.5756   -0.9199   -1.1513 C   0  0  0  0  0  0  0  0  0  0  0  0
    5.3072    0.2910   -1.1879 C   0  0  0  0  0  0  0  0  0  0  0  0
    4.5522    1.4270   -1.2671 O   0  0  0  0  0  0  0  0  0  0  0  0
    5.2361    2.6617   -1.1517 C   0  0  0  0  0  0  0  0  0  0  0  0
    4.1759    3.7459   -1.0965 C   0  0  0  0  0  0  0  0  0  0  0  0
    4.8611    5.0857   -1.0960 C   0  0  0  0  0  0  0  0  0  0  0  0
    3.6606    6.4442   -1.0240 S   0  0  0  0  0  0  0  0  0  0  0  0
    4.6823    7.9149   -1.0851 C   0  0  0  0  0  0  0  0  0  0  0  0
    4.0025    9.1399   -0.8690 C   0  0  0  0  0  0  0  0  0  0  0  0
    4.6332   10.3879   -1.0657 C   0  0  0  0  0  0  0  0  0  0  0  0
    5.9997   10.4420   -1.3462 C   0  0  0  0  0  0  0  0  0  0  0  0
    6.6754    9.2292   -1.3416 C   0  0  0  0  0  0  0  0  0  0  0  0
    6.0500    7.9932   -1.3372 C   0  0  0  0  0  0  0  0  0  0  0  0
    7.1753    6.7399   -1.7385 Cl  0  0  0  0  0  0  0  0  0  0  0  0
    6.7281   11.7344   -1.6859 C   0  0  0  0  0  0  0  0  0  0  0  0
    8.2234   11.6286   -2.0561 C   0  0  0  0  0  0  0  0  0  0  0  0
    8.9065   10.6135   -2.1480 O   0  0  0  0  0  0  0  0  0  0  0  0
    8.8175   12.8093   -2.3209 O   0  0  0  0  0  0  0  0  0  0  0  0
    6.7012    0.3209   -1.1641 C   0  0  0  0  0  0  0  0  0  0  0  0
    7.4358   -0.8516   -1.1414 C   0  0  0  0  0  0  0  0  0  0  0  0
    6.7461   -2.0663   -1.1429 C   0  0  0  0  0  0  0  0  0  0  0  0
    5.3645   -2.0743   -1.1438 C   0  0  0  0  0  0  0  0  0  0  0  0
    4.9373   -3.3701   -1.1389 O   0  0  0  0  0  0  0  0  0  0  0  0
    6.0355   -4.2260   -1.1415 N   0  0  0  0  0  0  0  0  0  0  0  0
    7.1171   -3.4269   -1.1434 C   0  0  0  0  0  0  0  0  0  0  0  0
    8.5154   -3.9287   -1.1476 C   0  0  0  0  0  0  0  0  0  0  0  0
    8.8069   -4.6774   -0.0537 F   0  0  0  0  0  0  0  0  0  0  0  0
    8.8017   -4.6758   -2.2441 F   0  0  0  0  0  0  0  0  0  0  0  0
    9.4240   -2.9088   -1.1490 F   0  0  0  0  0  0  0  0  0  0  0  0
    0.6328    0.5152    0.8647 H   0  0  0  0  0  0  0  0  0  0  0  0
    0.6024   -1.1118    0.1439 H   0  0  0  0  0  0  0  0  0  0  0  0
    0.6343    0.3318   -0.8977 H   0  0  0  0  0  0  0  0  0  0  0  0
    2.8898   -0.5241    0.9988 H   0  0  0  0  0  0  0  0  0  0  0  0
    2.8285    0.9263    0.0272 H   0  0  0  0  0  0  0  0  0  0  0  0
    2.7028   -0.5232   -2.0796 H   0  0  0  0  0  0  0  0  0  0  0  0
    2.6983   -1.9562   -1.0603 H   0  0  0  0  0  0  0  0  0  0  0  0
    5.8762    2.7972   -2.0325 H   0  0  0  0  0  0  0  0  0  0  0  0
    5.8437    2.6979   -0.2368 H   0  0  0  0  0  0  0  0  0  0  0  0
    3.5518    3.6160   -0.2071 H   0  0  0  0  0  0  0  0  0  0  0  0
    3.5263    3.6518   -1.9743 H   0  0  0  0  0  0  0  0  0  0  0  0
    5.4044    5.1222   -2.0427 H   0  0  0  0  0  0  0  0  0  0  0  0
    5.5496    5.1534   -0.2441 H   0  0  0  0  0  0  0  0  0  0  0  0
    2.9541    9.1371   -0.5649 H   0  0  0  0  0  0  0  0  0  0  0  0
    4.0389   11.2985   -0.9945 H   0  0  0  0  0  0  0  0  0  0  0  0
    7.7520    9.1752   -1.3798 H   0  0  0  0  0  0  0  0  0  0  0  0
    6.6264   12.4165   -0.8352 H   0  0  0  0  0  0  0  0  0  0  0  0
    6.2208   12.1742   -2.5560 H   0  0  0  0  0  0  0  0  0  0  0  0
    8.2444   13.5912   -2.2849 H   0  0  0  0  0  0  0  0  0  0  0  0
    7.2603    1.2497   -1.1727 H   0  0  0  0  0  0  0  0  0  0  0  0
    8.5194   -0.7997   -1.1367 H   0  0  0  0  0  0  0  0  0  0  0  0
  1  2  1  0  0  0  0
  1 33  1  0  0  0  0
  1 34  1  0  0  0  0
  1 35  1  0  0  0  0
  2  3  1  0  0  0  0
  2 36  1  0  0  0  0
  2 37  1  0  0  0  0
  3  4  1  0  0  0  0
  3 38  1  0  0  0  0
  3 39  1  0  0  0  0
  4  5  2  0  0  0  0
  4 25  1  0  0  0  0
  5  6  1  0  0  0  0
  5 22  1  0  0  0  0
  6  7  1  0  0  0  0
  7  8  1  0  0  0  0
  7 40  1  0  0  0  0
  7 41  1  0  0  0  0
  8  9  1  0  0  0  0
  8 42  1  0  0  0  0
  8 43  1  0  0  0  0
  9 10  1  0  0  0  0
  9 44  1  0  0  0  0
  9 45  1  0  0  0  0
 10 11  1  0  0  0  0
 11 12  2  0  0  0  0
 11 16  1  0  0  0  0
 12 13  1  0  0  0  0
 12 46  1  0  0  0  0
 13 14  2  0  0  0  0
 13 47  1  0  0  0  0
 14 15  1  0  0  0  0
 14 18  1  0  0  0  0
 15 16  2  0  0  0  0
 15 48  1  0  0  0  0
 16 17  1  0  0  0  0
 18 19  1  0  0  0  0
 18 49  1  0  0  0  0
 18 50  1  0  0  0  0
 19 20  2  0  0  0  0
 19 21  1  0  0  0  0
 21 51  1  0  0  0  0
 22 23  2  0  0  0  0
 22 52  1  0  0  0  0
 23 24  1  0  0  0  0
 23 53  1  0  0  0  0
 24 25  2  0  0  0  0
 24 28  1  0  0  0  0
 25 26  1  0  0  0  0
 26 27  1  0  0  0  0
 27 28  2  0  0  0  0
 28 29  1  0  0  0  0
 29 30  1  0  0  0  0
 29 31  1  0  0  0  0
 29 32  1  0  0  0  0
M  END
$$$$
