OA2
 OpenBabel04121316163D

 40 42  0  0  0  0  0  0  0  0999 V2000
    0.6423   -0.3510   -0.0908 N   0  0  0  0  0  0  0  0  0  0  0  0
    1.7813   -0.5409    0.5763 C   0  0  0  0  0  0  0  0  0  0  0  0
    2.3281    0.3945    1.3274 N   0  0  0  0  0  0  0  0  0  0  0  0
    3.6541    0.0486    1.3359 C   0  0  0  0  0  0  0  0  0  0  0  0
    3.9289   -1.1941    0.7538 C   0  0  0  0  0  0  0  0  0  0  0  0
    2.6331   -1.5922    0.2809 O   0  0  0  0  0  0  0  0  0  0  0  0
    5.2441   -1.8927    0.2772 C   0  0  0  0  0  0  0  0  0  0  0  0
    5.2160   -3.1211   -0.0168 O   0  0  0  0  0  0  0  0  0  0  0  0
    6.5508   -1.1897    0.0369 N   0  0  0  0  0  0  0  0  0  0  0  0
    6.8156    0.2784   -0.0240 C   0  0  0  0  0  0  0  0  0  0  0  0
    5.9088    1.3412   -0.5350 C   0  0  0  0  0  0  0  0  0  0  0  0
    4.8713    0.7848   -1.2202 C   0  0  0  0  0  0  0  0  0  0  0  0
    3.6614    1.3357   -1.4818 C   0  0  0  0  0  0  0  0  0  0  0  0
    3.4647    2.5608   -0.9168 C   0  0  0  0  0  0  0  0  0  0  0  0
    4.5429    3.2532   -0.3273 C   0  0  0  0  0  0  0  0  0  0  0  0
    5.8239    2.6805   -0.2103 C   0  0  0  0  0  0  0  0  0  0  0  0
    7.8612   -1.9891    0.0413 C   0  0  0  0  0  0  0  0  0  0  0  0
    9.2503   -1.2103    0.0520 C   0  0  0  0  0  0  0  0  0  0  0  0
    9.4448    0.1781    0.2713 C   0  0  0  0  0  0  0  0  0  0  0  0
   10.5432    0.9117   -0.1404 C   0  0  0  0  0  0  0  0  0  0  0  0
   11.6945    0.2266   -0.3797 C   0  0  0  0  0  0  0  0  0  0  0  0
   11.6668   -1.1676   -0.2882 C   0  0  0  0  0  0  0  0  0  0  0  0
   10.4497   -1.8864   -0.1776 C   0  0  0  0  0  0  0  0  0  0  0  0
    0.1987    0.5482    0.0979 H   0  0  0  0  0  0  0  0  0  0  0  0
   -0.0287   -1.1113   -0.1307 H   0  0  0  0  0  0  0  0  0  0  0  0
    4.3451    0.8498    1.5363 H   0  0  0  0  0  0  0  0  0  0  0  0
    7.5728    0.3573   -0.8193 H   0  0  0  0  0  0  0  0  0  0  0  0
    7.0610    0.4868    1.0166 H   0  0  0  0  0  0  0  0  0  0  0  0
    4.7901   -0.2197   -0.9172 H   0  0  0  0  0  0  0  0  0  0  0  0
    2.8554    0.6348   -1.6893 H   0  0  0  0  0  0  0  0  0  0  0  0
    2.4366    2.8796   -0.8069 H   0  0  0  0  0  0  0  0  0  0  0  0
    4.3216    4.2011    0.1496 H   0  0  0  0  0  0  0  0  0  0  0  0
    6.6279    3.2233    0.2826 H   0  0  0  0  0  0  0  0  0  0  0  0
    7.8552   -2.6460   -0.8486 H   0  0  0  0  0  0  0  0  0  0  0  0
    7.8321   -2.6521    0.9135 H   0  0  0  0  0  0  0  0  0  0  0  0
    8.7516    0.8630    0.7232 H   0  0  0  0  0  0  0  0  0  0  0  0
   10.4669    1.9970   -0.1800 H   0  0  0  0  0  0  0  0  0  0  0  0
   12.5993    0.7934   -0.5627 H   0  0  0  0  0  0  0  0  0  0  0  0
   12.6128   -1.6971   -0.3115 H   0  0  0  0  0  0  0  0  0  0  0  0
   10.4758   -2.9716   -0.2465 H   0  0  0  0  0  0  0  0  0  0  0  0
  1  2  1  0  0  0  0
  1 24  1  0  0  0  0
  1 25  1  0  0  0  0
  2  3  2  0  0  0  0
  2  6  1  0  0  0  0
  3  4  1  0  0  0  0
  4  5  2  0  0  0  0
  4 26  1  0  0  0  0
  5  6  1  0  0  0  0
  5  7  1  0  0  0  0
  7  8  2  0  0  0  0
  7  9  1  0  0  0  0
  9 10  1  0  0  0  0
  9 17  1  0  0  0  0
 10 11  1  0  0  0  0
 10 27  1  0  0  0  0
 10 28  1  0  0  0  0
 11 12  2  0  0  0  0
 11 16  1  0  0  0  0
 12 13  1  0  0  0  0
 12 29  1  0  0  0  0
 13 14  2  0  0  0  0
 13 30  1  0  0  0  0
 14 15  1  0  0  0  0
 14 31  1  0  0  0  0
 15 16  2  0  0  0  0
 15 32  1  0  0  0  0
 16 33  1  0  0  0  0
 17 18  1  0  0  0  0
 17 34  1  0  0  0  0
 17 35  1  0  0  0  0
 18 19  2  0  0  0  0
 18 23  1  0  0  0  0
 19 20  1  0  0  0  0
 19 36  1  0  0  0  0
 20 21  2  0  0  0  0
 20 37  1  0  0  0  0
 21 22  1  0  0  0  0
 21 38  1  0  0  0  0
 22 23  2  0  0  0  0
 22 39  1  0  0  0  0
 23 40  1  0  0  0  0
M  END
$$$$
