OA3
 OpenBabel04121316163D

 27 28  0  0  0  0  0  0  0  0999 V2000
    1.1232    0.0263   -0.1742 O   0  0  0  0  0  0  0  0  0  0  0  0
    2.3462    0.0340   -0.1437 C   0  0  0  0  0  0  0  0  0  0  0  0
    3.1545   -1.2251   -0.2859 C   0  0  0  0  0  0  0  0  0  0  0  0
    4.1806   -1.2842    0.8547 C   0  0  0  0  0  0  0  0  0  0  0  0
    3.4884   -1.1901    2.2341 C   0  0  0  0  0  0  0  0  0  0  0  0
    4.9238   -2.6237    0.7851 C   0  0  0  0  0  0  0  0  0  0  0  0
    5.1648   -0.1084    0.6649 C   0  0  0  0  0  0  0  0  0  0  0  0
    4.4572    1.2139    0.4649 C   0  0  0  0  0  0  0  0  0  0  0  0
    3.1240    1.2736    0.0780 C   0  0  0  0  0  0  0  0  0  0  0  0
    2.5376    2.5239   -0.0241 C   0  0  0  0  0  0  0  0  0  0  0  0
    1.2448    2.6706   -0.5136 N   0  0  0  0  0  0  0  0  0  0  0  0
    3.2416    3.6472    0.1985 N   0  0  0  0  0  0  0  0  0  0  0  0
    4.5381    3.4931    0.5249 C   0  0  0  0  0  0  0  0  0  0  0  0
    5.1895    2.3274    0.6748 N   0  0  0  0  0  0  0  0  0  0  0  0
    3.6368   -1.2018   -1.2721 H   0  0  0  0  0  0  0  0  0  0  0  0
    2.4798   -2.0874   -0.2675 H   0  0  0  0  0  0  0  0  0  0  0  0
    2.7622   -1.9995    2.3621 H   0  0  0  0  0  0  0  0  0  0  0  0
    2.9468   -0.2485    2.3756 H   0  0  0  0  0  0  0  0  0  0  0  0
    4.2223   -1.2517    3.0439 H   0  0  0  0  0  0  0  0  0  0  0  0
    4.2255   -3.4599    0.9109 H   0  0  0  0  0  0  0  0  0  0  0  0
    5.6775   -2.6966    1.5759 H   0  0  0  0  0  0  0  0  0  0  0  0
    5.4268   -2.7534   -0.1788 H   0  0  0  0  0  0  0  0  0  0  0  0
    5.7945   -0.2832   -0.2179 H   0  0  0  0  0  0  0  0  0  0  0  0
    5.8375   -0.0397    1.5294 H   0  0  0  0  0  0  0  0  0  0  0  0
    0.6353    1.8638   -0.3553 H   0  0  0  0  0  0  0  0  0  0  0  0
    0.8359    3.5869   -0.4001 H   0  0  0  0  0  0  0  0  0  0  0  0
    5.1190    4.3975    0.6763 H   0  0  0  0  0  0  0  0  0  0  0  0
  1  2  2  0  0  0  0
  2  3  1  0  0  0  0
  2  9  1  0  0  0  0
  3  4  1  0  0  0  0
  3 15  1  0  0  0  0
  3 16  1  0  0  0  0
  4  5  1  0  0  0  0
  4  6  1  0  0  0  0
  4  7  1  0  0  0  0
  5 17  1  0  0  0  0
  5 18  1  0  0  0  0
  5 19  1  0  0  0  0
  6 20  1  0  0  0  0
  6 21  1  0  0  0  0
  6 22  1  0  0  0  0
  7  8  1  0  0  0  0
  7 23  1  0  0  0  0
  7 24  1  0  0  0  0
  8  9  2  0  0  0  0
  8 14  1  0  0  0  0
  9 10  1  0  0  0  0
 10 11  1  0  0  0  0
 10 12  2  0  0  0  0
 11 25  1  0  0  0  0
 11 26  1  0  0  0  0
 12 13  1  0  0  0  0
 13 14  2  0  0  0  0
 13 27  1  0  0  0  0
M  END
$$$$
