OA5
 OpenBabel04121316163D

 31 32  0  0  0  0  0  0  0  0999 V2000
    1.1817   -0.0168    0.0795 N   0  0  0  0  0  0  0  0  0  0  0  0
    2.5470    0.0023    0.0807 C   0  0  0  0  0  0  0  0  0  0  0  0
    3.1333    1.1860    0.0791 N   0  0  0  0  0  0  0  0  0  0  0  0
    4.4579    1.1468    0.0791 C   0  0  0  0  0  0  0  0  0  0  0  0
    5.0563    2.3897    0.0714 O   0  0  0  0  0  0  0  0  0  0  0  0
    6.4843    2.3645    0.0752 C   0  0  0  0  0  0  0  0  0  0  0  0
    6.9793    3.8109    0.0934 C   0  0  0  0  0  0  0  0  0  0  0  0
    8.4096    3.8405    0.1384 O   0  0  0  0  0  0  0  0  0  0  0  0
    8.9774    5.0885    0.0907 C   0  0  0  0  0  0  0  0  0  0  0  0
    8.3009    6.2885    0.3186 C   0  0  0  0  0  0  0  0  0  0  0  0
    8.9474    7.5110    0.1252 C   0  0  0  0  0  0  0  0  0  0  0  0
   10.3020    7.5417   -0.1928 C   0  0  0  0  0  0  0  0  0  0  0  0
   11.0128    6.3487   -0.3042 C   0  0  0  0  0  0  0  0  0  0  0  0
   10.3432    5.1256   -0.2023 C   0  0  0  0  0  0  0  0  0  0  0  0
    5.2060    0.0495    0.0828 N   0  0  0  0  0  0  0  0  0  0  0  0
    4.5102   -1.0757    0.0844 C   0  0  0  0  0  0  0  0  0  0  0  0
    3.1885   -1.1586    0.0828 N   0  0  0  0  0  0  0  0  0  0  0  0
    5.2207   -2.2450    0.0869 N   0  0  0  0  0  0  0  0  0  0  0  0
    0.6999    0.8667    0.0802 H   0  0  0  0  0  0  0  0  0  0  0  0
    0.7047   -0.9014    0.0799 H   0  0  0  0  0  0  0  0  0  0  0  0
    6.8701    1.8590   -0.8186 H   0  0  0  0  0  0  0  0  0  0  0  0
    6.8645    1.8497    0.9663 H   0  0  0  0  0  0  0  0  0  0  0  0
    6.5607    4.3027    0.9794 H   0  0  0  0  0  0  0  0  0  0  0  0
    6.6116    4.3315   -0.8018 H   0  0  0  0  0  0  0  0  0  0  0  0
    7.2680    6.3104    0.6472 H   0  0  0  0  0  0  0  0  0  0  0  0
    8.3892    8.4377    0.2287 H   0  0  0  0  0  0  0  0  0  0  0  0
   10.8027    8.4944   -0.3433 H   0  0  0  0  0  0  0  0  0  0  0  0
   12.0847    6.3709   -0.4823 H   0  0  0  0  0  0  0  0  0  0  0  0
   10.8909    4.2003   -0.3618 H   0  0  0  0  0  0  0  0  0  0  0  0
    6.2239   -2.1902    0.0927 H   0  0  0  0  0  0  0  0  0  0  0  0
    4.7177   -3.1151    0.0890 H   0  0  0  0  0  0  0  0  0  0  0  0
  1  2  1  0  0  0  0
  1 19  1  0  0  0  0
  1 20  1  0  0  0  0
  2  3  2  0  0  0  0
  2 17  1  0  0  0  0
  3  4  1  0  0  0  0
  4  5  1  0  0  0  0
  4 15  2  0  0  0  0
  5  6  1  0  0  0  0
  6  7  1  0  0  0  0
  6 21  1  0  0  0  0
  6 22  1  0  0  0  0
  7  8  1  0  0  0  0
  7 23  1  0  0  0  0
  7 24  1  0  0  0  0
  8  9  1  0  0  0  0
  9 10  2  0  0  0  0
  9 14  1  0  0  0  0
 10 11  1  0  0  0  0
 10 25  1  0  0  0  0
 11 12  2  0  0  0  0
 11 26  1  0  0  0  0
 12 13  1  0  0  0  0
 12 27  1  0  0  0  0
 13 14  2  0  0  0  0
 13 28  1  0  0  0  0
 14 29  1  0  0  0  0
 15 16  1  0  0  0  0
 16 17  2  0  0  0  0
 16 18  1  0  0  0  0
 18 30  1  0  0  0  0
 18 31  1  0  0  0  0
M  END
$$$$
