OAK
 OpenBabel04121316163D

 37 38  0  0  1  0  0  0  0  0999 V2000
    0.7580   -0.1130    0.2370 O   0  0  0  0  0  0  0  0  0  0  0  0
    2.1581   -0.0472    0.1153 C   0  0  0  0  0  0  0  0  0  0  0  0
    2.9276    0.9304    1.0203 C   0  0  1  0  0  0  0  0  0  0  0  0
    2.5726    0.7878    2.0495 H   0  0  0  0  0  0  0  0  0  0  0  0
    4.3268    0.5567    1.0303 O   0  0  0  0  0  0  0  0  0  0  0  0
    5.1056    0.8877   -0.1190 C   0  0  1  0  0  0  0  0  0  0  0  0
    6.1470    0.6584    0.1346 H   0  0  0  0  0  0  0  0  0  0  0  0
    4.7164    0.0248   -1.2133 N   0  0  0  0  0  0  0  0  0  0  0  0
    5.5594   -0.4976   -2.1282 C   0  0  0  0  0  0  0  0  0  0  0  0
    6.7758   -0.3525   -2.1317 O   0  0  0  0  0  0  0  0  0  0  0  0
    4.8592   -1.3025   -3.1489 C   0  0  0  0  0  0  0  0  0  0  0  0
    4.9583   -2.6891   -3.0849 C   0  0  0  0  0  0  0  0  0  0  0  0
    4.5719   -3.4387   -4.1906 C   0  0  0  0  0  0  0  0  0  0  0  0
    3.9477   -2.8168   -5.2736 C   0  0  0  0  0  0  0  0  0  0  0  0
    3.6576   -1.4519   -5.2307 C   0  0  0  0  0  0  0  0  0  0  0  0
    4.1527   -0.6761   -4.1833 C   0  0  0  0  0  0  0  0  0  0  0  0
    5.0127    2.3824   -0.5120 C   0  0  1  0  0  0  0  0  0  0  0  0
    5.5180    2.5286   -1.4739 H   0  0  0  0  0  0  0  0  0  0  0  0
    3.5349    2.8023   -0.6309 C   0  0  2  0  0  0  0  0  0  0  0  0
    3.4938    3.8894   -0.7546 H   0  0  0  0  0  0  0  0  0  0  0  0
    2.7406    2.4164    0.6407 C   0  0  2  0  0  0  0  0  0  0  0  0
    1.6749    2.6189    0.4986 H   0  0  0  0  0  0  0  0  0  0  0  0
    3.1603    3.2200    1.7553 O   0  0  0  0  0  0  0  0  0  0  0  0
    2.9137    2.2688   -1.8099 O   0  0  0  0  0  0  0  0  0  0  0  0
    5.6741    3.2408    0.4263 O   0  0  0  0  0  0  0  0  0  0  0  0
    0.4666   -0.5443   -0.5925 H   0  0  0  0  0  0  0  0  0  0  0  0
    2.2707    0.2586   -0.9152 H   0  0  0  0  0  0  0  0  0  0  0  0
    2.5755   -1.0582    0.2170 H   0  0  0  0  0  0  0  0  0  0  0  0
    3.8231   -0.4199   -1.2328 H   0  0  0  0  0  0  0  0  0  0  0  0
    5.3751   -3.1734   -2.2063 H   0  0  0  0  0  0  0  0  0  0  0  0
    4.7890   -4.5030   -4.2227 H   0  0  0  0  0  0  0  0  0  0  0  0
    3.6938   -3.3994   -6.1562 H   0  0  0  0  0  0  0  0  0  0  0  0
    3.0951   -0.9924   -6.0405 H   0  0  0  0  0  0  0  0  0  0  0  0
    4.0265    0.4034   -4.2093 H   0  0  0  0  0  0  0  0  0  0  0  0
    3.2542    4.1395    1.4488 H   0  0  0  0  0  0  0  0  0  0  0  0
    3.3387    1.4217   -2.0240 H   0  0  0  0  0  0  0  0  0  0  0  0
    6.5411    2.8519    0.6377 H   0  0  0  0  0  0  0  0  0  0  0  0
  1  2  1  0  0  0  0
  1 26  1  0  0  0  0
  2  3  1  0  0  0  0
  2 27  1  0  0  0  0
  2 28  1  0  0  0  0
  3  4  1  1  0  0  0
  3  5  1  0  0  0  0
  3 21  1  0  0  0  0
  5  6  1  0  0  0  0
  6 17  1  0  0  0  0
  6  8  1  0  0  0  0
  6  7  1  1  0  0  0
  8  9  1  0  0  0  0
  8 29  1  0  0  0  0
  9 10  2  0  0  0  0
  9 11  1  0  0  0  0
 11 12  2  0  0  0  0
 11 16  1  0  0  0  0
 12 13  1  0  0  0  0
 12 30  1  0  0  0  0
 13 14  2  0  0  0  0
 13 31  1  0  0  0  0
 14 15  1  0  0  0  0
 14 32  1  0  0  0  0
 15 16  2  0  0  0  0
 15 33  1  0  0  0  0
 16 34  1  0  0  0  0
 17 18  1  6  0  0  0
 17 19  1  0  0  0  0
 17 25  1  0  0  0  0
 19 21  1  0  0  0  0
 19 24  1  0  0  0  0
 19 20  1  6  0  0  0
 21 22  1  6  0  0  0
 21 23  1  0  0  0  0
 23 35  1  0  0  0  0
 24 36  1  0  0  0  0
 25 37  1  0  0  0  0
M  END
$$$$
