OAL
 OpenBabel04121316163D

 32 34  0  0  0  0  0  0  0  0999 V2000
    0.7993   -0.3172    0.2815 O   0  0  0  0  0  0  0  0  0  0  0  0
    2.0945   -0.0294    0.0776 C   0  0  0  0  0  0  0  0  0  0  0  0
    2.3832    1.1440   -0.1100 O   0  0  0  0  0  0  0  0  0  0  0  0
    2.9857   -1.2400    0.1673 C   0  0  0  0  0  0  0  0  0  0  0  0
    4.4773   -0.9865    0.1531 C   0  0  0  0  0  0  0  0  0  0  0  0
    5.0513    0.2951    0.1778 C   0  0  0  0  0  0  0  0  0  0  0  0
    6.4240    0.4972    0.1344 C   0  0  0  0  0  0  0  0  0  0  0  0
    7.2658   -0.6005    0.1049 C   0  0  0  0  0  0  0  0  0  0  0  0
    6.7261   -1.8846    0.1139 C   0  0  0  0  0  0  0  0  0  0  0  0
    5.3391   -2.0810    0.1362 C   0  0  0  0  0  0  0  0  0  0  0  0
    4.7737   -3.3338    0.1496 O   0  0  0  0  0  0  0  0  0  0  0  0
    7.6082   -3.0456    0.1012 C   0  0  0  0  0  0  0  0  0  0  0  0
    7.0829   -4.1547    0.1144 O   0  0  0  0  0  0  0  0  0  0  0  0
    9.0633   -2.8510    0.0749 C   0  0  0  0  0  0  0  0  0  0  0  0
    9.6025   -1.5613    0.0637 C   0  0  0  0  0  0  0  0  0  0  0  0
    8.7195   -0.3825    0.0785 C   0  0  0  0  0  0  0  0  0  0  0  0
    9.1816    0.7524    0.0725 O   0  0  0  0  0  0  0  0  0  0  0  0
   10.9868   -1.3801    0.0395 C   0  0  0  0  0  0  0  0  0  0  0  0
   11.8216   -2.4970    0.0254 C   0  0  0  0  0  0  0  0  0  0  0  0
   11.2831   -3.7863    0.0360 C   0  0  0  0  0  0  0  0  0  0  0  0
    9.9071   -3.9613    0.0611 C   0  0  0  0  0  0  0  0  0  0  0  0
    9.3794   -5.2181    0.0719 O   0  0  0  0  0  0  0  0  0  0  0  0
    0.4252    0.5893    0.3273 H   0  0  0  0  0  0  0  0  0  0  0  0
    2.7323   -1.9032   -0.6713 H   0  0  0  0  0  0  0  0  0  0  0  0
    2.7459   -1.7564    1.1064 H   0  0  0  0  0  0  0  0  0  0  0  0
    4.4594    1.1994    0.2302 H   0  0  0  0  0  0  0  0  0  0  0  0
    6.8093    1.5146    0.1283 H   0  0  0  0  0  0  0  0  0  0  0  0
    5.5020   -4.0028    0.1405 H   0  0  0  0  0  0  0  0  0  0  0  0
   11.4139   -0.3777    0.0315 H   0  0  0  0  0  0  0  0  0  0  0  0
   12.8995   -2.3627    0.0059 H   0  0  0  0  0  0  0  0  0  0  0  0
   11.9430   -4.6467    0.0245 H   0  0  0  0  0  0  0  0  0  0  0  0
   10.0612   -5.9030    0.0604 H   0  0  0  0  0  0  0  0  0  0  0  0
  1  2  1  0  0  0  0
  1 23  1  0  0  0  0
  2  3  2  0  0  0  0
  2  4  1  0  0  0  0
  4  5  1  0  0  0  0
  4 24  1  0  0  0  0
  4 25  1  0  0  0  0
  5  6  2  0  0  0  0
  5 10  1  0  0  0  0
  6  7  1  0  0  0  0
  6 26  1  0  0  0  0
  7  8  2  0  0  0  0
  7 27  1  0  0  0  0
  8  9  1  0  0  0  0
  8 16  1  0  0  0  0
  9 10  2  0  0  0  0
  9 12  1  0  0  0  0
 10 11  1  0  0  0  0
 11 28  1  0  0  0  0
 12 13  2  0  0  0  0
 12 14  1  0  0  0  0
 14 15  2  0  0  0  0
 14 21  1  0  0  0  0
 15 16  1  0  0  0  0
 15 18  1  0  0  0  0
 16 17  2  0  0  0  0
 18 19  2  0  0  0  0
 18 29  1  0  0  0  0
 19 20  1  0  0  0  0
 19 30  1  0  0  0  0
 20 21  2  0  0  0  0
 20 31  1  0  0  0  0
 21 22  1  0  0  0  0
 22 32  1  0  0  0  0
M  END
$$$$
