OAW
 OpenBabel04121316163D

 36 38  0  0  0  0  0  0  0  0999 V2000
    1.0432    0.0378    0.0441 N   0  0  0  0  0  0  0  0  0  0  0  0
    2.4083    0.0303    0.0219 C   0  0  0  0  0  0  0  0  0  0  0  0
    3.0307   -1.1500    0.0538 N   0  0  0  0  0  0  0  0  0  0  0  0
    4.3883   -1.1365    0.0539 C   0  0  0  0  0  0  0  0  0  0  0  0
    5.0891   -2.4658    0.0719 C   0  0  0  0  0  0  0  0  0  0  0  0
    5.1389    0.0324    0.0392 C   0  0  0  0  0  0  0  0  0  0  0  0
    4.3854    1.2042    0.0100 C   0  0  0  0  0  0  0  0  0  0  0  0
    3.0341    1.2095   -0.0198 N   0  0  0  0  0  0  0  0  0  0  0  0
    5.0856    2.4481    0.0362 N   0  0  0  0  0  0  0  0  0  0  0  0
    4.3488    3.7270    0.0738 C   0  0  0  0  0  0  0  0  0  0  0  0
    3.4986    3.8451    1.3388 C   0  0  0  0  0  0  0  0  0  0  0  0
    5.2458    4.9882    0.0356 C   0  0  0  0  0  0  0  0  0  0  0  0
    6.4631    2.4450    0.0567 C   0  0  0  0  0  0  0  0  0  0  0  0
    7.1724    3.4487    0.0776 O   0  0  0  0  0  0  0  0  0  0  0  0
    7.1887    1.1285    0.0553 C   0  0  0  0  0  0  0  0  0  0  0  0
    6.5542   -0.0079    0.0533 N   0  0  0  0  0  0  0  0  0  0  0  0
    8.6444    1.1269    0.0605 C   0  0  0  0  0  0  0  0  0  0  0  0
    9.4983    2.2195    0.0625 C   0  0  0  0  0  0  0  0  0  0  0  0
   10.7657    1.7361    0.0740 N   0  0  0  0  0  0  0  0  0  0  0  0
   11.6284    2.2708    0.0826 H   0  0  0  0  0  0  0  0  0  0  0  0
   10.8128    0.3969    0.0723 N   0  0  0  0  0  0  0  0  0  0  0  0
    9.5262    0.0336    0.0631 C   0  0  0  0  0  0  0  0  0  0  0  0
    0.5567   -0.8422    0.0580 H   0  0  0  0  0  0  0  0  0  0  0  0
    0.5649    0.9218    0.0410 H   0  0  0  0  0  0  0  0  0  0  0  0
    4.3747   -3.2943    0.0734 H   0  0  0  0  0  0  0  0  0  0  0  0
    5.7130   -2.5518    0.9677 H   0  0  0  0  0  0  0  0  0  0  0  0
    5.7235   -2.5661   -0.8151 H   0  0  0  0  0  0  0  0  0  0  0  0
    3.7182    3.7548   -0.8227 H   0  0  0  0  0  0  0  0  0  0  0  0
    4.1270    3.7641    2.2326 H   0  0  0  0  0  0  0  0  0  0  0  0
    2.7361    3.0686    1.4074 H   0  0  0  0  0  0  0  0  0  0  0  0
    2.9781    4.8064    1.3589 H   0  0  0  0  0  0  0  0  0  0  0  0
    5.8894    5.0289    0.9283 H   0  0  0  0  0  0  0  0  0  0  0  0
    4.6776    5.9177    0.0335 H   0  0  0  0  0  0  0  0  0  0  0  0
    5.8763    4.9996   -0.8630 H   0  0  0  0  0  0  0  0  0  0  0  0
    9.3385    3.2912    0.0594 H   0  0  0  0  0  0  0  0  0  0  0  0
    9.2649   -1.0152    0.0589 H   0  0  0  0  0  0  0  0  0  0  0  0
  1  2  1  0  0  0  0
  1 23  1  0  0  0  0
  1 24  1  0  0  0  0
  2  3  2  0  0  0  0
  2  8  1  0  0  0  0
  3  4  1  0  0  0  0
  4  5  1  0  0  0  0
  4  6  2  0  0  0  0
  5 25  1  0  0  0  0
  5 26  1  0  0  0  0
  5 27  1  0  0  0  0
  6  7  1  0  0  0  0
  6 16  1  0  0  0  0
  7  8  2  0  0  0  0
  7  9  1  0  0  0  0
  9 10  1  0  0  0  0
  9 13  1  0  0  0  0
 10 11  1  0  0  0  0
 10 12  1  0  0  0  0
 10 28  1  0  0  0  0
 11 29  1  0  0  0  0
 11 30  1  0  0  0  0
 11 31  1  0  0  0  0
 12 32  1  0  0  0  0
 12 33  1  0  0  0  0
 12 34  1  0  0  0  0
 13 14  2  0  0  0  0
 13 15  1  0  0  0  0
 15 16  2  0  0  0  0
 15 17  1  0  0  0  0
 17 18  2  0  0  0  0
 17 22  1  0  0  0  0
 18 19  1  0  0  0  0
 18 35  1  0  0  0  0
 19 20  1  0  0  0  0
 19 21  1  0  0  0  0
 21 22  2  0  0  0  0
 22 36  1  0  0  0  0
M  END
$$$$
