OBG
 OpenBabel04121316163D

 29 31  0  0  0  0  0  0  0  0999 V2000
    1.1796   -0.0723   -0.0757 N   0  0  0  0  0  0  0  0  0  0  0  0
    2.5436   -0.0864   -0.0636 C   0  0  0  0  0  0  0  0  0  0  0  0
    3.1557    1.1162   -0.0515 N   0  0  0  0  0  0  0  0  0  0  0  0
    4.5094    1.1411   -0.0391 C   0  0  0  0  0  0  0  0  0  0  0  0
    5.2091    2.3157   -0.0012 O   0  0  0  0  0  0  0  0  0  0  0  0
    4.4499    3.5142   -0.0153 C   0  0  0  0  0  0  0  0  0  0  0  0
    5.4219    4.6819   -0.0221 C   0  0  0  0  0  0  0  0  0  0  0  0
    4.9471    5.9930    0.1158 C   0  0  0  0  0  0  0  0  0  0  0  0
    5.8114    7.0785   -0.0561 C   0  0  0  0  0  0  0  0  0  0  0  0
    7.1727    6.8672   -0.2719 C   0  0  0  0  0  0  0  0  0  0  0  0
    7.6753    5.5717   -0.3022 C   0  0  0  0  0  0  0  0  0  0  0  0
    6.8010    4.4896   -0.2225 C   0  0  0  0  0  0  0  0  0  0  0  0
    5.2302   -0.0489   -0.0447 C   0  0  0  0  0  0  0  0  0  0  0  0
    4.4732   -1.2042   -0.0546 C   0  0  0  0  0  0  0  0  0  0  0  0
    3.1378   -1.2975   -0.0631 N   0  0  0  0  0  0  0  0  0  0  0  0
    5.3883   -2.2189   -0.0482 N   0  0  0  0  0  0  0  0  0  0  0  0
    5.1735   -3.2053   -0.0486 H   0  0  0  0  0  0  0  0  0  0  0  0
    6.6360   -1.6560   -0.0371 C   0  0  0  0  0  0  0  0  0  0  0  0
    6.5768   -0.3420   -0.0356 N   0  0  0  0  0  0  0  0  0  0  0  0
    0.7145    0.8190   -0.0608 H   0  0  0  0  0  0  0  0  0  0  0  0
    0.6896   -0.9501   -0.0626 H   0  0  0  0  0  0  0  0  0  0  0  0
    3.8147    3.5707    0.8760 H   0  0  0  0  0  0  0  0  0  0  0  0
    3.8410    3.5694   -0.9269 H   0  0  0  0  0  0  0  0  0  0  0  0
    3.8995    6.1790    0.3397 H   0  0  0  0  0  0  0  0  0  0  0  0
    5.4226    8.0928   -0.0265 H   0  0  0  0  0  0  0  0  0  0  0  0
    7.8430    7.7100   -0.4138 H   0  0  0  0  0  0  0  0  0  0  0  0
    8.7423    5.3950   -0.4064 H   0  0  0  0  0  0  0  0  0  0  0  0
    7.2128    3.4866   -0.3263 H   0  0  0  0  0  0  0  0  0  0  0  0
    7.5450   -2.2425   -0.0293 H   0  0  0  0  0  0  0  0  0  0  0  0
  1  2  1  0  0  0  0
  1 20  1  0  0  0  0
  1 21  1  0  0  0  0
  2  3  2  0  0  0  0
  2 15  1  0  0  0  0
  3  4  1  0  0  0  0
  4  5  1  0  0  0  0
  4 13  2  0  0  0  0
  5  6  1  0  0  0  0
  6  7  1  0  0  0  0
  6 22  1  0  0  0  0
  6 23  1  0  0  0  0
  7  8  2  0  0  0  0
  7 12  1  0  0  0  0
  8  9  1  0  0  0  0
  8 24  1  0  0  0  0
  9 10  2  0  0  0  0
  9 25  1  0  0  0  0
 10 11  1  0  0  0  0
 10 26  1  0  0  0  0
 11 12  2  0  0  0  0
 11 27  1  0  0  0  0
 12 28  1  0  0  0  0
 13 14  1  0  0  0  0
 13 19  1  0  0  0  0
 14 15  2  0  0  0  0
 14 16  1  0  0  0  0
 16 17  1  0  0  0  0
 16 18  1  0  0  0  0
 18 19  2  0  0  0  0
 18 29  1  0  0  0  0
M  END
$$$$
