OBP
 OpenBabel04121316163D

 26 27  0  0  0  0  0  0  0  0999 V2000
    1.2192    0.2752    1.0164 O   0  0  0  0  0  0  0  0  0  0  0  0
    2.4786    0.2224    0.4949 C   0  0  0  0  0  0  0  0  0  0  0  0
    3.1356    1.4304    0.2750 C   0  0  0  0  0  0  0  0  0  0  0  0
    4.4544    1.4318   -0.1621 C   0  0  0  0  0  0  0  0  0  0  0  0
    5.1300    0.2245   -0.2982 C   0  0  0  0  0  0  0  0  0  0  0  0
    4.4351   -0.9763   -0.1534 C   0  0  0  0  0  0  0  0  0  0  0  0
    3.0518   -1.0032    0.1264 C   0  0  0  0  0  0  0  0  0  0  0  0
    2.2662   -2.2486   -0.1014 C   0  0  0  0  0  0  0  0  0  0  0  0
    2.9002   -3.4890    0.2100 C   0  0  0  0  0  0  0  0  0  0  0  0
    2.3303   -4.7317   -0.0744 C   0  0  0  0  0  0  0  0  0  0  0  0
    1.0372   -4.7867   -0.5524 C   0  0  0  0  0  0  0  0  0  0  0  0
    0.3579   -3.5998   -0.8066 C   0  0  0  0  0  0  0  0  0  0  0  0
    0.9732   -2.3284   -0.6938 C   0  0  0  0  0  0  0  0  0  0  0  0
   -0.0916   -1.0515   -1.5058 S   0  0  1  0  0  0  0  0  0  0  0  0
   -1.0652   -0.6158   -0.4508 O   0  0  0  0  0  0  0  0  0  0  0  0
    0.9281    0.1584   -1.7127 O   0  0  0  0  0  0  0  0  0  0  0  0
    0.6386    0.7007    0.3505 H   0  0  0  0  0  0  0  0  0  0  0  0
    2.6080    2.3684    0.4271 H   0  0  0  0  0  0  0  0  0  0  0  0
    4.9632    2.3688   -0.3628 H   0  0  0  0  0  0  0  0  0  0  0  0
    6.1861    0.2116   -0.5535 H   0  0  0  0  0  0  0  0  0  0  0  0
    4.9979   -1.8966   -0.3049 H   0  0  0  0  0  0  0  0  0  0  0  0
    3.8856   -3.5067    0.6760 H   0  0  0  0  0  0  0  0  0  0  0  0
    2.8890   -5.6480    0.1018 H   0  0  0  0  0  0  0  0  0  0  0  0
    0.5539   -5.7420   -0.7342 H   0  0  0  0  0  0  0  0  0  0  0  0
   -0.6808   -3.6685   -1.1309 H   0  0  0  0  0  0  0  0  0  0  0  0
    1.8446   -0.1472   -1.8953 H   0  0  0  0  0  0  0  0  0  0  0  0
  1  2  1  0  0  0  0
  1 17  1  0  0  0  0
  2  3  2  0  0  0  0
  2  7  1  0  0  0  0
  3  4  1  0  0  0  0
  3 18  1  0  0  0  0
  4  5  2  0  0  0  0
  4 19  1  0  0  0  0
  5  6  1  0  0  0  0
  5 20  1  0  0  0  0
  6  7  2  0  0  0  0
  6 21  1  0  0  0  0
  7  8  1  0  0  0  0
  8  9  2  0  0  0  0
  8 13  1  0  0  0  0
  9 10  1  0  0  0  0
  9 22  1  0  0  0  0
 10 11  2  0  0  0  0
 10 23  1  0  0  0  0
 11 12  1  0  0  0  0
 11 24  1  0  0  0  0
 12 13  2  0  0  0  0
 12 25  1  0  0  0  0
 14 13  1  1  0  0  0
 14 15  2  0  0  0  0
 14 16  1  0  0  0  0
 16 26  1  0  0  0  0
M  END
$$$$
