OCS
 OpenBabel04121316163D

 17 16  0  0  1  0  0  0  0  0999 V2000
    3.5010   -0.7969    3.3964 O   0  0  0  0  0  0  0  0  0  0  0  0
    2.7640   -0.2934    2.3789 C   0  0  0  0  0  0  0  0  0  0  0  0
    1.8249    0.4633    2.5762 O   0  0  0  0  0  0  0  0  0  0  0  0
    3.1568   -0.7957    0.9801 C   0  0  2  0  0  0  0  0  0  0  0  0
    2.6454   -0.1431    0.2614 H   0  0  0  0  0  0  0  0  0  0  0  0
    2.7202   -2.2341    0.7611 C   0  0  0  0  0  0  0  0  0  0  0  0
    0.9575   -2.4075    0.9902 S   0  0  0  0  0  0  0  0  0  0  0  0
    0.6465   -2.3289    2.3926 O   0  0  0  0  0  0  0  0  0  0  0  0
    0.2669   -1.6644   -0.0396 O   0  0  0  0  0  0  0  0  0  0  0  0
    0.8777   -3.9788    0.6208 O   0  0  0  0  0  0  0  0  0  0  0  0
    4.6138   -0.6243    0.7572 N   0  0  0  0  0  0  0  0  0  0  0  0
    4.1814   -1.4421    3.1452 H   0  0  0  0  0  0  0  0  0  0  0  0
    3.2095   -2.9195    1.4617 H   0  0  0  0  0  0  0  0  0  0  0  0
    2.9455   -2.5579   -0.2623 H   0  0  0  0  0  0  0  0  0  0  0  0
    0.9478   -4.5047    1.4471 H   0  0  0  0  0  0  0  0  0  0  0  0
    4.8532   -0.8607   -0.2074 H   0  0  0  0  0  0  0  0  0  0  0  0
    5.1923   -1.2004    1.3579 H   0  0  0  0  0  0  0  0  0  0  0  0
  1  2  1  0  0  0  0
  1 12  1  0  0  0  0
  2  3  2  0  0  0  0
  4  6  1  0  0  0  0
  4 11  1  0  0  0  0
  4  5  1  6  0  0  0
  4  2  1  0  0  0  0
  6  7  1  0  0  0  0
  6 13  1  0  0  0  0
  6 14  1  0  0  0  0
  7  8  2  0  0  0  0
  7  9  2  0  0  0  0
  7 10  1  0  0  0  0
 10 15  1  0  0  0  0
 11 16  1  0  0  0  0
 11 17  1  0  0  0  0
M  END
$$$$
