OCT
 OpenBabel04121316163D

 26 25  0  0  0  0  0  0  0  0999 V2000
    0.9289    0.1147   -0.0402 C   0  0  0  0  0  0  0  0  0  0  0  0
    2.4477    0.1030   -0.0358 C   0  0  0  0  0  0  0  0  0  0  0  0
    2.9788   -1.2371    0.4650 C   0  0  0  0  0  0  0  0  0  0  0  0
    4.5045   -1.2530    0.4709 C   0  0  0  0  0  0  0  0  0  0  0  0
    5.0275   -2.5964    0.9729 C   0  0  0  0  0  0  0  0  0  0  0  0
    6.5532   -2.6123    0.9789 C   0  0  0  0  0  0  0  0  0  0  0  0
    7.0843   -3.9523    1.4797 C   0  0  0  0  0  0  0  0  0  0  0  0
    8.6031   -3.9640    1.4840 C   0  0  0  0  0  0  0  0  0  0  0  0
    0.5581    1.0791   -0.4006 H   0  0  0  0  0  0  0  0  0  0  0  0
    0.5352   -0.0486    0.9678 H   0  0  0  0  0  0  0  0  0  0  0  0
    0.5352   -0.6697   -0.6940 H   0  0  0  0  0  0  0  0  0  0  0  0
    2.8161    0.9132    0.6036 H   0  0  0  0  0  0  0  0  0  0  0  0
    2.8161    0.2953   -1.0499 H   0  0  0  0  0  0  0  0  0  0  0  0
    2.6052   -2.0452   -0.1750 H   0  0  0  0  0  0  0  0  0  0  0  0
    2.6052   -1.4275    1.4781 H   0  0  0  0  0  0  0  0  0  0  0  0
    4.8807   -0.4470    1.1119 H   0  0  0  0  0  0  0  0  0  0  0  0
    4.8807   -1.0649   -0.5416 H   0  0  0  0  0  0  0  0  0  0  0  0
    4.6512   -3.4024    0.3319 H   0  0  0  0  0  0  0  0  0  0  0  0
    4.6512   -2.7845    1.9854 H   0  0  0  0  0  0  0  0  0  0  0  0
    6.9268   -1.8041    1.6188 H   0  0  0  0  0  0  0  0  0  0  0  0
    6.9268   -2.4219   -0.0342 H   0  0  0  0  0  0  0  0  0  0  0  0
    6.7159   -4.7625    0.8402 H   0  0  0  0  0  0  0  0  0  0  0  0
    6.7159   -4.1446    2.4937 H   0  0  0  0  0  0  0  0  0  0  0  0
    8.9968   -3.8007    0.4760 H   0  0  0  0  0  0  0  0  0  0  0  0
    8.9739   -4.9284    1.8444 H   0  0  0  0  0  0  0  0  0  0  0  0
    8.9968   -3.1796    2.1379 H   0  0  0  0  0  0  0  0  0  0  0  0
  1  2  1  0  0  0  0
  1  9  1  0  0  0  0
  1 10  1  0  0  0  0
  1 11  1  0  0  0  0
  2  3  1  0  0  0  0
  2 12  1  0  0  0  0
  2 13  1  0  0  0  0
  3  4  1  0  0  0  0
  3 14  1  0  0  0  0
  3 15  1  0  0  0  0
  4  5  1  0  0  0  0
  4 16  1  0  0  0  0
  4 17  1  0  0  0  0
  5  6  1  0  0  0  0
  5 18  1  0  0  0  0
  5 19  1  0  0  0  0
  6  7  1  0  0  0  0
  6 20  1  0  0  0  0
  6 21  1  0  0  0  0
  7  8  1  0  0  0  0
  7 22  1  0  0  0  0
  7 23  1  0  0  0  0
  8 24  1  0  0  0  0
  8 25  1  0  0  0  0
  8 26  1  0  0  0  0
M  END
$$$$
