ODT
 OpenBabel04121316163D

 50 49  0  0  0  0  0  0  0  0999 V2000
    0.8894    0.0385    0.0759 C   0  0  0  0  0  0  0  0  0  0  0  0
    2.3978    0.0418    0.0811 C   0  0  0  0  0  0  0  0  0  0  0  0
    2.9495    0.7939    1.2583 C   0  0  0  0  0  0  0  0  0  0  0  0
    4.2631    0.9314    1.4731 C   0  0  0  0  0  0  0  0  0  0  0  0
    5.2329    0.3625    0.5810 C   0  0  0  0  0  0  0  0  0  0  0  0
    6.5443    0.4824    0.7686 C   0  0  0  0  0  0  0  0  0  0  0  0
    7.4562   -0.1094   -0.1599 C   0  0  0  0  0  0  0  0  0  0  0  0
    8.7706    0.0044    0.0181 C   0  0  0  0  0  0  0  0  0  0  0  0
    9.7241   -0.6067   -0.9405 C   0  0  0  0  0  0  0  0  0  0  0  0
   11.1362   -0.3131   -0.4806 C   0  0  0  0  0  0  0  0  0  0  0  0
   12.1203   -0.9307   -1.4494 C   0  0  0  0  0  0  0  0  0  0  0  0
   13.5343   -0.6378   -0.9905 C   0  0  0  0  0  0  0  0  0  0  0  0
   14.5213   -1.2563   -1.9608 C   0  0  0  0  0  0  0  0  0  0  0  0
   15.9416   -0.9694   -1.5113 C   0  0  0  0  0  0  0  0  0  0  0  0
   16.9306   -1.5912   -2.4867 C   0  0  0  0  0  0  0  0  0  0  0  0
   18.3519   -1.3035   -2.0360 C   0  0  0  0  0  0  0  0  0  0  0  0
   19.3837   -1.9075   -2.9836 C   0  0  0  0  0  0  0  0  0  0  0  0
   20.7741   -1.5910   -2.4877 C   0  0  0  0  0  0  0  0  0  0  0  0
   21.0245   -0.9461   -1.4764 O   0  0  0  0  0  0  0  0  0  0  0  0
   21.7521   -2.0908   -3.2718 O   0  0  0  0  0  0  0  0  0  0  0  0
    0.5259   -0.5167   -0.7929 H   0  0  0  0  0  0  0  0  0  0  0  0
    0.5049    1.0612    0.0241 H   0  0  0  0  0  0  0  0  0  0  0  0
    0.5049   -0.4382    0.9823 H   0  0  0  0  0  0  0  0  0  0  0  0
    2.7537    0.5015   -0.8501 H   0  0  0  0  0  0  0  0  0  0  0  0
    2.7538   -0.9963    0.1069 H   0  0  0  0  0  0  0  0  0  0  0  0
    2.2584    1.2450    1.9651 H   0  0  0  0  0  0  0  0  0  0  0  0
    4.6203    1.4841    2.3388 H   0  0  0  0  0  0  0  0  0  0  0  0
    4.8847   -0.1916   -0.2876 H   0  0  0  0  0  0  0  0  0  0  0  0
    6.9382    1.0264    1.6214 H   0  0  0  0  0  0  0  0  0  0  0  0
    7.0657   -0.6561   -1.0170 H   0  0  0  0  0  0  0  0  0  0  0  0
    9.1579    0.5508    0.8749 H   0  0  0  0  0  0  0  0  0  0  0  0
    9.5608   -0.1917   -1.9425 H   0  0  0  0  0  0  0  0  0  0  0  0
    9.5611   -1.6903   -0.9869 H   0  0  0  0  0  0  0  0  0  0  0  0
   11.2967   -0.7175    0.5277 H   0  0  0  0  0  0  0  0  0  0  0  0
   11.2964    0.7717   -0.4219 H   0  0  0  0  0  0  0  0  0  0  0  0
   11.9578   -0.5243   -2.4552 H   0  0  0  0  0  0  0  0  0  0  0  0
   11.9581   -2.0141   -1.5051 H   0  0  0  0  0  0  0  0  0  0  0  0
   13.6912   -1.0427    0.0170 H   0  0  0  0  0  0  0  0  0  0  0  0
   13.6908    0.4465   -0.9327 H   0  0  0  0  0  0  0  0  0  0  0  0
   14.3576   -0.8501   -2.9664 H   0  0  0  0  0  0  0  0  0  0  0  0
   14.3579   -2.3395   -2.0167 H   0  0  0  0  0  0  0  0  0  0  0  0
   16.1006   -1.3734   -0.5036 H   0  0  0  0  0  0  0  0  0  0  0  0
   16.1002    0.1148   -1.4526 H   0  0  0  0  0  0  0  0  0  0  0  0
   16.7651   -1.1832   -3.4909 H   0  0  0  0  0  0  0  0  0  0  0  0
   16.7654   -2.6738   -2.5404 H   0  0  0  0  0  0  0  0  0  0  0  0
   18.5010   -1.7023   -1.0242 H   0  0  0  0  0  0  0  0  0  0  0  0
   18.5007   -0.2178   -1.9708 H   0  0  0  0  0  0  0  0  0  0  0  0
   19.2552   -1.4894   -3.9883 H   0  0  0  0  0  0  0  0  0  0  0  0
   19.2555   -2.9949   -3.0283 H   0  0  0  0  0  0  0  0  0  0  0  0
   21.4371   -2.5869   -4.0497 H   0  0  0  0  0  0  0  0  0  0  0  0
  1  2  1  0  0  0  0
  1 21  1  0  0  0  0
  1 22  1  0  0  0  0
  1 23  1  0  0  0  0
  2  3  1  0  0  0  0
  2 24  1  0  0  0  0
  2 25  1  0  0  0  0
  3  4  2  0  0  0  0
  3 26  1  0  0  0  0
  4  5  1  0  0  0  0
  4 27  1  0  0  0  0
  5  6  2  0  0  0  0
  5 28  1  0  0  0  0
  6  7  1  0  0  0  0
  6 29  1  0  0  0  0
  7  8  2  0  0  0  0
  7 30  1  0  0  0  0
  8  9  1  0  0  0  0
  8 31  1  0  0  0  0
  9 10  1  0  0  0  0
  9 32  1  0  0  0  0
  9 33  1  0  0  0  0
 10 11  1  0  0  0  0
 10 34  1  0  0  0  0
 10 35  1  0  0  0  0
 11 12  1  0  0  0  0
 11 36  1  0  0  0  0
 11 37  1  0  0  0  0
 12 13  1  0  0  0  0
 12 38  1  0  0  0  0
 12 39  1  0  0  0  0
 13 14  1  0  0  0  0
 13 40  1  0  0  0  0
 13 41  1  0  0  0  0
 14 15  1  0  0  0  0
 14 42  1  0  0  0  0
 14 43  1  0  0  0  0
 15 16  1  0  0  0  0
 15 44  1  0  0  0  0
 15 45  1  0  0  0  0
 16 17  1  0  0  0  0
 16 46  1  0  0  0  0
 16 47  1  0  0  0  0
 17 18  1  0  0  0  0
 17 48  1  0  0  0  0
 17 49  1  0  0  0  0
 18 19  2  0  0  0  0
 18 20  1  0  0  0  0
 20 50  1  0  0  0  0
M  END
$$$$
