OEG
 OpenBabel04121316163D

 15 14  0  0  0  0  0  0  0  0999 V2000
    0.9216    0.1113    0.0493 O   0  0  0  0  0  0  0  0  0  0  0  0
    2.2713    0.0087   -0.0259 C   0  0  0  0  0  0  0  0  0  0  0  0
    2.8332   -0.0942   -1.1081 O   0  0  0  0  0  0  0  0  0  0  0  0
    2.9732    0.0308    1.3359 C   0  0  0  0  0  0  0  0  0  0  0  0
    4.3789    0.0255    1.1493 O   0  0  0  0  0  0  0  0  0  0  0  0
    5.1473    0.0349    2.3401 C   0  0  0  0  0  0  0  0  0  0  0  0
    6.6407    0.0281    1.9998 C   0  0  0  0  0  0  0  0  0  0  0  0
    7.1094    0.0114    0.8693 O   0  0  0  0  0  0  0  0  0  0  0  0
    7.4475    0.0444    3.0893 O   0  0  0  0  0  0  0  0  0  0  0  0
    0.5571    0.2957    0.9326 H   0  0  0  0  0  0  0  0  0  0  0  0
    2.6763   -0.8610    1.8984 H   0  0  0  0  0  0  0  0  0  0  0  0
    2.6812    0.9390    1.8732 H   0  0  0  0  0  0  0  0  0  0  0  0
    4.9178   -0.8581    2.9309 H   0  0  0  0  0  0  0  0  0  0  0  0
    4.9221    0.9420    2.9106 H   0  0  0  0  0  0  0  0  0  0  0  0
    6.9953    0.0570    3.9512 H   0  0  0  0  0  0  0  0  0  0  0  0
  1  2  1  0  0  0  0
  1 10  1  0  0  0  0
  2  3  2  0  0  0  0
  2  4  1  0  0  0  0
  4  5  1  0  0  0  0
  4 11  1  0  0  0  0
  4 12  1  0  0  0  0
  5  6  1  0  0  0  0
  6  7  1  0  0  0  0
  6 13  1  0  0  0  0
  6 14  1  0  0  0  0
  7  8  2  0  0  0  0
  7  9  1  0  0  0  0
  9 15  1  0  0  0  0
M  END
$$$$
