OEV
 OpenBabel04121316163D

 49 49  0  0  1  0  0  0  0  0999 V2000
   19.5438    1.3248  -11.7433 C   0  0  0  0  0  0  0  0  0  0  0  0
   18.9619    1.8129  -10.4314 C   0  0  0  0  0  0  0  0  0  0  0  0
   17.4649    1.5477  -10.3845 C   0  0  0  0  0  0  0  0  0  0  0  0
   16.8789    2.0355   -9.0702 C   0  0  0  0  0  0  0  0  0  0  0  0
   15.3867    1.7620   -9.0410 C   0  0  0  0  0  0  0  0  0  0  0  0
   14.7914    2.2448   -7.7347 C   0  0  0  0  0  0  0  0  0  0  0  0
   13.2976    1.9681   -7.7352 C   0  0  0  0  0  0  0  0  0  0  0  0
   12.7004    2.4804   -6.4473 C   0  0  0  0  0  0  0  0  0  0  0  0
   11.2481    2.3014   -6.4934 N   0  0  0  0  0  0  0  0  0  0  0  0
   10.6077    2.6807   -5.2178 C   0  0  2  0  0  0  0  0  0  0  0  0
    9.5232    2.6636   -5.3897 H   0  0  0  0  0  0  0  0  0  0  0  0
   10.9601    4.1081   -4.9420 C   0  0  0  0  0  0  0  0  0  0  0  0
   11.7502    4.5093   -3.9270 C   0  0  0  0  0  0  0  0  0  0  0  0
   12.2725    5.9124   -3.7511 C   0  0  0  0  0  0  0  0  0  0  0  0
   11.8581    6.7775   -4.7957 O   0  0  0  0  0  0  0  0  0  0  0  0
   12.2143    3.5555   -2.8752 C   0  0  2  0  0  0  0  0  0  0  0  0
   13.3029    3.6541   -2.7740 H   0  0  0  0  0  0  0  0  0  0  0  0
   11.8573    2.0600   -2.9824 C   0  0  1  0  0  0  0  0  0  0  0  0
   11.3796    1.7582   -2.0422 H   0  0  0  0  0  0  0  0  0  0  0  0
   10.9425    1.6247   -4.1326 C   0  0  1  0  0  0  0  0  0  0  0  0
   11.4003    0.7522   -4.6194 H   0  0  0  0  0  0  0  0  0  0  0  0
    9.7172    1.0978   -3.5873 O   0  0  0  0  0  0  0  0  0  0  0  0
   13.0554    1.2584   -3.0436 O   0  0  0  0  0  0  0  0  0  0  0  0
   11.6344    4.0252   -1.6531 O   0  0  0  0  0  0  0  0  0  0  0  0
   20.6194    1.5162  -11.7748 H   0  0  0  0  0  0  0  0  0  0  0  0
   19.0758    1.8387  -12.5890 H   0  0  0  0  0  0  0  0  0  0  0  0
   19.3800    0.2490  -11.8626 H   0  0  0  0  0  0  0  0  0  0  0  0
   19.1540    2.8864  -10.3194 H   0  0  0  0  0  0  0  0  0  0  0  0
   19.4569    1.3039   -9.5962 H   0  0  0  0  0  0  0  0  0  0  0  0
   17.2708    0.4738  -10.4983 H   0  0  0  0  0  0  0  0  0  0  0  0
   16.9680    2.0555  -11.2206 H   0  0  0  0  0  0  0  0  0  0  0  0
   17.0625    3.1105   -8.9525 H   0  0  0  0  0  0  0  0  0  0  0  0
   17.3663    1.5278   -8.2290 H   0  0  0  0  0  0  0  0  0  0  0  0
   15.1979    0.6878   -9.1568 H   0  0  0  0  0  0  0  0  0  0  0  0
   14.8956    2.2710   -9.8796 H   0  0  0  0  0  0  0  0  0  0  0  0
   14.9761    3.3200   -7.6126 H   0  0  0  0  0  0  0  0  0  0  0  0
   15.2710    1.7386   -6.8873 H   0  0  0  0  0  0  0  0  0  0  0  0
   13.1126    0.8920   -7.8357 H   0  0  0  0  0  0  0  0  0  0  0  0
   12.8256    2.4710   -8.5878 H   0  0  0  0  0  0  0  0  0  0  0  0
   12.9584    3.5412   -6.3535 H   0  0  0  0  0  0  0  0  0  0  0  0
   13.1584    1.9499   -5.6055 H   0  0  0  0  0  0  0  0  0  0  0  0
   11.0436    1.3140   -6.6613 H   0  0  0  0  0  0  0  0  0  0  0  0
   10.6245    4.8178   -5.6942 H   0  0  0  0  0  0  0  0  0  0  0  0
   13.3694    5.9061   -3.7380 H   0  0  0  0  0  0  0  0  0  0  0  0
   11.9224    6.3315   -2.8035 H   0  0  0  0  0  0  0  0  0  0  0  0
   12.1571    6.3746   -5.6282 H   0  0  0  0  0  0  0  0  0  0  0  0
    9.9778    0.4067   -2.9514 H   0  0  0  0  0  0  0  0  0  0  0  0
   13.6487    1.5665   -2.3353 H   0  0  0  0  0  0  0  0  0  0  0  0
   10.6674    3.9901   -1.7904 H   0  0  0  0  0  0  0  0  0  0  0  0
  1  2  1  0  0  0  0
  1 25  1  0  0  0  0
  1 26  1  0  0  0  0
  1 27  1  0  0  0  0
  2  3  1  0  0  0  0
  2 28  1  0  0  0  0
  2 29  1  0  0  0  0
  3  4  1  0  0  0  0
  3 30  1  0  0  0  0
  3 31  1  0  0  0  0
  4  5  1  0  0  0  0
  4 32  1  0  0  0  0
  4 33  1  0  0  0  0
  5  6  1  0  0  0  0
  5 34  1  0  0  0  0
  5 35  1  0  0  0  0
  6  7  1  0  0  0  0
  6 36  1  0  0  0  0
  6 37  1  0  0  0  0
  7  8  1  0  0  0  0
  7 38  1  0  0  0  0
  7 39  1  0  0  0  0
  8  9  1  0  0  0  0
  8 40  1  0  0  0  0
  8 41  1  0  0  0  0
  9 42  1  0  0  0  0
 10 12  1  0  0  0  0
 10 20  1  0  0  0  0
 10 11  1  6  0  0  0
 10  9  1  0  0  0  0
 12 13  2  0  0  0  0
 12 43  1  0  0  0  0
 13 14  1  0  0  0  0
 13 16  1  0  0  0  0
 14 15  1  0  0  0  0
 14 44  1  0  0  0  0
 14 45  1  0  0  0  0
 15 46  1  0  0  0  0
 16 18  1  0  0  0  0
 16 24  1  0  0  0  0
 16 17  1  1  0  0  0
 18 19  1  1  0  0  0
 18 20  1  0  0  0  0
 18 23  1  0  0  0  0
 20 21  1  6  0  0  0
 20 22  1  0  0  0  0
 22 47  1  0  0  0  0
 23 48  1  0  0  0  0
 24 49  1  0  0  0  0
M  END
$$$$
