OGK
 OpenBabel04121316163D

 50 52  0  0  1  0  0  0  0  0999 V2000
    0.8947    0.0034    0.1326 C   0  0  0  0  0  0  0  0  0  0  0  0
    2.3908    0.0238    0.1318 C   0  0  0  0  0  0  0  0  0  0  0  0
    3.1015    0.1257    1.4928 C   0  0  1  0  0  0  0  0  0  0  0  0
    3.5464   -0.8706    1.6487 H   0  0  0  0  0  0  0  0  0  0  0  0
    4.1948    1.1766    1.2011 C   0  0  0  0  0  0  0  0  0  0  0  0
    5.1366    1.3391    2.3646 C   0  0  2  0  0  0  0  0  0  0  0  0
    5.9179    2.0750    2.1463 H   0  0  0  0  0  0  0  0  0  0  0  0
    5.8120   -0.0038    2.3785 C   0  0  0  0  0  0  0  0  0  0  0  0
    6.2254   -0.5247    1.3373 O   0  0  0  0  0  0  0  0  0  0  0  0
    5.8883   -0.6571    3.5790 N   0  0  0  0  0  0  0  0  0  0  0  0
    6.7684   -1.7972    3.5440 C   0  0  1  0  0  0  0  0  0  0  0  0
    6.4744   -2.9556    4.4699 C   0  0  0  0  0  0  0  0  0  0  0  0
    6.0352   -3.0527    3.0344 C   0  0  2  0  0  0  0  0  0  0  0  0
    4.9568   -2.9546    2.8838 H   0  0  0  0  0  0  0  0  0  0  0  0
    6.5586   -4.0492    2.0567 C   0  0  0  0  0  0  0  0  0  0  0  0
    5.8574   -3.9184    0.7050 C   0  0  0  0  0  0  0  0  0  0  0  0
    8.1909   -1.3112    3.2056 C   0  0  0  0  0  0  0  0  0  0  0  0
    8.4380   -0.1141    3.1888 O   0  0  0  0  0  0  0  0  0  0  0  0
    9.1654   -2.2187    2.9927 O   0  0  0  0  0  0  0  0  0  0  0  0
    4.3714    1.7660    3.6049 C   0  0  2  0  0  0  0  0  0  0  0  0
    5.0809    1.9040    4.4360 H   0  0  0  0  0  0  0  0  0  0  0  0
    3.2713    0.7772    4.0139 C   0  0  2  0  0  0  0  0  0  0  0  0
    3.6637   -0.1163    4.5098 H   0  0  0  0  0  0  0  0  0  0  0  0
    2.3387    0.3983    2.8287 C   0  0  0  0  0  0  0  0  0  0  0  0
    2.6532    1.6714    5.0689 C   0  0  0  0  0  0  0  0  0  0  0  0
    2.3672    1.2990    6.2005 O   0  0  0  0  0  0  0  0  0  0  0  0
    2.6201    3.1129    4.6288 C   0  0  0  0  0  0  0  0  0  0  0  0
    3.5810    3.0855    3.4430 C   0  0  0  0  0  0  0  0  0  0  0  0
    0.5493    0.0149   -0.9069 H   0  0  0  0  0  0  0  0  0  0  0  0
    0.5052    0.8980    0.6231 H   0  0  0  0  0  0  0  0  0  0  0  0
    0.5200   -0.8944    0.6226 H   0  0  0  0  0  0  0  0  0  0  0  0
    2.6846    0.8661   -0.5128 H   0  0  0  0  0  0  0  0  0  0  0  0
    2.7886   -0.8540   -0.3980 H   0  0  0  0  0  0  0  0  0  0  0  0
    3.7536    2.1358    0.9255 H   0  0  0  0  0  0  0  0  0  0  0  0
    4.7544    0.8664    0.3066 H   0  0  0  0  0  0  0  0  0  0  0  0
    5.8863   -0.1092    4.4290 H   0  0  0  0  0  0  0  0  0  0  0  0
    5.6865   -2.7957    5.2070 H   0  0  0  0  0  0  0  0  0  0  0  0
    7.2581   -3.6063    4.8233 H   0  0  0  0  0  0  0  0  0  0  0  0
    6.3682   -5.0570    2.4438 H   0  0  0  0  0  0  0  0  0  0  0  0
    7.6311   -3.9590    1.9004 H   0  0  0  0  0  0  0  0  0  0  0  0
    4.7780   -4.0871    0.7979 H   0  0  0  0  0  0  0  0  0  0  0  0
    6.2509   -4.6509   -0.0063 H   0  0  0  0  0  0  0  0  0  0  0  0
    5.9976   -2.9200    0.2803 H   0  0  0  0  0  0  0  0  0  0  0  0
    8.8783   -3.1345    3.0812 H   0  0  0  0  0  0  0  0  0  0  0  0
    1.5718    1.1655    2.6928 H   0  0  0  0  0  0  0  0  0  0  0  0
    1.7966   -0.5104    3.1294 H   0  0  0  0  0  0  0  0  0  0  0  0
    3.0001    3.7602    5.4206 H   0  0  0  0  0  0  0  0  0  0  0  0
    1.6084    3.4017    4.3323 H   0  0  0  0  0  0  0  0  0  0  0  0
    4.2351    3.9603    3.4156 H   0  0  0  0  0  0  0  0  0  0  0  0
    2.9833    3.1080    2.5257 H   0  0  0  0  0  0  0  0  0  0  0  0
  1  2  1  0  0  0  0
  1 29  1  0  0  0  0
  1 30  1  0  0  0  0
  1 31  1  0  0  0  0
  2  3  1  0  0  0  0
  2 32  1  0  0  0  0
  2 33  1  0  0  0  0
  3  5  1  0  0  0  0
  3 24  1  0  0  0  0
  3  4  1  1  0  0  0
  5  6  1  0  0  0  0
  5 34  1  0  0  0  0
  5 35  1  0  0  0  0
  6 20  1  0  0  0  0
  6  7  1  6  0  0  0
  6  8  1  0  0  0  0
  8  9  2  0  0  0  0
  8 10  1  0  0  0  0
 10 36  1  0  0  0  0
 11 10  1  1  0  0  0
 11 12  1  0  0  0  0
 11 13  1  0  0  0  0
 11 17  1  0  0  0  0
 12 13  1  0  0  0  0
 12 37  1  0  0  0  0
 12 38  1  0  0  0  0
 13 14  1  6  0  0  0
 13 15  1  0  0  0  0
 15 16  1  0  0  0  0
 15 39  1  0  0  0  0
 15 40  1  0  0  0  0
 16 41  1  0  0  0  0
 16 42  1  0  0  0  0
 16 43  1  0  0  0  0
 17 18  2  0  0  0  0
 17 19  1  0  0  0  0
 19 44  1  0  0  0  0
 20 22  1  0  0  0  0
 20 28  1  0  0  0  0
 20 21  1  1  0  0  0
 22 24  1  0  0  0  0
 22 25  1  0  0  0  0
 22 23  1  1  0  0  0
 24 45  1  0  0  0  0
 24 46  1  0  0  0  0
 25 27  1  0  0  0  0
 25 26  2  0  0  0  0
 27 28  1  0  0  0  0
 27 47  1  0  0  0  0
 27 48  1  0  0  0  0
 28 49  1  0  0  0  0
 28 50  1  0  0  0  0
M  END
$$$$
