OHH
 OpenBabel04121316163D

 84 90  0  0  1  0  0  0  0  0999 V2000
    1.7991   -0.7847   -2.6775 O   0  0  0  0  0  0  0  0  0  0  0  0
    3.5291   -0.7847   -2.6775 P   0  0  0  0  0  0  0  0  0  0  0  0
    3.7031    0.7120   -2.3242 O   0  0  0  0  0  0  0  0  0  0  0  0
    2.8625   -1.0937   -0.2059 C   0  0  2  0  0  0  0  0  0  0  0  0
    2.9185   -0.0678    0.2489 H   0  0  0  0  0  0  0  0  0  0  0  0
    3.5356   -2.3295    0.5027 C   0  0  0  0  0  0  0  0  0  0  0  0
    2.9292   -3.5932    0.6972 C   0  0  0  0  0  0  0  0  0  0  0  0
    3.3508   -4.7577    1.2744 C   0  0  0  0  0  0  0  0  0  0  0  0
    4.6406   -4.7484    1.5694 C   0  0  0  0  0  0  0  0  0  0  0  0
    5.2842   -3.5197    1.5137 C   0  0  0  0  0  0  0  0  0  0  0  0
    4.7472   -2.3009    0.9983 C   0  0  0  0  0  0  0  0  0  0  0  0
    5.3303   -1.0713    1.0266 C   0  0  0  0  0  0  0  0  0  0  0  0
    6.5586   -1.0509    1.5840 C   0  0  0  0  0  0  0  0  0  0  0  0
    7.1679   -2.2542    1.9858 C   0  0  0  0  0  0  0  0  0  0  0  0
    6.5111   -3.4759    2.0366 C   0  0  0  0  0  0  0  0  0  0  0  0
    0.7539   -1.5603   -0.4491 C   0  0  0  0  0  0  0  0  0  0  0  0
    0.1714   -1.1512    0.6165 O   0  0  0  0  0  0  0  0  0  0  0  0
    0.2869   -2.3007   -2.4280 C   0  0  0  0  0  0  0  0  0  0  0  0
    0.2605   -3.9787   -2.9174 C   0  0  0  0  0  0  0  0  0  0  0  0
    0.2619   -5.0972   -3.7560 C   0  0  0  0  0  0  0  0  0  0  0  0
    0.2520   -6.4442   -3.2356 C   0  0  0  0  0  0  0  0  0  0  0  0
    0.8623   -7.4734   -3.8830 C   0  0  0  0  0  0  0  0  0  0  0  0
    1.1709   -7.1596   -5.1816 C   0  0  0  0  0  0  0  0  0  0  0  0
    0.8823   -5.8533   -5.7307 C   0  0  0  0  0  0  0  0  0  0  0  0
    0.6195   -4.6901   -4.9577 C   0  0  0  0  0  0  0  0  0  0  0  0
    0.5521   -3.1828   -5.1104 C   0  0  0  0  0  0  0  0  0  0  0  0
    0.2967   -2.0533   -3.9445 C   0  0  0  0  0  0  0  0  0  0  0  0
    0.3252   -0.6862   -4.4784 C   0  0  0  0  0  0  0  0  0  0  0  0
    0.8274   -0.4847   -5.5823 O   0  0  0  0  0  0  0  0  0  0  0  0
    0.2088    0.2814   -3.4324 N   0  0  0  0  0  0  0  0  0  0  0  0
    0.3244   -0.3443   -1.7970 C   0  0  0  0  0  0  0  0  0  0  0  0
   -1.2234   -0.9287   -1.3208 C   0  0  0  0  0  0  0  0  0  0  0  0
   -1.2471   -2.7011   -1.2799 C   0  0  0  0  0  0  0  0  0  0  0  0
    0.4540   -3.5917   -0.9177 N   0  0  0  0  0  0  0  0  0  0  0  0
    2.0816   -3.1129   -1.9405 C   0  0  0  0  0  0  0  0  0  0  0  0
    1.9247   -1.7984   -1.5173 C   0  0  0  0  0  0  0  0  0  0  0  0
    0.3237   -4.9695   -0.5906 C   0  0  0  0  0  0  0  0  0  0  0  0
   -0.8211   -5.3803   -0.4173 O   0  0  0  0  0  0  0  0  0  0  0  0
    1.6656   -5.9312   -0.8661 C   0  0  0  0  0  0  0  0  0  0  0  0
    1.5309   -7.2667   -0.6345 C   0  0  0  0  0  0  0  0  0  0  0  0
    2.6705   -8.0634   -0.7840 C   0  0  0  0  0  0  0  0  0  0  0  0
    3.9867   -7.5303   -0.9416 C   0  0  0  0  0  0  0  0  0  0  0  0
    4.1756   -6.2261   -1.2606 C   0  0  0  0  0  0  0  0  0  0  0  0
    2.9744   -5.5802   -1.4009 C   0  0  0  0  0  0  0  0  0  0  0  0
    5.4487   -5.5301   -1.1952 C   0  0  0  0  0  0  0  0  0  0  0  0
    6.5750   -6.2426   -0.8796 C   0  0  0  0  0  0  0  0  0  0  0  0
    6.4159   -7.6177   -0.8298 C   0  0  0  0  0  0  0  0  0  0  0  0
    5.1489   -8.2273   -0.7174 C   0  0  0  0  0  0  0  0  0  0  0  0
    0.8432    1.6057   -3.7149 C   0  0  0  0  0  0  0  0  0  0  0  0
    5.2591   -0.7847   -2.6775 O   0  0  0  0  0  0  0  0  0  0  0  0
    1.7773   -0.1237   -3.3984 H   0  0  0  0  0  0  0  0  0  0  0  0
    2.1726   -3.9041    0.0459 H   0  0  0  0  0  0  0  0  0  0  0  0
    2.8296   -5.6938    1.1155 H   0  0  0  0  0  0  0  0  0  0  0  0
    5.1043   -5.7223    1.6545 H   0  0  0  0  0  0  0  0  0  0  0  0
    4.8530   -0.1531    0.6972 H   0  0  0  0  0  0  0  0  0  0  0  0
    6.9935   -0.0727    1.7070 H   0  0  0  0  0  0  0  0  0  0  0  0
    8.1971   -2.2411    2.2782 H   0  0  0  0  0  0  0  0  0  0  0  0
    6.8600   -4.3704    2.5330 H   0  0  0  0  0  0  0  0  0  0  0  0
    1.1033   -4.5350   -2.4329 H   0  0  0  0  0  0  0  0  0  0  0  0
   -0.1770   -6.6393   -2.2597 H   0  0  0  0  0  0  0  0  0  0  0  0
    0.9888   -8.4452   -3.3993 H   0  0  0  0  0  0  0  0  0  0  0  0
    1.5796   -7.9446   -5.8028 H   0  0  0  0  0  0  0  0  0  0  0  0
    0.7191   -5.7439   -6.7880 H   0  0  0  0  0  0  0  0  0  0  0  0
    0.7702   -2.8802   -6.1378 H   0  0  0  0  0  0  0  0  0  0  0  0
    0.6053    0.6108   -1.2490 H   0  0  0  0  0  0  0  0  0  0  0  0
   -1.9374   -0.2870   -1.8472 H   0  0  0  0  0  0  0  0  0  0  0  0
   -1.5022   -0.7696   -0.2855 H   0  0  0  0  0  0  0  0  0  0  0  0
   -1.5408   -2.6705   -2.4335 H   0  0  0  0  0  0  0  0  0  0  0  0
   -2.1460   -3.2672   -1.1161 H   0  0  0  0  0  0  0  0  0  0  0  0
    2.1829   -3.0521   -3.0576 H   0  0  0  0  0  0  0  0  0  0  0  0
    3.1657   -3.2059   -1.7714 H   0  0  0  0  0  0  0  0  0  0  0  0
    2.1634   -0.3361   -1.2934 H   0  0  0  0  0  0  0  0  0  0  0  0
    2.0169   -2.4488   -0.6697 H   0  0  0  0  0  0  0  0  0  0  0  0
    0.5474   -7.6872   -0.4573 H   0  0  0  0  0  0  0  0  0  0  0  0
    2.5424   -9.1315   -0.7467 H   0  0  0  0  0  0  0  0  0  0  0  0
    3.3431   -4.6769   -1.7454 H   0  0  0  0  0  0  0  0  0  0  0  0
    5.5343   -4.4327   -1.1721 H   0  0  0  0  0  0  0  0  0  0  0  0
    7.5198   -5.7480   -0.6491 H   0  0  0  0  0  0  0  0  0  0  0  0
    7.2843   -8.2486   -0.9296 H   0  0  0  0  0  0  0  0  0  0  0  0
    5.0401   -9.2444   -0.3753 H   0  0  0  0  0  0  0  0  0  0  0  0
    1.0108    1.7337   -4.7914 H   0  0  0  0  0  0  0  0  0  0  0  0
    1.8469    1.6811   -3.2659 H   0  0  0  0  0  0  0  0  0  0  0  0
    0.2213    2.3606   -3.2636 H   0  0  0  0  0  0  0  0  0  0  0  0
    5.6234   -0.3238   -3.4566 H   0  0  0  0  0  0  0  0  0  0  0  0
  1  2  1  0  0  0  0
  1 51  1  0  0  0  0
  2  3  2  0  0  0  0
  2 50  1  0  0  0  0
  4  6  1  0  0  0  0
  4 16  1  0  0  0  0
  4  5  1  1  0  0  0
  4  2  1  0  0  0  0
  6  7  2  0  0  0  0
  6 11  1  0  0  0  0
  7  8  1  0  0  0  0
  7 52  1  0  0  0  0
  8  9  2  0  0  0  0
  8 53  1  0  0  0  0
  9 10  1  0  0  0  0
  9 54  1  0  0  0  0
 10 11  2  0  0  0  0
 10 15  1  0  0  0  0
 11 12  1  0  0  0  0
 12 13  2  0  0  0  0
 12 55  1  0  0  0  0
 13 14  1  0  0  0  0
 13 56  1  0  0  0  0
 14 15  2  0  0  0  0
 14 57  1  0  0  0  0
 15 58  1  0  0  0  0
 16 17  2  0  0  0  0
 16 18  1  0  0  0  0
 18 19  2  0  0  0  0
 18 27  1  0  0  0  0
 19 20  1  0  0  0  0
 19 59  1  0  0  0  0
 20 21  2  0  0  0  0
 20 25  1  0  0  0  0
 21 22  1  0  0  0  0
 21 60  1  0  0  0  0
 22 23  2  0  0  0  0
 22 61  1  0  0  0  0
 23 24  1  0  0  0  0
 23 62  1  0  0  0  0
 24 25  2  0  0  0  0
 24 63  1  0  0  0  0
 25 26  1  0  0  0  0
 26 27  2  0  0  0  0
 26 64  1  0  0  0  0
 27 28  1  0  0  0  0
 28 29  2  0  0  0  0
 28 30  1  0  0  0  0
 30 31  1  0  0  0  0
 30 49  1  0  0  0  0
 31 32  1  0  0  0  0
 31 36  1  0  0  0  0
 31 65  1  0  0  0  0
 32 33  1  0  0  0  0
 32 66  1  0  0  0  0
 32 67  1  0  0  0  0
 33 34  1  0  0  0  0
 33 68  1  0  0  0  0
 33 69  1  0  0  0  0
 34 35  1  0  0  0  0
 34 37  1  0  0  0  0
 35 36  1  0  0  0  0
 35 70  1  0  0  0  0
 35 71  1  0  0  0  0
 36 72  1  0  0  0  0
 36 73  1  0  0  0  0
 37 38  2  0  0  0  0
 37 39  1  0  0  0  0
 39 40  2  0  0  0  0
 39 44  1  0  0  0  0
 40 41  1  0  0  0  0
 40 74  1  0  0  0  0
 41 42  2  0  0  0  0
 41 75  1  0  0  0  0
 42 43  1  0  0  0  0
 42 48  1  0  0  0  0
 43 44  2  0  0  0  0
 43 45  1  0  0  0  0
 44 76  1  0  0  0  0
 45 46  2  0  0  0  0
 45 77  1  0  0  0  0
 46 47  1  0  0  0  0
 46 78  1  0  0  0  0
 47 48  2  0  0  0  0
 47 79  1  0  0  0  0
 48 80  1  0  0  0  0
 49 81  1  0  0  0  0
 49 82  1  0  0  0  0
 49 83  1  0  0  0  0
 50 84  1  0  0  0  0
M  END
$$$$
