OHT
 OpenBabel04121316163D

 58 60  0  0  0  0  0  0  0  0999 V2000
    1.0684    0.3844    0.4040 C   0  0  0  0  0  0  0  0  0  0  0  0
    2.5493    0.1317    0.1542 C   0  0  0  0  0  0  0  0  0  0  0  0
    2.9741   -0.7977   -0.9890 C   0  0  0  0  0  0  0  0  0  0  0  0
    2.1295   -1.4594   -1.8566 C   0  0  0  0  0  0  0  0  0  0  0  0
    0.6497   -1.4283   -1.7322 C   0  0  0  0  0  0  0  0  0  0  0  0
   -0.0168   -2.2875   -0.8460 C   0  0  0  0  0  0  0  0  0  0  0  0
   -1.4101   -2.2953   -0.7989 C   0  0  0  0  0  0  0  0  0  0  0  0
   -2.1269   -1.4510   -1.6447 C   0  0  0  0  0  0  0  0  0  0  0  0
   -1.4810   -0.5559   -2.4861 C   0  0  0  0  0  0  0  0  0  0  0  0
   -0.0937   -0.5590   -2.5463 C   0  0  0  0  0  0  0  0  0  0  0  0
   -3.4884   -1.4752   -1.6741 O   0  0  0  0  0  0  0  0  0  0  0  0
    2.6109   -2.2776   -2.9970 C   0  0  0  0  0  0  0  0  0  0  0  0
    2.2293   -1.9973   -4.3202 C   0  0  0  0  0  0  0  0  0  0  0  0
    2.5025   -2.9088   -5.3298 C   0  0  0  0  0  0  0  0  0  0  0  0
    3.3375   -3.9837   -5.0707 C   0  0  0  0  0  0  0  0  0  0  0  0
    3.8186   -4.1888   -3.7784 C   0  0  0  0  0  0  0  0  0  0  0  0
    3.2788   -3.4640   -2.7508 C   0  0  0  0  0  0  0  0  0  0  0  0
    3.5849   -4.8225   -6.1157 O   0  0  0  0  0  0  0  0  0  0  0  0
    4.3765   -5.9433   -5.7332 C   0  0  0  0  0  0  0  0  0  0  0  0
    4.4308   -6.9300   -6.8788 C   0  0  0  0  0  0  0  0  0  0  0  0
    5.3319   -8.0562   -6.5845 N   0  0  0  0  0  0  0  0  0  0  0  0
    4.8828   -8.8308   -5.4238 C   0  0  0  0  0  0  0  0  0  0  0  0
    5.4046   -8.9169   -7.7620 C   0  0  0  0  0  0  0  0  0  0  0  0
    4.4826   -0.8672   -1.1269 C   0  0  0  0  0  0  0  0  0  0  0  0
    5.2651    0.2666   -1.3835 C   0  0  0  0  0  0  0  0  0  0  0  0
    6.6086    0.1377   -1.7750 C   0  0  0  0  0  0  0  0  0  0  0  0
    7.1977   -1.1171   -1.9006 C   0  0  0  0  0  0  0  0  0  0  0  0
    6.4871   -2.2344   -1.4911 C   0  0  0  0  0  0  0  0  0  0  0  0
    5.1758   -2.0811   -1.0351 C   0  0  0  0  0  0  0  0  0  0  0  0
    0.8899    1.1062    1.2004 H   0  0  0  0  0  0  0  0  0  0  0  0
    0.5798   -0.5341    0.7304 H   0  0  0  0  0  0  0  0  0  0  0  0
    0.5875    0.7943   -0.4875 H   0  0  0  0  0  0  0  0  0  0  0  0
    2.9723   -0.2647    1.0853 H   0  0  0  0  0  0  0  0  0  0  0  0
    2.9944    1.1204   -0.0076 H   0  0  0  0  0  0  0  0  0  0  0  0
    0.5512   -2.8929   -0.1422 H   0  0  0  0  0  0  0  0  0  0  0  0
   -1.9146   -2.9372   -0.0846 H   0  0  0  0  0  0  0  0  0  0  0  0
   -2.0481    0.1455   -3.0900 H   0  0  0  0  0  0  0  0  0  0  0  0
    0.4140    0.1376   -3.2078 H   0  0  0  0  0  0  0  0  0  0  0  0
   -3.7819   -2.2691   -1.1980 H   0  0  0  0  0  0  0  0  0  0  0  0
    1.6503   -1.1151   -4.5638 H   0  0  0  0  0  0  0  0  0  0  0  0
    2.0598   -2.7832   -6.3156 H   0  0  0  0  0  0  0  0  0  0  0  0
    4.5482   -4.9461   -3.5201 H   0  0  0  0  0  0  0  0  0  0  0  0
    3.4044   -3.8391   -1.7419 H   0  0  0  0  0  0  0  0  0  0  0  0
    3.9194   -6.4400   -4.8672 H   0  0  0  0  0  0  0  0  0  0  0  0
    5.3911   -5.6007   -5.4905 H   0  0  0  0  0  0  0  0  0  0  0  0
    4.7799   -6.3821   -7.7633 H   0  0  0  0  0  0  0  0  0  0  0  0
    3.4132   -7.2722   -7.1094 H   0  0  0  0  0  0  0  0  0  0  0  0
    4.9052   -8.2356   -4.5042 H   0  0  0  0  0  0  0  0  0  0  0  0
    5.5589   -9.6709   -5.2369 H   0  0  0  0  0  0  0  0  0  0  0  0
    3.8665   -9.2165   -5.5593 H   0  0  0  0  0  0  0  0  0  0  0  0
    5.7767   -8.3533   -8.6247 H   0  0  0  0  0  0  0  0  0  0  0  0
    4.4242   -9.3344   -8.0170 H   0  0  0  0  0  0  0  0  0  0  0  0
    6.1051   -9.7391   -7.5904 H   0  0  0  0  0  0  0  0  0  0  0  0
    4.8453    1.2631   -1.2993 H   0  0  0  0  0  0  0  0  0  0  0  0
    7.1907    1.0251   -2.0123 H   0  0  0  0  0  0  0  0  0  0  0  0
    8.2094   -1.2253   -2.2800 H   0  0  0  0  0  0  0  0  0  0  0  0
    6.9345   -3.2234   -1.5368 H   0  0  0  0  0  0  0  0  0  0  0  0
    4.6809   -2.9612   -0.6439 H   0  0  0  0  0  0  0  0  0  0  0  0
  1  2  1  0  0  0  0
  1 30  1  0  0  0  0
  1 31  1  0  0  0  0
  1 32  1  0  0  0  0
  2  3  1  0  0  0  0
  2 33  1  0  0  0  0
  2 34  1  0  0  0  0
  3  4  2  0  0  0  0
  3 24  1  0  0  0  0
  4  5  1  0  0  0  0
  4 12  1  0  0  0  0
  5  6  2  0  0  0  0
  5 10  1  0  0  0  0
  6  7  1  0  0  0  0
  6 35  1  0  0  0  0
  7  8  2  0  0  0  0
  7 36  1  0  0  0  0
  8  9  1  0  0  0  0
  8 11  1  0  0  0  0
  9 10  2  0  0  0  0
  9 37  1  0  0  0  0
 10 38  1  0  0  0  0
 11 39  1  0  0  0  0
 12 13  2  0  0  0  0
 12 17  1  0  0  0  0
 13 14  1  0  0  0  0
 13 40  1  0  0  0  0
 14 15  2  0  0  0  0
 14 41  1  0  0  0  0
 15 16  1  0  0  0  0
 15 18  1  0  0  0  0
 16 17  2  0  0  0  0
 16 42  1  0  0  0  0
 17 43  1  0  0  0  0
 18 19  1  0  0  0  0
 19 20  1  0  0  0  0
 19 44  1  0  0  0  0
 19 45  1  0  0  0  0
 20 21  1  0  0  0  0
 20 46  1  0  0  0  0
 20 47  1  0  0  0  0
 21 22  1  0  0  0  0
 21 23  1  0  0  0  0
 22 48  1  0  0  0  0
 22 49  1  0  0  0  0
 22 50  1  0  0  0  0
 23 51  1  0  0  0  0
 23 52  1  0  0  0  0
 23 53  1  0  0  0  0
 24 25  2  0  0  0  0
 24 29  1  0  0  0  0
 25 26  1  0  0  0  0
 25 54  1  0  0  0  0
 26 27  2  0  0  0  0
 26 55  1  0  0  0  0
 27 28  1  0  0  0  0
 27 56  1  0  0  0  0
 28 29  2  0  0  0  0
 28 57  1  0  0  0  0
 29 58  1  0  0  0  0
M  END
$$$$
