OI7
 OpenBabel04121316163D

 38 38  0  0  1  0  0  0  0  0999 V2000
    0.9565    0.1765    0.0247 O   0  0  0  0  0  0  0  0  0  0  0  0
    2.3827    0.1020   -0.0437 C   0  0  1  0  0  0  0  0  0  0  0  0
    2.6184   -0.3278   -1.0271 H   0  0  0  0  0  0  0  0  0  0  0  0
    3.0640    1.4903    0.0429 C   0  0  1  0  0  0  0  0  0  0  0  0
    3.8940    1.4139   -0.6717 H   0  0  0  0  0  0  0  0  0  0  0  0
    2.2225    2.5687   -0.4145 O   0  0  0  0  0  0  0  0  0  0  0  0
    2.8472    3.7769    0.0794 C   0  0  2  0  0  0  0  0  0  0  0  0
    3.3519    3.4367    1.4884 C   0  0  2  0  0  0  0  0  0  0  0  0
    4.2408    4.0091    1.7718 H   0  0  0  0  0  0  0  0  0  0  0  0
    3.6401    1.9484    1.3985 C   0  0  2  0  0  0  0  0  0  0  0  0
    3.2007    1.4248    2.2505 H   0  0  0  0  0  0  0  0  0  0  0  0
    5.0623    1.8113    1.3923 O   0  0  0  0  0  0  0  0  0  0  0  0
    2.3616    3.7172    2.4939 O   0  0  0  0  0  0  0  0  0  0  0  0
    1.8837    4.8214    0.1271 O   0  0  0  0  0  0  0  0  0  0  0  0
    4.0117    4.1763   -0.8474 C   0  0  0  0  0  0  0  0  0  0  0  0
    4.8687    5.1527   -0.2494 O   0  0  0  0  0  0  0  0  0  0  0  0
    6.1628    5.5315   -1.3331 P   0  0  0  0  0  0  0  0  0  0  0  0
    5.3878    6.6944   -1.9426 O   0  0  0  0  0  0  0  0  0  0  0  0
    6.9739    6.1108   -0.0540 O   0  0  0  0  0  0  0  0  0  0  0  0
    7.4570    5.9103   -2.4168 O   0  0  0  0  0  0  0  0  0  0  0  0
    2.8681   -0.8788    1.0212 C   0  0  0  0  0  0  0  0  0  0  0  0
    4.2707   -0.7369    1.2368 O   0  0  0  0  0  0  0  0  0  0  0  0
    4.8474   -1.5078    2.6742 P   0  0  0  0  0  0  0  0  0  0  0  0
    6.0748   -0.5985    2.7182 O   0  0  0  0  0  0  0  0  0  0  0  0
    3.7825   -0.7012    3.6041 O   0  0  0  0  0  0  0  0  0  0  0  0
    5.4241   -2.2786    4.1116 O   0  0  0  0  0  0  0  0  0  0  0  0
    0.6667    0.6871   -0.7560 H   0  0  0  0  0  0  0  0  0  0  0  0
    5.3284    1.1843    2.0955 H   0  0  0  0  0  0  0  0  0  0  0  0
    1.5901    3.1453    2.3349 H   0  0  0  0  0  0  0  0  0  0  0  0
    1.6662    4.9412    1.0715 H   0  0  0  0  0  0  0  0  0  0  0  0
    3.6169    4.5701   -1.7905 H   0  0  0  0  0  0  0  0  0  0  0  0
    4.6398    3.3164   -1.0992 H   0  0  0  0  0  0  0  0  0  0  0  0
    6.4071    6.7765    0.3818 H   0  0  0  0  0  0  0  0  0  0  0  0
    7.0355    6.4645   -3.1039 H   0  0  0  0  0  0  0  0  0  0  0  0
    2.6375   -1.9145    0.7511 H   0  0  0  0  0  0  0  0  0  0  0  0
    2.3028   -0.6741    1.9363 H   0  0  0  0  0  0  0  0  0  0  0  0
    4.1971    0.1073    3.9789 H   0  0  0  0  0  0  0  0  0  0  0  0
    6.2964   -1.8627    4.2710 H   0  0  0  0  0  0  0  0  0  0  0  0
  1  2  1  0  0  0  0
  1 27  1  0  0  0  0
  2  3  1  6  0  0  0
  2  4  1  0  0  0  0
  2 21  1  0  0  0  0
  4  5  1  6  0  0  0
  4  6  1  0  0  0  0
  4 10  1  0  0  0  0
  6  7  1  0  0  0  0
  7  8  1  0  0  0  0
  7 14  1  1  0  0  0
  7 15  1  0  0  0  0
  8 10  1  0  0  0  0
  8 13  1  0  0  0  0
  8  9  1  1  0  0  0
 10 11  1  1  0  0  0
 10 12  1  0  0  0  0
 12 28  1  0  0  0  0
 13 29  1  0  0  0  0
 14 30  1  0  0  0  0
 15 16  1  0  0  0  0
 15 31  1  0  0  0  0
 15 32  1  0  0  0  0
 16 17  1  0  0  0  0
 17 18  2  0  0  0  0
 17 19  1  0  0  0  0
 17 20  1  0  0  0  0
 19 33  1  0  0  0  0
 20 34  1  0  0  0  0
 21 22  1  0  0  0  0
 21 35  1  0  0  0  0
 21 36  1  0  0  0  0
 22 23  1  0  0  0  0
 23 24  2  0  0  0  0
 23 25  1  0  0  0  0
 23 26  1  0  0  0  0
 25 37  1  0  0  0  0
 26 38  1  0  0  0  0
M  END
$$$$
