OID
 OpenBabel04121316163D

 39 39  0  0  0  0  0  0  0  0999 V2000
    0.9783    0.2528   -0.0070 O   0  0  0  0  0  0  0  0  0  0  0  0
    2.2950   -0.0175   -0.1078 C   0  0  0  0  0  0  0  0  0  0  0  0
    2.7401   -0.8908   -0.8417 O   0  0  0  0  0  0  0  0  0  0  0  0
    3.0645    1.0295    0.6304 C   0  0  0  0  0  0  0  0  0  0  0  0
    4.5568    0.8231    0.4719 C   0  0  0  0  0  0  0  0  0  0  0  0
    5.3199    1.9177    1.1944 C   0  0  0  0  0  0  0  0  0  0  0  0
    6.8129    1.6909    1.0400 C   0  0  0  0  0  0  0  0  0  0  0  0
    7.5753    2.7819    1.7666 C   0  0  0  0  0  0  0  0  0  0  0  0
    9.0668    2.5616    1.6155 C   0  0  0  0  0  0  0  0  0  0  0  0
    9.8219    3.6618    2.3416 C   0  0  0  0  0  0  0  0  0  0  0  0
   11.3101    3.4316    2.1888 C   0  0  0  0  0  0  0  0  0  0  0  0
   12.1086    4.5005    2.9194 C   0  0  0  0  0  0  0  0  0  0  0  0
   13.5369    4.3030    2.7898 N   0  0  0  0  0  0  0  0  0  0  0  0
   14.4775    5.2871    2.6865 C   0  0  0  0  0  0  0  0  0  0  0  0
   15.6732    4.6174    2.5686 C   0  0  0  0  0  0  0  0  0  0  0  0
   15.4817    3.2620    2.5944 N   0  0  0  0  0  0  0  0  0  0  0  0
   14.1871    3.1026    2.7337 C   0  0  0  0  0  0  0  0  0  0  0  0
    0.5911    0.0706   -0.8849 H   0  0  0  0  0  0  0  0  0  0  0  0
    2.7763    1.0075    1.6857 H   0  0  0  0  0  0  0  0  0  0  0  0
    2.7805    1.9993    0.2013 H   0  0  0  0  0  0  0  0  0  0  0  0
    4.8276    0.8250   -0.5919 H   0  0  0  0  0  0  0  0  0  0  0  0
    4.8395   -0.1583    0.8705 H   0  0  0  0  0  0  0  0  0  0  0  0
    5.0511    1.9221    2.2578 H   0  0  0  0  0  0  0  0  0  0  0  0
    5.0482    2.8994    0.7863 H   0  0  0  0  0  0  0  0  0  0  0  0
    7.0847    1.6894   -0.0229 H   0  0  0  0  0  0  0  0  0  0  0  0
    7.0866    0.7092    1.4460 H   0  0  0  0  0  0  0  0  0  0  0  0
    7.3052    2.7820    2.8297 H   0  0  0  0  0  0  0  0  0  0  0  0
    7.3023    3.7633    1.3604 H   0  0  0  0  0  0  0  0  0  0  0  0
    9.3409    2.5563    0.5531 H   0  0  0  0  0  0  0  0  0  0  0  0
    9.3432    1.5810    2.0241 H   0  0  0  0  0  0  0  0  0  0  0  0
    9.5526    3.6580    3.4049 H   0  0  0  0  0  0  0  0  0  0  0  0
    9.5477    4.6415    1.9343 H   0  0  0  0  0  0  0  0  0  0  0  0
   11.5853    3.4199    1.1262 H   0  0  0  0  0  0  0  0  0  0  0  0
   11.5442    2.4385    2.5899 H   0  0  0  0  0  0  0  0  0  0  0  0
   11.8784    4.5026    3.9908 H   0  0  0  0  0  0  0  0  0  0  0  0
   11.8658    5.4912    2.5153 H   0  0  0  0  0  0  0  0  0  0  0  0
   14.2355    6.3404    2.7037 H   0  0  0  0  0  0  0  0  0  0  0  0
   16.6637    5.0373    2.4657 H   0  0  0  0  0  0  0  0  0  0  0  0
   13.6818    2.1470    2.7855 H   0  0  0  0  0  0  0  0  0  0  0  0
  1  2  1  0  0  0  0
  1 18  1  0  0  0  0
  2  3  2  0  0  0  0
  2  4  1  0  0  0  0
  4  5  1  0  0  0  0
  4 19  1  0  0  0  0
  4 20  1  0  0  0  0
  5  6  1  0  0  0  0
  5 21  1  0  0  0  0
  5 22  1  0  0  0  0
  6  7  1  0  0  0  0
  6 23  1  0  0  0  0
  6 24  1  0  0  0  0
  7  8  1  0  0  0  0
  7 25  1  0  0  0  0
  7 26  1  0  0  0  0
  8  9  1  0  0  0  0
  8 27  1  0  0  0  0
  8 28  1  0  0  0  0
  9 10  1  0  0  0  0
  9 29  1  0  0  0  0
  9 30  1  0  0  0  0
 10 11  1  0  0  0  0
 10 31  1  0  0  0  0
 10 32  1  0  0  0  0
 11 12  1  0  0  0  0
 11 33  1  0  0  0  0
 11 34  1  0  0  0  0
 12 13  1  0  0  0  0
 12 35  1  0  0  0  0
 12 36  1  0  0  0  0
 13 14  1  0  0  0  0
 13 17  1  0  0  0  0
 14 15  2  0  0  0  0
 14 37  1  0  0  0  0
 15 16  1  0  0  0  0
 15 38  1  0  0  0  0
 16 17  2  0  0  0  0
 17 39  1  0  0  0  0
M  END
$$$$
