OIR
 OpenBabel04121316163D

 52 53  0  0  1  0  0  0  0  0999 V2000
    4.6208   -2.4904    5.7983 S   0  0  0  0  0  0  0  0  0  0  0  0
    5.5943   -3.1334    4.3841 C   0  0  1  0  0  0  0  0  0  0  0  0
    5.4761   -2.3095    3.6966 H   0  0  0  0  0  0  0  0  0  0  0  0
    7.1242   -3.4475    4.9483 C   0  0  0  0  0  0  0  0  0  0  0  0
    7.6051   -4.5564    4.6376 O   0  0  0  0  0  0  0  0  0  0  0  0
    8.0985   -2.4833    5.5082 N   0  0  0  0  0  0  0  0  0  0  0  0
    8.4920   -0.7527    5.3413 C   0  0  2  0  0  0  0  0  0  0  0  0
    7.6427   -0.2704    5.8482 H   0  0  0  0  0  0  0  0  0  0  0  0
    8.7174    0.2973    3.8323 C   0  0  0  0  0  0  0  0  0  0  0  0
    9.4511    1.3070    3.8229 O   0  0  0  0  0  0  0  0  0  0  0  0
    7.8226    0.2668    2.6915 N   0  0  0  0  0  0  0  0  0  0  0  0
    7.2541   -0.9309    2.0635 C   0  0  2  0  0  0  0  0  0  0  0  0
    6.1573   -0.8978    2.0086 H   0  0  0  0  0  0  0  0  0  0  0  0
    7.5497   -1.6788    3.2076 C   0  0  0  0  0  0  0  0  0  0  0  0
    8.6081   -2.3455    3.3276 O   0  0  0  0  0  0  0  0  0  0  0  0
    6.7355   -1.1445    4.2160 O   0  0  0  0  0  0  0  0  0  0  0  0
    7.9838   -1.8008    1.0672 C   0  0  0  0  0  0  0  0  0  0  0  0
    9.6424   -0.4209    6.2761 C   0  0  0  0  0  0  0  0  0  0  0  0
   10.9647   -0.7181    5.6407 C   0  0  0  0  0  0  0  0  0  0  0  0
   11.8937    0.3130    5.5081 C   0  0  0  0  0  0  0  0  0  0  0  0
   13.0653    0.0972    4.7908 C   0  0  0  0  0  0  0  0  0  0  0  0
   13.3422   -1.1587    4.2490 C   0  0  0  0  0  0  0  0  0  0  0  0
   12.4532   -2.2036    4.4268 C   0  0  0  0  0  0  0  0  0  0  0  0
   11.2740   -1.9750    5.1109 C   0  0  0  0  0  0  0  0  0  0  0  0
    4.9262   -4.0563    3.3273 C   0  0  0  0  0  0  0  0  0  0  0  0
    5.5327   -4.2643    1.9130 C   0  0  0  0  0  0  0  0  0  0  0  0
    5.4991   -3.3609    0.8213 C   0  0  0  0  0  0  0  0  0  0  0  0
    6.0820   -3.6834   -0.4358 C   0  0  0  0  0  0  0  0  0  0  0  0
    6.6504   -4.9323   -0.6435 C   0  0  0  0  0  0  0  0  0  0  0  0
    6.6676   -5.8387    0.4091 C   0  0  0  0  0  0  0  0  0  0  0  0
    6.1134   -5.5098    1.6556 C   0  0  0  0  0  0  0  0  0  0  0  0
    5.5481   -1.5611    6.1360 H   0  0  0  0  0  0  0  0  0  0  0  0
    8.9167   -2.9345    5.1178 H   0  0  0  0  0  0  0  0  0  0  0  0
    7.8752    1.0464    2.0555 H   0  0  0  0  0  0  0  0  0  0  0  0
    6.1302   -0.3871    4.0974 H   0  0  0  0  0  0  0  0  0  0  0  0
    7.7944   -2.8725    1.2889 H   0  0  0  0  0  0  0  0  0  0  0  0
    9.0705   -1.7472    1.1409 H   0  0  0  0  0  0  0  0  0  0  0  0
    7.6384   -1.5823    0.0718 H   0  0  0  0  0  0  0  0  0  0  0  0
    9.5151   -0.9503    7.2215 H   0  0  0  0  0  0  0  0  0  0  0  0
    9.5631    0.6580    6.4904 H   0  0  0  0  0  0  0  0  0  0  0  0
   11.6860    1.2952    5.9293 H   0  0  0  0  0  0  0  0  0  0  0  0
   13.7624    0.9158    4.6554 H   0  0  0  0  0  0  0  0  0  0  0  0
   14.2593   -1.3335    3.7009 H   0  0  0  0  0  0  0  0  0  0  0  0
   12.6506   -3.2033    4.0517 H   0  0  0  0  0  0  0  0  0  0  0  0
   10.6272   -2.8308    5.1944 H   0  0  0  0  0  0  0  0  0  0  0  0
    3.9345   -3.6269    3.1101 H   0  0  0  0  0  0  0  0  0  0  0  0
    4.7840   -5.0237    3.7984 H   0  0  0  0  0  0  0  0  0  0  0  0
    5.1300   -2.3443    0.9225 H   0  0  0  0  0  0  0  0  0  0  0  0
    6.1856   -2.9317   -1.2228 H   0  0  0  0  0  0  0  0  0  0  0  0
    7.0944   -5.1917   -1.6028 H   0  0  0  0  0  0  0  0  0  0  0  0
    7.1308   -6.8120    0.2768 H   0  0  0  0  0  0  0  0  0  0  0  0
    6.1348   -6.2535    2.4469 H   0  0  0  0  0  0  0  0  0  0  0  0
  1  2  1  0  0  0  0
  1 32  1  0  0  0  0
  2  3  1  6  0  0  0
  2  4  1  0  0  0  0
  2 25  1  0  0  0  0
  4  5  2  0  0  0  0
  4  6  1  0  0  0  0
  6 33  1  0  0  0  0
  7  9  1  0  0  0  0
  7 18  1  0  0  0  0
  7  8  1  1  0  0  0
  7  6  1  0  0  0  0
  9 10  2  0  0  0  0
  9 11  1  0  0  0  0
 11 34  1  0  0  0  0
 12 14  1  0  0  0  0
 12 17  1  0  0  0  0
 12 13  1  6  0  0  0
 12 11  1  0  0  0  0
 14 15  2  0  0  0  0
 14 16  1  0  0  0  0
 16 35  1  0  0  0  0
 17 36  1  0  0  0  0
 17 37  1  0  0  0  0
 17 38  1  0  0  0  0
 18 19  1  0  0  0  0
 18 39  1  0  0  0  0
 18 40  1  0  0  0  0
 19 20  2  0  0  0  0
 19 24  1  0  0  0  0
 20 21  1  0  0  0  0
 20 41  1  0  0  0  0
 21 22  2  0  0  0  0
 21 42  1  0  0  0  0
 22 23  1  0  0  0  0
 22 43  1  0  0  0  0
 23 24  2  0  0  0  0
 23 44  1  0  0  0  0
 24 45  1  0  0  0  0
 25 26  1  0  0  0  0
 25 46  1  0  0  0  0
 25 47  1  0  0  0  0
 26 27  2  0  0  0  0
 26 31  1  0  0  0  0
 27 28  1  0  0  0  0
 27 48  1  0  0  0  0
 28 29  2  0  0  0  0
 28 49  1  0  0  0  0
 29 30  1  0  0  0  0
 29 50  1  0  0  0  0
 30 31  2  0  0  0  0
 30 51  1  0  0  0  0
 31 52  1  0  0  0  0
M  END
$$$$
