OJ8
 OpenBabel04121316163D

 52 56  0  0  1  0  0  0  0  0999 V2000
    0.6263    0.5822   -2.1293 O   0  0  0  0  0  0  0  0  0  0  0  0
    2.0326    0.5544   -2.3837 C   0  0  2  0  0  0  0  0  0  0  0  0
    2.2062    1.2233   -3.2316 H   0  0  0  0  0  0  0  0  0  0  0  0
    2.4232   -0.8486   -2.7431 C   0  0  0  0  0  0  0  0  0  0  0  0
    2.8341   -1.7747   -1.8950 N   0  0  0  0  0  0  0  0  0  0  0  0
    3.2367   -2.7906   -2.6979 C   0  0  0  0  0  0  0  0  0  0  0  0
    2.9755   -2.4927   -4.0212 C   0  0  0  0  0  0  0  0  0  0  0  0
    2.4910   -1.2102   -4.0685 O   0  0  0  0  0  0  0  0  0  0  0  0
    3.1010   -3.2987   -5.2177 C   0  0  0  0  0  0  0  0  0  0  0  0
    3.0646   -4.6869   -5.0820 C   0  0  0  0  0  0  0  0  0  0  0  0
    3.4224   -5.4862   -6.1541 C   0  0  0  0  0  0  0  0  0  0  0  0
    3.7280   -4.8805   -7.3636 C   0  0  0  0  0  0  0  0  0  0  0  0
    3.6387   -3.4965   -7.4451 C   0  0  0  0  0  0  0  0  0  0  0  0
    3.3613   -2.6852   -6.3952 N   0  0  0  0  0  0  0  0  0  0  0  0
    2.8278    0.9836   -1.1100 C   0  0  1  0  0  0  0  0  0  0  0  0
    2.5873    0.2923   -0.2904 H   0  0  0  0  0  0  0  0  0  0  0  0
    4.3531    0.9457   -1.3560 C   0  0  0  0  0  0  0  0  0  0  0  0
    4.6929    1.8340   -2.5341 C   0  0  0  0  0  0  0  0  0  0  0  0
    4.0851    3.1983   -2.3475 C   0  0  0  0  0  0  0  0  0  0  0  0
    2.9865    3.4670   -1.5193 C   0  0  0  0  0  0  0  0  0  0  0  0
    2.4499    2.3905   -0.6151 C   0  0  0  0  0  0  0  0  0  0  0  0
    2.4680    4.7671   -1.4776 C   0  0  0  0  0  0  0  0  0  0  0  0
    2.9524    5.7550   -2.3482 C   0  0  0  0  0  0  0  0  0  0  0  0
    4.0146    5.4649   -3.2113 C   0  0  0  0  0  0  0  0  0  0  0  0
    4.6251    4.2266   -3.0963 C   0  0  0  0  0  0  0  0  0  0  0  0
    4.4149    6.4418   -4.1012 O   0  0  0  0  0  0  0  0  0  0  0  0
    5.2509    6.1357   -5.1632 C   0  0  0  0  0  0  0  0  0  0  0  0
    5.9879    7.1969   -5.6953 C   0  0  0  0  0  0  0  0  0  0  0  0
    6.8337    6.9747   -6.7886 C   0  0  0  0  0  0  0  0  0  0  0  0
    7.0734    5.6823   -7.2501 C   0  0  0  0  0  0  0  0  0  0  0  0
    6.3947    4.6148   -6.6803 C   0  0  0  0  0  0  0  0  0  0  0  0
    5.3866    4.8796   -5.7620 C   0  0  0  0  0  0  0  0  0  0  0  0
    0.4495   -0.0811   -1.4425 H   0  0  0  0  0  0  0  0  0  0  0  0
    3.6684   -3.6943   -2.2983 H   0  0  0  0  0  0  0  0  0  0  0  0
    2.7827   -5.1441   -4.1379 H   0  0  0  0  0  0  0  0  0  0  0  0
    3.4655   -6.5646   -6.0375 H   0  0  0  0  0  0  0  0  0  0  0  0
    4.0139   -5.4765   -8.2221 H   0  0  0  0  0  0  0  0  0  0  0  0
    3.7990   -2.9923   -8.3953 H   0  0  0  0  0  0  0  0  0  0  0  0
    4.7204   -0.0675   -1.5446 H   0  0  0  0  0  0  0  0  0  0  0  0
    4.8894    1.3041   -0.4684 H   0  0  0  0  0  0  0  0  0  0  0  0
    4.3203    1.4006   -3.4744 H   0  0  0  0  0  0  0  0  0  0  0  0
    5.7791    1.9022   -2.6524 H   0  0  0  0  0  0  0  0  0  0  0  0
    1.3656    2.4819   -0.4900 H   0  0  0  0  0  0  0  0  0  0  0  0
    2.9025    2.5486    0.3745 H   0  0  0  0  0  0  0  0  0  0  0  0
    1.6739    5.0153   -0.7733 H   0  0  0  0  0  0  0  0  0  0  0  0
    2.5117    6.7465   -2.3326 H   0  0  0  0  0  0  0  0  0  0  0  0
    5.5445    3.9911   -3.6204 H   0  0  0  0  0  0  0  0  0  0  0  0
    5.8867    8.1944   -5.2813 H   0  0  0  0  0  0  0  0  0  0  0  0
    7.3173    7.8161   -7.2798 H   0  0  0  0  0  0  0  0  0  0  0  0
    7.7567    5.4981   -8.0724 H   0  0  0  0  0  0  0  0  0  0  0  0
    6.6122    3.5911   -6.9666 H   0  0  0  0  0  0  0  0  0  0  0  0
    4.7371    4.0469   -5.5016 H   0  0  0  0  0  0  0  0  0  0  0  0
  1 33  1  0  0  0  0
  2  4  1  0  0  0  0
  2  3  1  6  0  0  0
  2  1  1  0  0  0  0
  4  5  2  0  0  0  0
  4  8  1  0  0  0  0
  5  6  1  0  0  0  0
  6  7  2  0  0  0  0
  6 34  1  0  0  0  0
  7  8  1  0  0  0  0
  7  9  1  0  0  0  0
  9 10  2  0  0  0  0
  9 14  1  0  0  0  0
 10 11  1  0  0  0  0
 10 35  1  0  0  0  0
 11 12  2  0  0  0  0
 11 36  1  0  0  0  0
 12 13  1  0  0  0  0
 12 37  1  0  0  0  0
 13 14  2  0  0  0  0
 13 38  1  0  0  0  0
 15 17  1  0  0  0  0
 15 21  1  0  0  0  0
 15 16  1  1  0  0  0
 15  2  1  0  0  0  0
 17 18  1  0  0  0  0
 17 39  1  0  0  0  0
 17 40  1  0  0  0  0
 18 19  1  0  0  0  0
 18 41  1  0  0  0  0
 18 42  1  0  0  0  0
 19 20  2  0  0  0  0
 19 25  1  0  0  0  0
 20 21  1  0  0  0  0
 20 22  1  0  0  0  0
 21 43  1  0  0  0  0
 21 44  1  0  0  0  0
 22 23  2  0  0  0  0
 22 45  1  0  0  0  0
 23 24  1  0  0  0  0
 23 46  1  0  0  0  0
 24 25  2  0  0  0  0
 24 26  1  0  0  0  0
 25 47  1  0  0  0  0
 26 27  1  0  0  0  0
 27 28  2  0  0  0  0
 27 32  1  0  0  0  0
 28 29  1  0  0  0  0
 28 48  1  0  0  0  0
 29 30  2  0  0  0  0
 29 49  1  0  0  0  0
 30 31  1  0  0  0  0
 30 50  1  0  0  0  0
 31 32  2  0  0  0  0
 31 51  1  0  0  0  0
 32 52  1  0  0  0  0
M  END
$$$$
