OKH
 OpenBabel04121316163D

 67 71  0  0  1  0  0  0  0  0999 V2000
    1.2165   -0.3039    0.4332 O   0  0  0  0  0  0  0  0  0  0  0  0
    2.4111   -0.0408    0.2225 C   0  0  0  0  0  0  0  0  0  0  0  0
    2.8241    1.2705   -0.4626 C   0  0  1  0  0  0  0  0  0  0  0  0
    3.6295    1.7040    0.1574 H   0  0  0  0  0  0  0  0  0  0  0  0
    3.2370    1.0455   -1.8606 N   0  0  0  0  0  0  0  0  0  0  0  0
    2.9686   -0.0993   -2.7981 C   0  0  0  0  0  0  0  0  0  0  0  0
    3.6702    0.2597   -3.9047 N   0  0  0  0  0  0  0  0  0  0  0  0
    4.4418    1.4247   -3.6742 C   0  0  0  0  0  0  0  0  0  0  0  0
    4.0807    2.0180   -2.4832 C   0  0  0  0  0  0  0  0  0  0  0  0
    4.5923    3.3136   -2.1519 C   0  0  0  0  0  0  0  0  0  0  0  0
    5.3174    4.0589   -3.1009 C   0  0  0  0  0  0  0  0  0  0  0  0
    5.8855    3.3644   -4.1584 C   0  0  0  0  0  0  0  0  0  0  0  0
    5.5326    2.0131   -4.3779 C   0  0  0  0  0  0  0  0  0  0  0  0
    5.3307    5.5482   -2.9656 C   0  0  0  0  0  0  0  0  0  0  0  0
    4.6892    6.1322   -2.0471 O   0  0  0  0  0  0  0  0  0  0  0  0
    5.9749    6.2560   -3.8933 O   0  0  0  0  0  0  0  0  0  0  0  0
    2.5666   -1.7747   -2.4746 C   0  0  0  0  0  0  0  0  0  0  0  0
    3.2088   -3.0409   -2.8668 C   0  0  0  0  0  0  0  0  0  0  0  0
    3.0369   -4.3501   -2.1929 C   0  0  0  0  0  0  0  0  0  0  0  0
    2.1978   -4.4601   -1.1117 C   0  0  0  0  0  0  0  0  0  0  0  0
    1.5097   -3.3135   -0.7621 C   0  0  0  0  0  0  0  0  0  0  0  0
    1.6014   -2.0820   -1.5250 C   0  0  0  0  0  0  0  0  0  0  0  0
    2.0788   -5.9252   -0.2165 Cl  0  0  0  0  0  0  0  0  0  0  0  0
    1.6498    2.2837   -0.4973 C   0  0  0  0  0  0  0  0  0  0  0  0
    0.9984    2.2981    0.8873 C   0  0  0  0  0  0  0  0  0  0  0  0
    1.8113    3.0865    1.8880 C   0  0  0  0  0  0  0  0  0  0  0  0
    1.7665    4.5328    1.4861 C   0  0  0  0  0  0  0  0  0  0  0  0
    2.4464    4.6967    0.1411 C   0  0  0  0  0  0  0  0  0  0  0  0
    1.8112    3.7792   -0.9190 C   0  0  0  0  0  0  0  0  0  0  0  0
    3.2787   -1.0308    0.5741 N   0  0  0  0  0  0  0  0  0  0  0  0
    4.7443   -1.1297    0.5642 C   0  0  0  0  0  0  0  0  0  0  0  0
    5.3544   -2.5406    0.4147 C   0  0  0  0  0  0  0  0  0  0  0  0
    5.3822   -2.9979   -1.0310 C   0  0  0  0  0  0  0  0  0  0  0  0
    5.9960   -2.1282   -2.1540 C   0  0  0  0  0  0  0  0  0  0  0  0
    5.6038   -0.7292   -1.8972 C   0  0  0  0  0  0  0  0  0  0  0  0
    5.4757   -0.2845   -0.4610 C   0  0  0  0  0  0  0  0  0  0  0  0
    4.3067    3.8467   -1.2606 H   0  0  0  0  0  0  0  0  0  0  0  0
    6.5438    3.8350   -4.8810 H   0  0  0  0  0  0  0  0  0  0  0  0
    6.0713    1.4576   -5.1392 H   0  0  0  0  0  0  0  0  0  0  0  0
    6.4068    5.7473   -4.6032 H   0  0  0  0  0  0  0  0  0  0  0  0
    4.0919   -3.1547   -3.4881 H   0  0  0  0  0  0  0  0  0  0  0  0
    3.7765   -5.1575   -2.3340 H   0  0  0  0  0  0  0  0  0  0  0  0
    0.9426   -3.3098    0.1691 H   0  0  0  0  0  0  0  0  0  0  0  0
    0.9050   -1.3016   -1.2803 H   0  0  0  0  0  0  0  0  0  0  0  0
    0.9949    1.8761   -1.2770 H   0  0  0  0  0  0  0  0  0  0  0  0
    0.9259    1.3545    1.4015 H   0  0  0  0  0  0  0  0  0  0  0  0
   -0.0374    2.6169    0.7649 H   0  0  0  0  0  0  0  0  0  0  0  0
    2.8509    2.7285    1.9413 H   0  0  0  0  0  0  0  0  0  0  0  0
    1.3822    2.9223    2.8777 H   0  0  0  0  0  0  0  0  0  0  0  0
    2.2662    5.1323    2.2477 H   0  0  0  0  0  0  0  0  0  0  0  0
    0.7204    4.8433    1.4097 H   0  0  0  0  0  0  0  0  0  0  0  0
    3.5048    4.4759    0.3018 H   0  0  0  0  0  0  0  0  0  0  0  0
    2.3882    5.7411   -0.1851 H   0  0  0  0  0  0  0  0  0  0  0  0
    2.2612    3.9241   -1.9054 H   0  0  0  0  0  0  0  0  0  0  0  0
    0.7909    4.1523   -1.0851 H   0  0  0  0  0  0  0  0  0  0  0  0
    2.7419   -1.7774    1.0186 H   0  0  0  0  0  0  0  0  0  0  0  0
    5.0029   -0.7804    1.5676 H   0  0  0  0  0  0  0  0  0  0  0  0
    4.7841   -3.2679    1.0116 H   0  0  0  0  0  0  0  0  0  0  0  0
    6.3929   -2.5416    0.7321 H   0  0  0  0  0  0  0  0  0  0  0  0
    4.3157   -2.9423   -1.0770 H   0  0  0  0  0  0  0  0  0  0  0  0
    5.6532   -4.0452   -1.1472 H   0  0  0  0  0  0  0  0  0  0  0  0
    5.6344   -2.3420   -3.1828 H   0  0  0  0  0  0  0  0  0  0  0  0
    7.0605   -2.1480   -2.3295 H   0  0  0  0  0  0  0  0  0  0  0  0
    4.7188   -0.8146   -2.4455 H   0  0  0  0  0  0  0  0  0  0  0  0
    6.1712    0.0058   -2.4584 H   0  0  0  0  0  0  0  0  0  0  0  0
    5.1774    0.7454   -0.3637 H   0  0  0  0  0  0  0  0  0  0  0  0
    6.5131   -0.2856   -0.1619 H   0  0  0  0  0  0  0  0  0  0  0  0
  1  2  2  0  0  0  0
  2  3  1  0  0  0  0
  2 30  1  0  0  0  0
  3  4  1  1  0  0  0
  3  5  1  0  0  0  0
  3 24  1  0  0  0  0
  5  6  1  0  0  0  0
  5  9  1  0  0  0  0
  6  7  2  0  0  0  0
  6 17  1  0  0  0  0
  7  8  1  0  0  0  0
  8  9  2  0  0  0  0
  8 13  1  0  0  0  0
  9 10  1  0  0  0  0
 10 11  2  0  0  0  0
 10 37  1  0  0  0  0
 11 12  1  0  0  0  0
 11 14  1  0  0  0  0
 12 13  2  0  0  0  0
 12 38  1  0  0  0  0
 13 39  1  0  0  0  0
 14 15  2  0  0  0  0
 14 16  1  0  0  0  0
 16 40  1  0  0  0  0
 17 18  2  0  0  0  0
 17 22  1  0  0  0  0
 18 19  1  0  0  0  0
 18 41  1  0  0  0  0
 19 20  2  0  0  0  0
 19 42  1  0  0  0  0
 20 21  1  0  0  0  0
 20 23  1  0  0  0  0
 21 22  2  0  0  0  0
 21 43  1  0  0  0  0
 22 44  1  0  0  0  0
 24 25  1  0  0  0  0
 24 29  1  0  0  0  0
 24 45  1  0  0  0  0
 25 26  1  0  0  0  0
 25 46  1  0  0  0  0
 25 47  1  0  0  0  0
 26 27  1  0  0  0  0
 26 48  1  0  0  0  0
 26 49  1  0  0  0  0
 27 28  1  0  0  0  0
 27 50  1  0  0  0  0
 27 51  1  0  0  0  0
 28 29  1  0  0  0  0
 28 52  1  0  0  0  0
 28 53  1  0  0  0  0
 29 54  1  0  0  0  0
 29 55  1  0  0  0  0
 30 31  1  0  0  0  0
 30 56  1  0  0  0  0
 31 32  1  0  0  0  0
 31 36  1  0  0  0  0
 31 57  1  0  0  0  0
 32 33  1  0  0  0  0
 32 58  1  0  0  0  0
 32 59  1  0  0  0  0
 33 34  1  0  0  0  0
 33 60  1  0  0  0  0
 33 61  1  0  0  0  0
 34 35  1  0  0  0  0
 34 62  1  0  0  0  0
 34 63  1  0  0  0  0
 35 36  1  0  0  0  0
 35 64  1  0  0  0  0
 35 65  1  0  0  0  0
 36 66  1  0  0  0  0
 36 67  1  0  0  0  0
M  END
$$$$
