OLO
 OpenBabel04121316163D

 40 42  0  0  0  0  0  0  0  0999 V2000
    1.0730   -0.0591   -0.0014 O   0  0  0  0  0  0  0  0  0  0  0  0
    2.4974   -0.0443   -0.0252 C   0  0  0  0  0  0  0  0  0  0  0  0
    3.0319    1.2538    0.5936 C   0  0  0  0  0  0  0  0  0  0  0  0
    4.4810    1.3372    0.4360 N   0  0  0  0  0  0  0  0  0  0  0  0
    5.0492    2.3987    1.1367 C   0  0  0  0  0  0  0  0  0  0  0  0
    6.1009    2.0830    1.9252 N   0  0  0  0  0  0  0  0  0  0  0  0
    6.7540    3.0709    2.5852 C   0  0  0  0  0  0  0  0  0  0  0  0
    7.7952    2.8306    3.4433 N   0  0  0  0  0  0  0  0  0  0  0  0
    8.2863    1.5208    3.7480 C   0  0  0  0  0  0  0  0  0  0  0  0
    9.4645    1.5568    4.7047 C   0  0  0  0  0  0  0  0  0  0  0  0
   10.0470    2.7441    5.1819 C   0  0  0  0  0  0  0  0  0  0  0  0
   11.2396    2.7263    5.8981 C   0  0  0  0  0  0  0  0  0  0  0  0
   11.8082    1.5134    6.2585 C   0  0  0  0  0  0  0  0  0  0  0  0
   11.1776    0.3210    5.9101 C   0  0  0  0  0  0  0  0  0  0  0  0
   10.0395    0.3394    5.1007 C   0  0  0  0  0  0  0  0  0  0  0  0
    6.3521    4.3952    2.3869 C   0  0  0  0  0  0  0  0  0  0  0  0
    5.2661    4.5856    1.5562 C   0  0  0  0  0  0  0  0  0  0  0  0
    4.5604    3.6395    0.9298 N   0  0  0  0  0  0  0  0  0  0  0  0
    5.1045    5.9419    1.5265 N   0  0  0  0  0  0  0  0  0  0  0  0
    4.1219    6.6690    0.7711 C   0  0  0  0  0  0  0  0  0  0  0  0
    6.0520    6.5066    2.3389 C   0  0  0  0  0  0  0  0  0  0  0  0
    6.8295    5.5943    2.8825 N   0  0  0  0  0  0  0  0  0  0  0  0
    0.7894   -0.8814   -0.4376 H   0  0  0  0  0  0  0  0  0  0  0  0
    2.8290   -0.1370   -1.0644 H   0  0  0  0  0  0  0  0  0  0  0  0
    2.8584   -0.9162    0.5316 H   0  0  0  0  0  0  0  0  0  0  0  0
    2.7245    1.2919    1.6487 H   0  0  0  0  0  0  0  0  0  0  0  0
    2.5478    2.1014    0.0940 H   0  0  0  0  0  0  0  0  0  0  0  0
    4.9985    0.5003    0.6795 H   0  0  0  0  0  0  0  0  0  0  0  0
    8.2114    3.6692    3.8156 H   0  0  0  0  0  0  0  0  0  0  0  0
    8.6186    1.0344    2.8217 H   0  0  0  0  0  0  0  0  0  0  0  0
    7.4859    0.9154    4.1897 H   0  0  0  0  0  0  0  0  0  0  0  0
    9.6114    3.7205    5.0047 H   0  0  0  0  0  0  0  0  0  0  0  0
   11.7123    3.6667    6.1672 H   0  0  0  0  0  0  0  0  0  0  0  0
   12.7372    1.5023    6.8192 H   0  0  0  0  0  0  0  0  0  0  0  0
   11.5837   -0.6253    6.2546 H   0  0  0  0  0  0  0  0  0  0  0  0
    9.6073   -0.6039    4.7718 H   0  0  0  0  0  0  0  0  0  0  0  0
    3.5066    5.9755    0.1949 H   0  0  0  0  0  0  0  0  0  0  0  0
    4.6434    7.3521    0.0956 H   0  0  0  0  0  0  0  0  0  0  0  0
    3.4988    7.2287    1.4727 H   0  0  0  0  0  0  0  0  0  0  0  0
    6.1303    7.5748    2.4965 H   0  0  0  0  0  0  0  0  0  0  0  0
  1  2  1  0  0  0  0
  1 23  1  0  0  0  0
  2  3  1  0  0  0  0
  2 24  1  0  0  0  0
  2 25  1  0  0  0  0
  3  4  1  0  0  0  0
  3 26  1  0  0  0  0
  3 27  1  0  0  0  0
  4  5  1  0  0  0  0
  4 28  1  0  0  0  0
  5  6  2  0  0  0  0
  5 18  1  0  0  0  0
  6  7  1  0  0  0  0
  7  8  1  0  0  0  0
  7 16  2  0  0  0  0
  8  9  1  0  0  0  0
  8 29  1  0  0  0  0
  9 10  1  0  0  0  0
  9 30  1  0  0  0  0
  9 31  1  0  0  0  0
 10 11  2  0  0  0  0
 10 15  1  0  0  0  0
 11 12  1  0  0  0  0
 11 32  1  0  0  0  0
 12 13  2  0  0  0  0
 12 33  1  0  0  0  0
 13 14  1  0  0  0  0
 13 34  1  0  0  0  0
 14 15  2  0  0  0  0
 14 35  1  0  0  0  0
 15 36  1  0  0  0  0
 16 17  1  0  0  0  0
 16 22  1  0  0  0  0
 17 18  2  0  0  0  0
 17 19  1  0  0  0  0
 19 20  1  0  0  0  0
 19 21  1  0  0  0  0
 20 37  1  0  0  0  0
 20 38  1  0  0  0  0
 20 39  1  0  0  0  0
 21 22  2  0  0  0  0
 21 40  1  0  0  0  0
M  END
$$$$
