OMP
 OpenBabel04121316163D

 37 38  0  0  1  0  0  0  0  0999 V2000
    2.8520    0.2977   -1.5503 O   0  0  0  0  0  0  0  0  0  0  0  0
    2.3235    0.1320   -0.2212 C   0  0  2  0  0  0  0  0  0  0  0  0
    1.2375    0.2012   -0.2804 H   0  0  0  0  0  0  0  0  0  0  0  0
    2.8696    1.2255    0.6720 C   0  0  2  0  0  0  0  0  0  0  0  0
    2.2571    1.2834    1.5776 H   0  0  0  0  0  0  0  0  0  0  0  0
    2.9469    2.5052    0.0677 O   0  0  0  0  0  0  0  0  0  0  0  0
    4.2456    0.7009    0.9717 C   0  0  2  0  0  0  0  0  0  0  0  0
    4.9633    0.9223    0.1693 H   0  0  0  0  0  0  0  0  0  0  0  0
    4.1426   -0.7376    1.0006 O   0  0  0  0  0  0  0  0  0  0  0  0
    2.8796   -1.1506    0.4508 C   0  0  1  0  0  0  0  0  0  0  0  0
    3.1089   -1.9221   -0.2978 H   0  0  0  0  0  0  0  0  0  0  0  0
    2.0111   -1.7836    1.4431 N   0  0  0  0  0  0  0  0  0  0  0  0
    0.7602   -2.1259    0.8944 C   0  0  0  0  0  0  0  0  0  0  0  0
    0.4638   -1.9743   -0.2898 O   0  0  0  0  0  0  0  0  0  0  0  0
   -0.1750   -2.6417    1.7321 N   0  0  0  0  0  0  0  0  0  0  0  0
   -1.0836   -2.8412    1.3391 H   0  0  0  0  0  0  0  0  0  0  0  0
    0.0211   -2.9813    3.0262 C   0  0  0  0  0  0  0  0  0  0  0  0
   -0.8492   -3.4926    3.7166 O   0  0  0  0  0  0  0  0  0  0  0  0
    1.3634   -2.7207    3.5378 C   0  0  0  0  0  0  0  0  0  0  0  0
    2.3153   -2.1523    2.7718 C   0  0  0  0  0  0  0  0  0  0  0  0
    3.6094   -2.0724    3.5495 C   0  0  0  0  0  0  0  0  0  0  0  0
    3.6620   -2.3247    4.7617 O   0  0  0  0  0  0  0  0  0  0  0  0
    4.7581   -1.8695    2.9040 O   0  0  0  0  0  0  0  0  0  0  0  0
    4.8383    1.2962    2.2390 C   0  0  0  0  0  0  0  0  0  0  0  0
    3.8933    1.6571    3.2480 O   0  0  0  0  0  0  0  0  0  0  0  0
    4.5168    2.4592    4.6483 P   0  0  0  0  0  0  0  0  0  0  0  0
    3.8308    1.4491    5.5614 O   0  0  0  0  0  0  0  0  0  0  0  0
    6.0215    1.8560    4.4141 O   0  0  0  0  0  0  0  0  0  0  0  0
    5.1403    3.2613    6.0486 O   0  0  0  0  0  0  0  0  0  0  0  0
    3.7893    0.0380   -1.5583 H   0  0  0  0  0  0  0  0  0  0  0  0
    3.3379    2.3815   -0.8180 H   0  0  0  0  0  0  0  0  0  0  0  0
    1.5105   -3.0331    4.5675 H   0  0  0  0  0  0  0  0  0  0  0  0
    4.6389   -1.6374    1.9634 H   0  0  0  0  0  0  0  0  0  0  0  0
    5.5384    0.5640    2.6517 H   0  0  0  0  0  0  0  0  0  0  0  0
    5.3665    2.2124    1.9568 H   0  0  0  0  0  0  0  0  0  0  0  0
    6.5299    2.1377    3.6353 H   0  0  0  0  0  0  0  0  0  0  0  0
    4.4646    3.1413    6.7442 H   0  0  0  0  0  0  0  0  0  0  0  0
  1 30  1  0  0  0  0
  2  4  1  0  0  0  0
  2 10  1  0  0  0  0
  2  3  1  6  0  0  0
  2  1  1  0  0  0  0
  4  7  1  0  0  0  0
  4  6  1  0  0  0  0
  4  5  1  1  0  0  0
  6 31  1  0  0  0  0
  7  9  1  0  0  0  0
  7 24  1  0  0  0  0
  7  8  1  6  0  0  0
  9 10  1  0  0  0  0
 10 12  1  0  0  0  0
 10 11  1  6  0  0  0
 12 13  1  0  0  0  0
 12 20  1  0  0  0  0
 13 14  2  0  0  0  0
 13 15  1  0  0  0  0
 15 16  1  0  0  0  0
 15 17  1  0  0  0  0
 17 18  2  0  0  0  0
 17 19  1  0  0  0  0
 19 20  2  0  0  0  0
 19 32  1  0  0  0  0
 20 21  1  0  0  0  0
 21 22  2  0  0  0  0
 21 23  1  0  0  0  0
 23 33  1  0  0  0  0
 24 25  1  0  0  0  0
 24 34  1  0  0  0  0
 24 35  1  0  0  0  0
 25 26  1  0  0  0  0
 26 27  2  0  0  0  0
 26 28  1  0  0  0  0
 26 29  1  0  0  0  0
 28 36  1  0  0  0  0
 29 37  1  0  0  0  0
M  END
$$$$
