ON1
 OpenBabel04121316173D

 28 29  0  0  0  0  0  0  0  0999 V2000
    1.0854   -0.1287    0.1393 Cl  0  0  0  0  0  0  0  0  0  0  0  0
    2.8114   -0.2092    0.0907 C   0  0  0  0  0  0  0  0  0  0  0  0
    3.4967    0.9909    0.1896 C   0  0  0  0  0  0  0  0  0  0  0  0
    4.8554    1.1548   -0.1337 C   0  0  0  0  0  0  0  0  0  0  0  0
    5.5875   -0.0281   -0.2491 C   0  0  0  0  0  0  0  0  0  0  0  0
    4.9421   -1.2748   -0.1190 C   0  0  0  0  0  0  0  0  0  0  0  0
    3.5457   -1.3655   -0.0440 C   0  0  0  0  0  0  0  0  0  0  0  0
    2.7869   -2.9085   -0.0835 Cl  0  0  0  0  0  0  0  0  0  0  0  0
    5.5139    2.5323   -0.3774 C   0  0  0  0  0  0  0  0  0  0  0  0
    4.6029    3.7755   -0.3382 C   0  0  0  0  0  0  0  0  0  0  0  0
    3.2814    3.5371   -0.2844 N   0  0  0  0  0  0  0  0  0  0  0  0
    2.4367    4.5202   -0.0468 C   0  0  0  0  0  0  0  0  0  0  0  0
    1.1409    4.1621    0.1991 O   0  0  0  0  0  0  0  0  0  0  0  0
    2.8023    5.8191   -0.0086 C   0  0  0  0  0  0  0  0  0  0  0  0
    4.1558    6.0294   -0.1936 C   0  0  0  0  0  0  0  0  0  0  0  0
    5.1039    5.0283   -0.3317 N   0  0  0  0  0  0  0  0  0  0  0  0
    4.6437    7.4392   -0.2608 C   0  0  0  0  0  0  0  0  0  0  0  0
    3.9294    8.4292   -0.1580 O   0  0  0  0  0  0  0  0  0  0  0  0
    5.9761    7.5393   -0.4680 O   0  0  0  0  0  0  0  0  0  0  0  0
    1.8501    6.7636    0.1876 O   0  0  0  0  0  0  0  0  0  0  0  0
    2.8840    1.7962    0.5525 H   0  0  0  0  0  0  0  0  0  0  0  0
    6.6618   -0.0039   -0.4242 H   0  0  0  0  0  0  0  0  0  0  0  0
    5.5355   -2.1839   -0.0942 H   0  0  0  0  0  0  0  0  0  0  0  0
    5.9711    2.5095   -1.3782 H   0  0  0  0  0  0  0  0  0  0  0  0
    6.3289    2.6572    0.3468 H   0  0  0  0  0  0  0  0  0  0  0  0
    1.1423    3.1871    0.1777 H   0  0  0  0  0  0  0  0  0  0  0  0
    6.4002    6.6601   -0.5375 H   0  0  0  0  0  0  0  0  0  0  0  0
    0.9974    6.2906    0.2733 H   0  0  0  0  0  0  0  0  0  0  0  0
  1  2  1  0  0  0  0
  2  3  2  0  0  0  0
  2  7  1  0  0  0  0
  3  4  1  0  0  0  0
  3 21  1  0  0  0  0
  4  5  2  0  0  0  0
  4  9  1  0  0  0  0
  5  6  1  0  0  0  0
  5 22  1  0  0  0  0
  6  7  2  0  0  0  0
  6 23  1  0  0  0  0
  7  8  1  0  0  0  0
  9 10  1  0  0  0  0
  9 24  1  0  0  0  0
  9 25  1  0  0  0  0
 10 11  2  0  0  0  0
 10 16  1  0  0  0  0
 11 12  1  0  0  0  0
 12 13  1  0  0  0  0
 12 14  2  0  0  0  0
 13 26  1  0  0  0  0
 14 15  1  0  0  0  0
 14 20  1  0  0  0  0
 15 16  2  0  0  0  0
 15 17  1  0  0  0  0
 17 18  2  0  0  0  0
 17 19  1  0  0  0  0
 19 27  1  0  0  0  0
 20 28  1  0  0  0  0
M  END
$$$$
