ONL
 OpenBabel04121316173D

 21 20  0  0  1  0  0  0  0  0999 V2000
    1.0616   -0.0138    0.0281 C   0  0  0  0  0  0  0  0  0  0  0  0
    2.5626    0.0375    0.1135 C   0  0  0  0  0  0  0  0  0  0  0  0
    3.1457    0.8087    0.8699 O   0  0  0  0  0  0  0  0  0  0  0  0
    3.2949   -0.8852   -0.8275 C   0  0  0  0  0  0  0  0  0  0  0  0
    4.8100   -0.7497   -0.7358 C   0  0  0  0  0  0  0  0  0  0  0  0
    5.5588   -1.7012   -1.6771 C   0  0  1  0  0  0  0  0  0  0  0  0
    5.2894   -2.7443   -1.4767 H   0  0  0  0  0  0  0  0  0  0  0  0
    5.2927   -1.4021   -3.1785 C   0  0  0  0  0  0  0  0  0  0  0  0
    6.1298   -0.9515   -3.9556 O   0  0  0  0  0  0  0  0  0  0  0  0
    4.0378   -1.6664   -3.6115 O   0  0  0  0  0  0  0  0  0  0  0  0
    7.0082   -1.5674   -1.4109 N   0  0  0  0  0  0  0  0  0  0  0  0
    0.6365    0.7123    0.7227 H   0  0  0  0  0  0  0  0  0  0  0  0
    0.7153   -1.0169    0.2890 H   0  0  0  0  0  0  0  0  0  0  0  0
    0.7453    0.2356   -0.9892 H   0  0  0  0  0  0  0  0  0  0  0  0
    2.9474   -0.5840   -1.8174 H   0  0  0  0  0  0  0  0  0  0  0  0
    2.9910   -1.9198   -0.6295 H   0  0  0  0  0  0  0  0  0  0  0  0
    5.1137   -0.9452    0.3030 H   0  0  0  0  0  0  0  0  0  0  0  0
    5.0901    0.2898   -0.9499 H   0  0  0  0  0  0  0  0  0  0  0  0
    3.4368   -2.0933   -2.9774 H   0  0  0  0  0  0  0  0  0  0  0  0
    7.2186   -1.6536   -0.4194 H   0  0  0  0  0  0  0  0  0  0  0  0
    7.3021   -0.6261   -1.6901 H   0  0  0  0  0  0  0  0  0  0  0  0
  1  2  1  0  0  0  0
  1 12  1  0  0  0  0
  1 13  1  0  0  0  0
  1 14  1  0  0  0  0
  2  3  2  0  0  0  0
  2  4  1  0  0  0  0
  4  5  1  0  0  0  0
  4 15  1  0  0  0  0
  4 16  1  0  0  0  0
  5  6  1  0  0  0  0
  5 17  1  0  0  0  0
  5 18  1  0  0  0  0
  6  7  1  1  0  0  0
  6  8  1  0  0  0  0
  6 11  1  0  0  0  0
  8  9  2  0  0  0  0
  8 10  1  0  0  0  0
 10 19  1  0  0  0  0
 11 20  1  0  0  0  0
 11 21  1  0  0  0  0
M  END
$$$$
