OPY
 OpenBabel04121316173D

 32 32  0  0  1  0  0  0  0  0999 V2000
    0.8428   -0.0066    0.0798 N   0  0  0  0  0  0  0  0  0  0  0  0
    2.2963    0.0007    0.0595 C   0  0  0  0  0  0  0  0  0  0  0  0
    2.9396   -0.0194    1.4430 C   0  0  0  0  0  0  0  0  0  0  0  0
    4.4866    0.0001    1.3885 C   0  0  1  0  0  0  0  0  0  0  0  0
    4.8718   -0.8460    0.8137 H   0  0  0  0  0  0  0  0  0  0  0  0
    5.0032    1.3438    0.7757 C   0  0  0  0  0  0  0  0  0  0  0  0
    5.5011    2.2338    1.4756 O   0  0  0  0  0  0  0  0  0  0  0  0
    4.6842    1.5863   -0.5542 N   0  0  0  0  0  0  0  0  0  0  0  0
    4.1383    2.8907   -0.9195 C   0  0  0  0  0  0  0  0  0  0  0  0
    5.0008    3.5715   -1.9600 C   0  0  0  0  0  0  0  0  0  0  0  0
    5.1945    2.6480   -3.1627 C   0  0  0  0  0  0  0  0  0  0  0  0
    5.7899    1.3078   -2.7183 C   0  0  0  0  0  0  0  0  0  0  0  0
    4.9127    0.6492   -1.6550 C   0  0  0  0  0  0  0  0  0  0  0  0
    4.9999   -0.1413    2.7741 N   0  0  0  0  0  0  0  0  0  0  0  0
    0.5243    0.1172   -0.8844 H   0  0  0  0  0  0  0  0  0  0  0  0
    0.5278    0.8363    0.5634 H   0  0  0  0  0  0  0  0  0  0  0  0
    2.5230    0.9294   -0.4428 H   0  0  0  0  0  0  0  0  0  0  0  0
    2.6743   -0.8283   -0.5471 H   0  0  0  0  0  0  0  0  0  0  0  0
    2.6016   -0.9213    1.9693 H   0  0  0  0  0  0  0  0  0  0  0  0
    2.5801    0.8431    2.0214 H   0  0  0  0  0  0  0  0  0  0  0  0
    3.9939    3.5166   -0.0331 H   0  0  0  0  0  0  0  0  0  0  0  0
    3.1397    2.7218   -1.3461 H   0  0  0  0  0  0  0  0  0  0  0  0
    5.9732    3.8106   -1.5171 H   0  0  0  0  0  0  0  0  0  0  0  0
    4.5304    4.5090   -2.2737 H   0  0  0  0  0  0  0  0  0  0  0  0
    5.8494    3.1300   -3.8942 H   0  0  0  0  0  0  0  0  0  0  0  0
    4.2278    2.4746   -3.6549 H   0  0  0  0  0  0  0  0  0  0  0  0
    6.7889    1.4820   -2.3018 H   0  0  0  0  0  0  0  0  0  0  0  0
    5.9002    0.6429   -3.5811 H   0  0  0  0  0  0  0  0  0  0  0  0
    5.3715   -0.2738   -1.2911 H   0  0  0  0  0  0  0  0  0  0  0  0
    3.9455    0.3973   -2.1060 H   0  0  0  0  0  0  0  0  0  0  0  0
    4.5644   -0.9366    3.2361 H   0  0  0  0  0  0  0  0  0  0  0  0
    4.7189    0.6891    3.3037 H   0  0  0  0  0  0  0  0  0  0  0  0
  1  2  1  0  0  0  0
  1 15  1  0  0  0  0
  1 16  1  0  0  0  0
  2  3  1  0  0  0  0
  2 17  1  0  0  0  0
  2 18  1  0  0  0  0
  3  4  1  0  0  0  0
  3 19  1  0  0  0  0
  3 20  1  0  0  0  0
  4  5  1  6  0  0  0
  4  6  1  0  0  0  0
  4 14  1  0  0  0  0
  6  7  2  0  0  0  0
  6  8  1  0  0  0  0
  8  9  1  0  0  0  0
  8 13  1  0  0  0  0
  9 10  1  0  0  0  0
  9 21  1  0  0  0  0
  9 22  1  0  0  0  0
 10 11  1  0  0  0  0
 10 23  1  0  0  0  0
 10 24  1  0  0  0  0
 11 12  1  0  0  0  0
 11 25  1  0  0  0  0
 11 26  1  0  0  0  0
 12 13  1  0  0  0  0
 12 27  1  0  0  0  0
 12 28  1  0  0  0  0
 13 29  1  0  0  0  0
 13 30  1  0  0  0  0
 14 31  1  0  0  0  0
 14 32  1  0  0  0  0
M  END
$$$$
