ORA
 OpenBabel04121316173D

 39 41  0  0  0  0  0  0  0  0999 V2000
    0.9705    0.1751   -0.2437 O   0  0  0  0  0  0  0  0  0  0  0  0
    2.3288    0.1127   -0.0853 C   0  0  0  0  0  0  0  0  0  0  0  0
    3.0590    1.2888   -0.1551 C   0  0  0  0  0  0  0  0  0  0  0  0
    4.4147    1.2719    0.1460 C   0  0  0  0  0  0  0  0  0  0  0  0
    5.1085    0.0618    0.2066 C   0  0  0  0  0  0  0  0  0  0  0  0
    4.3992   -1.1703    0.1514 C   0  0  0  0  0  0  0  0  0  0  0  0
    2.9615   -1.1221    0.1427 C   0  0  0  0  0  0  0  0  0  0  0  0
    2.2614   -2.3310    0.3420 N   0  0  0  0  0  0  0  0  0  0  0  0
    1.0302   -2.2560    0.4404 N   0  0  0  0  0  0  0  0  0  0  0  0
    0.3962   -3.5087    0.5442 C   0  0  0  0  0  0  0  0  0  0  0  0
    1.0365   -4.7530    0.5638 C   0  0  0  0  0  0  0  0  0  0  0  0
    0.3467   -5.9566    0.5472 C   0  0  0  0  0  0  0  0  0  0  0  0
   -1.0309   -5.9316    0.6367 C   0  0  0  0  0  0  0  0  0  0  0  0
   -1.6943   -4.7089    0.7438 C   0  0  0  0  0  0  0  0  0  0  0  0
   -0.9901   -3.5081    0.6359 C   0  0  0  0  0  0  0  0  0  0  0  0
    5.2050   -2.3464    0.1023 C   0  0  0  0  0  0  0  0  0  0  0  0
    6.5971   -2.3121    0.1194 C   0  0  0  0  0  0  0  0  0  0  0  0
    7.2394   -1.0943    0.2085 C   0  0  0  0  0  0  0  0  0  0  0  0
    6.5124    0.0899    0.2658 C   0  0  0  0  0  0  0  0  0  0  0  0
    9.0050   -1.0491    0.2190 S   0  0  0  0  0  0  0  0  0  0  0  0
    9.4082   -0.4737   -1.0387 O   0  0  0  0  0  0  0  0  0  0  0  0
    9.3993   -0.5134    1.5043 O   0  0  0  0  0  0  0  0  0  0  0  0
    9.4354   -2.6091    0.1714 O   0  0  0  0  0  0  0  0  0  0  0  0
    4.4960   -3.9584    0.0342 S   0  0  0  0  0  0  0  0  0  0  0  0
    4.0197   -4.2159    1.3818 O   0  0  0  0  0  0  0  0  0  0  0  0
    3.7272   -4.0779   -1.1757 O   0  0  0  0  0  0  0  0  0  0  0  0
    5.7294   -4.9829   -0.0983 O   0  0  0  0  0  0  0  0  0  0  0  0
    0.6616    1.0908   -0.2159 H   0  0  0  0  0  0  0  0  0  0  0  0
    2.5844    2.2215   -0.4397 H   0  0  0  0  0  0  0  0  0  0  0  0
    4.9312    2.2207    0.2795 H   0  0  0  0  0  0  0  0  0  0  0  0
    2.1016   -4.8321    0.5849 H   0  0  0  0  0  0  0  0  0  0  0  0
    0.9036   -6.8867    0.4761 H   0  0  0  0  0  0  0  0  0  0  0  0
   -1.5808   -6.8653    0.6328 H   0  0  0  0  0  0  0  0  0  0  0  0
   -2.7656   -4.6858    0.9050 H   0  0  0  0  0  0  0  0  0  0  0  0
   -1.5146   -2.5568    0.6277 H   0  0  0  0  0  0  0  0  0  0  0  0
    7.1643   -3.2351    0.0784 H   0  0  0  0  0  0  0  0  0  0  0  0
    7.0493    1.0373    0.3087 H   0  0  0  0  0  0  0  0  0  0  0  0
    9.3191   -2.9506   -0.7405 H   0  0  0  0  0  0  0  0  0  0  0  0
    5.9426   -5.2547    0.8202 H   0  0  0  0  0  0  0  0  0  0  0  0
  1  2  1  0  0  0  0
  1 28  1  0  0  0  0
  2  3  2  0  0  0  0
  2  7  1  0  0  0  0
  3  4  1  0  0  0  0
  3 29  1  0  0  0  0
  4  5  2  0  0  0  0
  4 30  1  0  0  0  0
  5  6  1  0  0  0  0
  5 19  1  0  0  0  0
  6  7  2  0  0  0  0
  6 16  1  0  0  0  0
  7  8  1  0  0  0  0
  8  9  2  0  0  0  0
  9 10  1  0  0  0  0
 10 11  2  0  0  0  0
 10 15  1  0  0  0  0
 11 12  1  0  0  0  0
 11 31  1  0  0  0  0
 12 13  2  0  0  0  0
 12 32  1  0  0  0  0
 13 14  1  0  0  0  0
 13 33  1  0  0  0  0
 14 15  2  0  0  0  0
 14 34  1  0  0  0  0
 15 35  1  0  0  0  0
 16 17  2  0  0  0  0
 16 24  1  0  0  0  0
 17 18  1  0  0  0  0
 17 36  1  0  0  0  0
 18 19  2  0  0  0  0
 18 20  1  0  0  0  0
 19 37  1  0  0  0  0
 20 21  2  0  0  0  0
 20 22  2  0  0  0  0
 20 23  1  0  0  0  0
 23 38  1  0  0  0  0
 24 25  2  0  0  0  0
 24 26  2  0  0  0  0
 24 27  1  0  0  0  0
 27 39  1  0  0  0  0
M  END
$$$$
