ORG
 OpenBabel04121316173D

 42 44  0  0  0  0  0  0  0  0999 V2000
    1.1173   -0.1008   -0.0350 N   0  0  0  0  0  0  0  0  0  0  0  0
    2.2762   -0.1277   -0.0206 C   0  0  0  0  0  0  0  0  0  0  0  0
    3.7207   -0.1244    0.0127 C   0  0  0  0  0  0  0  0  0  0  0  0
    4.2829    1.0910    0.0066 N   0  0  0  0  0  0  0  0  0  0  0  0
    5.5931    1.0573    0.0805 C   0  0  0  0  0  0  0  0  0  0  0  0
    6.2821    2.2502    0.0240 N   0  0  0  0  0  0  0  0  0  0  0  0
    7.7458    2.3377   -0.0135 C   0  0  0  0  0  0  0  0  0  0  0  0
    8.3858    1.2675   -0.9120 C   0  0  0  0  0  0  0  0  0  0  0  0
    7.8711    1.3945   -2.3433 C   0  0  0  0  0  0  0  0  0  0  0  0
    8.3343    2.7263   -2.9052 C   0  0  0  0  0  0  0  0  0  0  0  0
    7.8216    3.8829   -2.0452 C   0  0  0  0  0  0  0  0  0  0  0  0
    8.2050    3.7041   -0.5697 C   0  0  0  0  0  0  0  0  0  0  0  0
    6.2691   -0.0860    0.1352 N   0  0  0  0  0  0  0  0  0  0  0  0
    5.6538   -1.2574    0.0816 C   0  0  0  0  0  0  0  0  0  0  0  0
    4.3338   -1.3226    0.0559 N   0  0  0  0  0  0  0  0  0  0  0  0
    6.4184   -2.3905   -0.0858 N   0  0  0  0  0  0  0  0  0  0  0  0
    6.3340   -3.5591    0.7950 C   0  0  0  0  0  0  0  0  0  0  0  0
    6.4980   -4.8381   -0.0709 C   0  0  0  0  0  0  0  0  0  0  0  0
    7.7533   -4.8545   -0.8568 N   0  0  0  0  0  0  0  0  0  0  0  0
    7.8139   -3.6311   -1.6805 C   0  0  0  0  0  0  0  0  0  0  0  0
    7.6816   -2.3379   -0.8364 C   0  0  0  0  0  0  0  0  0  0  0  0
    5.7200    3.0896   -0.0109 H   0  0  0  0  0  0  0  0  0  0  0  0
    8.1215    2.2349    1.0116 H   0  0  0  0  0  0  0  0  0  0  0  0
    8.2214    0.2681   -0.5333 H   0  0  0  0  0  0  0  0  0  0  0  0
    9.4777    1.3467   -0.8884 H   0  0  0  0  0  0  0  0  0  0  0  0
    6.7746    1.3526   -2.3875 H   0  0  0  0  0  0  0  0  0  0  0  0
    8.2379    0.5633   -2.9499 H   0  0  0  0  0  0  0  0  0  0  0  0
    7.9852    2.8316   -3.9361 H   0  0  0  0  0  0  0  0  0  0  0  0
    9.4309    2.7362   -2.9217 H   0  0  0  0  0  0  0  0  0  0  0  0
    6.7296    3.9413   -2.1263 H   0  0  0  0  0  0  0  0  0  0  0  0
    8.2219    4.8270   -2.4294 H   0  0  0  0  0  0  0  0  0  0  0  0
    7.8075    4.5329    0.0254 H   0  0  0  0  0  0  0  0  0  0  0  0
    9.3015    3.7621   -0.4934 H   0  0  0  0  0  0  0  0  0  0  0  0
    5.3993   -3.6104    1.3601 H   0  0  0  0  0  0  0  0  0  0  0  0
    7.1595   -3.5400    1.5247 H   0  0  0  0  0  0  0  0  0  0  0  0
    5.6479   -4.9091   -0.7599 H   0  0  0  0  0  0  0  0  0  0  0  0
    6.4836   -5.7254    0.5695 H   0  0  0  0  0  0  0  0  0  0  0  0
    7.7578   -5.6721   -1.4660 H   0  0  0  0  0  0  0  0  0  0  0  0
    7.0055   -3.6572   -2.4235 H   0  0  0  0  0  0  0  0  0  0  0  0
    8.7585   -3.6177   -2.2351 H   0  0  0  0  0  0  0  0  0  0  0  0
    7.7128   -1.4995   -1.5352 H   0  0  0  0  0  0  0  0  0  0  0  0
    8.5408   -2.2582   -0.1550 H   0  0  0  0  0  0  0  0  0  0  0  0
  1  2  3  0  0  0  0
  2  3  1  0  0  0  0
  3  4  2  0  0  0  0
  3 15  1  0  0  0  0
  4  5  1  0  0  0  0
  5  6  1  0  0  0  0
  5 13  2  0  0  0  0
  6  7  1  0  0  0  0
  6 22  1  0  0  0  0
  7  8  1  0  0  0  0
  7 12  1  0  0  0  0
  7 23  1  0  0  0  0
  8  9  1  0  0  0  0
  8 24  1  0  0  0  0
  8 25  1  0  0  0  0
  9 10  1  0  0  0  0
  9 26  1  0  0  0  0
  9 27  1  0  0  0  0
 10 11  1  0  0  0  0
 10 28  1  0  0  0  0
 10 29  1  0  0  0  0
 11 12  1  0  0  0  0
 11 30  1  0  0  0  0
 11 31  1  0  0  0  0
 12 32  1  0  0  0  0
 12 33  1  0  0  0  0
 13 14  1  0  0  0  0
 14 15  2  0  0  0  0
 14 16  1  0  0  0  0
 16 17  1  0  0  0  0
 16 21  1  0  0  0  0
 17 18  1  0  0  0  0
 17 34  1  0  0  0  0
 17 35  1  0  0  0  0
 18 19  1  0  0  0  0
 18 36  1  0  0  0  0
 18 37  1  0  0  0  0
 19 20  1  0  0  0  0
 19 38  1  0  0  0  0
 20 21  1  0  0  0  0
 20 39  1  0  0  0  0
 20 40  1  0  0  0  0
 21 41  1  0  0  0  0
 21 42  1  0  0  0  0
M  END
$$$$
