ORH
 OpenBabel04121316173D

 49 51  0  0  0  0  0  0  0  0999 V2000
    0.9043    0.1548    0.0790 N   0  0  0  0  0  0  0  0  0  0  0  0
    2.0580    0.2080    0.0834 C   0  0  0  0  0  0  0  0  0  0  0  0
    3.5045    0.1324    0.0932 C   0  0  0  0  0  0  0  0  0  0  0  0
    4.1486    1.2542    0.1138 N   0  0  0  0  0  0  0  0  0  0  0  0
    5.5424    1.1782    0.1262 N   0  0  0  0  0  0  0  0  0  0  0  0
    6.2163    2.4434    0.0955 C   0  0  0  0  0  0  0  0  0  0  0  0
    5.5255    3.6487    0.2460 C   0  0  0  0  0  0  0  0  0  0  0  0
    6.2084    4.8686    0.1805 C   0  0  0  0  0  0  0  0  0  0  0  0
    7.5474    4.9073   -0.2047 C   0  0  0  0  0  0  0  0  0  0  0  0
    8.2525    3.7239   -0.3727 C   0  0  0  0  0  0  0  0  0  0  0  0
    7.5994    2.5241   -0.1138 C   0  0  0  0  0  0  0  0  0  0  0  0
    9.6733    3.7012   -0.8625 C   0  0  0  0  0  0  0  0  0  0  0  0
    9.7884    4.2550   -2.1008 F   0  0  0  0  0  0  0  0  0  0  0  0
   10.5132    4.3932   -0.0507 F   0  0  0  0  0  0  0  0  0  0  0  0
   10.2020    2.4490   -0.9728 F   0  0  0  0  0  0  0  0  0  0  0  0
    6.2611   -0.0280    0.1167 C   0  0  0  0  0  0  0  0  0  0  0  0
    7.4885   -0.1407    0.1288 O   0  0  0  0  0  0  0  0  0  0  0  0
    5.5295   -1.1898    0.1187 N   0  0  0  0  0  0  0  0  0  0  0  0
    4.1527   -1.1883    0.0925 C   0  0  0  0  0  0  0  0  0  0  0  0
    3.3789   -2.1361    0.0778 O   0  0  0  0  0  0  0  0  0  0  0  0
    6.3520   -2.4064    0.1537 C   0  0  0  0  0  0  0  0  0  0  0  0
    5.5211   -3.6383    0.2309 C   0  0  0  0  0  0  0  0  0  0  0  0
    6.2431   -4.9840    0.1929 C   0  0  0  0  0  0  0  0  0  0  0  0
    5.1327   -5.8905   -0.0600 N   0  0  0  0  0  0  0  0  0  0  0  0
    4.6612   -5.7149   -1.4307 C   0  0  0  0  0  0  0  0  0  0  0  0
    5.2414   -6.7314   -2.3705 C   0  0  0  0  0  0  0  0  0  0  0  0
    4.7902   -8.0973   -1.9374 C   0  0  0  0  0  0  0  0  0  0  0  0
    5.3384   -8.3692   -0.5377 C   0  0  0  0  0  0  0  0  0  0  0  0
    4.9551   -7.2479    0.4454 C   0  0  0  0  0  0  0  0  0  0  0  0
    4.4549    3.6592    0.4354 H   0  0  0  0  0  0  0  0  0  0  0  0
    5.6894    5.7944    0.4096 H   0  0  0  0  0  0  0  0  0  0  0  0
    8.0489    5.8559   -0.3738 H   0  0  0  0  0  0  0  0  0  0  0  0
    8.2487    1.6601   -0.1297 H   0  0  0  0  0  0  0  0  0  0  0  0
    7.0256   -2.3531    1.0149 H   0  0  0  0  0  0  0  0  0  0  0  0
    6.9753   -2.4092   -0.7545 H   0  0  0  0  0  0  0  0  0  0  0  0
    4.8670   -3.5235   -0.6350 H   0  0  0  0  0  0  0  0  0  0  0  0
    4.8757   -3.6091    1.1151 H   0  0  0  0  0  0  0  0  0  0  0  0
    6.7938   -5.1089    1.1305 H   0  0  0  0  0  0  0  0  0  0  0  0
    6.9716   -4.9921   -0.6297 H   0  0  0  0  0  0  0  0  0  0  0  0
    4.9853   -4.7779   -1.8874 H   0  0  0  0  0  0  0  0  0  0  0  0
    3.5684   -5.6873   -1.4110 H   0  0  0  0  0  0  0  0  0  0  0  0
    6.3388   -6.6680   -2.3618 H   0  0  0  0  0  0  0  0  0  0  0  0
    4.9011   -6.4860   -3.3777 H   0  0  0  0  0  0  0  0  0  0  0  0
    5.1426   -8.8360   -2.6592 H   0  0  0  0  0  0  0  0  0  0  0  0
    3.6926   -8.1231   -1.9295 H   0  0  0  0  0  0  0  0  0  0  0  0
    6.4292   -8.4580   -0.5754 H   0  0  0  0  0  0  0  0  0  0  0  0
    4.9410   -9.3343   -0.1994 H   0  0  0  0  0  0  0  0  0  0  0  0
    5.3806   -7.4345    1.4401 H   0  0  0  0  0  0  0  0  0  0  0  0
    3.8694   -7.3571    0.6015 H   0  0  0  0  0  0  0  0  0  0  0  0
  1  2  3  0  0  0  0
  2  3  1  0  0  0  0
  3  4  2  0  0  0  0
  3 19  1  0  0  0  0
  4  5  1  0  0  0  0
  5  6  1  0  0  0  0
  5 16  1  0  0  0  0
  6  7  2  0  0  0  0
  6 11  1  0  0  0  0
  7  8  1  0  0  0  0
  7 30  1  0  0  0  0
  8  9  2  0  0  0  0
  8 31  1  0  0  0  0
  9 10  1  0  0  0  0
  9 32  1  0  0  0  0
 10 11  2  0  0  0  0
 10 12  1  0  0  0  0
 11 33  1  0  0  0  0
 12 13  1  0  0  0  0
 12 14  1  0  0  0  0
 12 15  1  0  0  0  0
 16 17  2  0  0  0  0
 16 18  1  0  0  0  0
 18 19  1  0  0  0  0
 18 21  1  0  0  0  0
 19 20  2  0  0  0  0
 21 22  1  0  0  0  0
 21 34  1  0  0  0  0
 21 35  1  0  0  0  0
 22 23  1  0  0  0  0
 22 36  1  0  0  0  0
 22 37  1  0  0  0  0
 23 24  1  0  0  0  0
 23 38  1  0  0  0  0
 23 39  1  0  0  0  0
 24 25  1  0  0  0  0
 24 29  1  0  0  0  0
 25 26  1  0  0  0  0
 25 40  1  0  0  0  0
 25 41  1  0  0  0  0
 26 27  1  0  0  0  0
 26 42  1  0  0  0  0
 26 43  1  0  0  0  0
 27 28  1  0  0  0  0
 27 44  1  0  0  0  0
 27 45  1  0  0  0  0
 28 29  1  0  0  0  0
 28 46  1  0  0  0  0
 28 47  1  0  0  0  0
 29 48  1  0  0  0  0
 29 49  1  0  0  0  0
M  END
$$$$
