ORO
 OpenBabel04121316173D

 15 15  0  0  0  0  0  0  0  0999 V2000
    1.0020   -0.0317   -0.0656 O   0  0  0  0  0  0  0  0  0  0  0  0
    2.2271   -0.0151   -0.0649 C   0  0  0  0  0  0  0  0  0  0  0  0
    2.9629    1.1300   -0.0633 N   0  0  0  0  0  0  0  0  0  0  0  0
    2.4662    2.0078   -0.0638 H   0  0  0  0  0  0  0  0  0  0  0  0
    4.3265    1.1843   -0.0620 C   0  0  0  0  0  0  0  0  0  0  0  0
    4.9338    2.2488   -0.0642 O   0  0  0  0  0  0  0  0  0  0  0  0
    4.9617   -0.0232   -0.0582 N   0  0  0  0  0  0  0  0  0  0  0  0
    5.9807   -0.0118   -0.0555 H   0  0  0  0  0  0  0  0  0  0  0  0
    4.3161   -1.2407   -0.0598 C   0  0  0  0  0  0  0  0  0  0  0  0
    2.9793   -1.2814   -0.0652 C   0  0  0  0  0  0  0  0  0  0  0  0
    5.1880   -2.4527   -0.0556 C   0  0  0  0  0  0  0  0  0  0  0  0
    6.4089   -2.3501   -0.0506 O   0  0  0  0  0  0  0  0  0  0  0  0
    4.5757   -3.6510   -0.0567 O   0  0  0  0  0  0  0  0  0  0  0  0
    2.3666   -2.1684   -0.0686 H   0  0  0  0  0  0  0  0  0  0  0  0
    3.6049   -3.6831   -0.0599 H   0  0  0  0  0  0  0  0  0  0  0  0
  1  2  2  0  0  0  0
  2  3  1  0  0  0  0
  2 10  1  0  0  0  0
  3  4  1  0  0  0  0
  3  5  1  0  0  0  0
  5  6  2  0  0  0  0
  5  7  1  0  0  0  0
  7  8  1  0  0  0  0
  7  9  1  0  0  0  0
  9 10  2  0  0  0  0
  9 11  1  0  0  0  0
 10 14  1  0  0  0  0
 11 12  2  0  0  0  0
 11 13  1  0  0  0  0
 13 15  1  0  0  0  0
M  END
$$$$
