OSB
 OpenBabel04121316173D

 26 26  0  0  0  0  0  0  0  0999 V2000
    0.8510   -0.2668    0.1324 O   0  0  0  0  0  0  0  0  0  0  0  0
    2.1887   -0.1682    0.1259 C   0  0  0  0  0  0  0  0  0  0  0  0
    2.7543    0.7273    0.7319 O   0  0  0  0  0  0  0  0  0  0  0  0
    2.8192   -1.3254   -0.6164 C   0  0  0  0  0  0  0  0  0  0  0  0
    4.3067   -1.1249   -0.5448 C   0  0  0  0  0  0  0  0  0  0  0  0
    5.2487   -2.0830   -1.2391 C   0  0  0  0  0  0  0  0  0  0  0  0
    4.7752   -3.0212   -1.8820 O   0  0  0  0  0  0  0  0  0  0  0  0
    6.7835   -1.9266   -1.1502 C   0  0  0  0  0  0  0  0  0  0  0  0
    7.4719   -3.1355   -1.4440 C   0  0  0  0  0  0  0  0  0  0  0  0
    8.8567   -3.2601   -1.2651 C   0  0  0  0  0  0  0  0  0  0  0  0
    9.6179   -2.1488   -0.9535 C   0  0  0  0  0  0  0  0  0  0  0  0
    8.9987   -0.9198   -0.8315 C   0  0  0  0  0  0  0  0  0  0  0  0
    7.5971   -0.7931   -0.8267 C   0  0  0  0  0  0  0  0  0  0  0  0
    7.2741    0.6231   -0.4124 C   0  0  0  0  0  0  0  0  0  0  0  0
    8.0509    1.5215   -0.2168 O   0  0  0  0  0  0  0  0  0  0  0  0
    5.9743    0.8242   -0.3071 O   0  0  0  0  0  0  0  0  0  0  0  0
    0.5762    0.3176    0.8686 H   0  0  0  0  0  0  0  0  0  0  0  0
    2.5154   -1.2715   -1.6692 H   0  0  0  0  0  0  0  0  0  0  0  0
    2.5269   -2.2686   -0.1645 H   0  0  0  0  0  0  0  0  0  0  0  0
    4.6322   -0.9979    0.4942 H   0  0  0  0  0  0  0  0  0  0  0  0
    4.2930   -0.2158   -1.1356 H   0  0  0  0  0  0  0  0  0  0  0  0
    6.9352   -4.0217   -1.7932 H   0  0  0  0  0  0  0  0  0  0  0  0
    9.3486   -4.2241   -1.3735 H   0  0  0  0  0  0  0  0  0  0  0  0
   10.6906   -2.2159   -0.8004 H   0  0  0  0  0  0  0  0  0  0  0  0
    9.6239   -0.0368   -0.6895 H   0  0  0  0  0  0  0  0  0  0  0  0
    5.7088    0.4214   -1.1383 H   0  0  0  0  0  0  0  0  0  0  0  0
  1  2  1  0  0  0  0
  1 17  1  0  0  0  0
  2  3  2  0  0  0  0
  2  4  1  0  0  0  0
  4  5  1  0  0  0  0
  4 18  1  0  0  0  0
  4 19  1  0  0  0  0
  5  6  1  0  0  0  0
  5 20  1  0  0  0  0
  5 21  1  0  0  0  0
  6  7  2  0  0  0  0
  6  8  1  0  0  0  0
  8  9  2  0  0  0  0
  8 13  1  0  0  0  0
  9 10  1  0  0  0  0
  9 22  1  0  0  0  0
 10 11  2  0  0  0  0
 10 23  1  0  0  0  0
 11 12  1  0  0  0  0
 11 24  1  0  0  0  0
 12 13  2  0  0  0  0
 12 25  1  0  0  0  0
 13 14  1  0  0  0  0
 14 15  2  0  0  0  0
 14 16  1  0  0  0  0
 16 26  1  0  0  0  0
M  END
$$$$
