OSP
 OpenBabel04121316173D

 32 33  0  0  0  0  0  0  0  0999 V2000
    0.9090    0.0466    0.1685 O   0  0  0  0  0  0  0  0  0  0  0  0
    2.3479    0.0745    0.2938 S   0  0  0  0  0  0  0  0  0  0  0  0
    2.9982    0.4007    1.5478 O   0  0  0  0  0  0  0  0  0  0  0  0
    2.9856   -1.4905   -0.2653 C   0  0  0  0  0  0  0  0  0  0  0  0
    2.5327   -1.7744   -1.6925 C   0  0  0  0  0  0  0  0  0  0  0  0
    3.0438   -0.7158   -2.6761 C   0  0  0  0  0  0  0  0  0  0  0  0
    2.5551    0.6961   -2.3244 C   0  0  0  0  0  0  0  0  0  0  0  0
    2.9692    1.0236   -0.9491 N   0  0  0  0  0  0  0  0  0  0  0  0
    3.6995    2.2012   -0.6405 C   0  0  0  0  0  0  0  0  0  0  0  0
    3.0688    3.4446   -0.6547 C   0  0  0  0  0  0  0  0  0  0  0  0
    3.8283    4.6089   -0.5173 C   0  0  0  0  0  0  0  0  0  0  0  0
    5.1953    4.5142   -0.2398 C   0  0  0  0  0  0  0  0  0  0  0  0
    5.7937    3.2645   -0.0555 C   0  0  0  0  0  0  0  0  0  0  0  0
    5.0547    2.1084   -0.3160 C   0  0  0  0  0  0  0  0  0  0  0  0
    6.1416    6.0169   -0.2135 S   0  0  0  0  0  0  0  0  0  0  0  0
    6.1779    6.5157   -1.5680 O   0  0  0  0  0  0  0  0  0  0  0  0
    5.6902    6.8011    0.9103 O   0  0  0  0  0  0  0  0  0  0  0  0
    7.6897    5.4997    0.1424 N   0  0  0  0  0  0  0  0  0  0  0  0
    2.6205   -2.2547    0.4242 H   0  0  0  0  0  0  0  0  0  0  0  0
    4.0783   -1.4457   -0.1997 H   0  0  0  0  0  0  0  0  0  0  0  0
    1.4372   -1.8038   -1.7375 H   0  0  0  0  0  0  0  0  0  0  0  0
    2.8948   -2.7624   -1.9959 H   0  0  0  0  0  0  0  0  0  0  0  0
    2.7088   -0.9806   -3.6861 H   0  0  0  0  0  0  0  0  0  0  0  0
    4.1411   -0.7358   -2.6871 H   0  0  0  0  0  0  0  0  0  0  0  0
    1.4628    0.7462   -2.4042 H   0  0  0  0  0  0  0  0  0  0  0  0
    2.9611    1.4116   -3.0483 H   0  0  0  0  0  0  0  0  0  0  0  0
    1.9919    3.5121   -0.7797 H   0  0  0  0  0  0  0  0  0  0  0  0
    3.3560    5.5822   -0.6337 H   0  0  0  0  0  0  0  0  0  0  0  0
    6.8234    3.1610    0.2691 H   0  0  0  0  0  0  0  0  0  0  0  0
    5.5395    1.1379   -0.2580 H   0  0  0  0  0  0  0  0  0  0  0  0
    8.1599    5.0098   -0.6135 H   0  0  0  0  0  0  0  0  0  0  0  0
    7.8304    5.2108    1.1060 H   0  0  0  0  0  0  0  0  0  0  0  0
  1  2  2  0  0  0  0
  2  3  2  0  0  0  0
  2  4  1  0  0  0  0
  2  8  1  0  0  0  0
  4  5  1  0  0  0  0
  4 19  1  0  0  0  0
  4 20  1  0  0  0  0
  5  6  1  0  0  0  0
  5 21  1  0  0  0  0
  5 22  1  0  0  0  0
  6  7  1  0  0  0  0
  6 23  1  0  0  0  0
  6 24  1  0  0  0  0
  7  8  1  0  0  0  0
  7 25  1  0  0  0  0
  7 26  1  0  0  0  0
  8  9  1  0  0  0  0
  9 10  2  0  0  0  0
  9 14  1  0  0  0  0
 10 11  1  0  0  0  0
 10 27  1  0  0  0  0
 11 12  2  0  0  0  0
 11 28  1  0  0  0  0
 12 13  1  0  0  0  0
 12 15  1  0  0  0  0
 13 14  2  0  0  0  0
 13 29  1  0  0  0  0
 14 30  1  0  0  0  0
 15 16  2  0  0  0  0
 15 17  2  0  0  0  0
 15 18  1  0  0  0  0
 18 31  1  0  0  0  0
 18 32  1  0  0  0  0
M  END
$$$$
