OVA
 OpenBabel04121316173D

 47 48  0  0  1  0  0  0  0  0999 V2000
    2.3452    2.1612    2.4334 C   0  0  0  0  0  0  0  0  0  0  0  0
    1.9603    1.5952    1.1984 O   0  0  0  0  0  0  0  0  0  0  0  0
    2.7866    1.1694    0.1271 C   0  0  2  0  0  0  0  0  0  0  0  0
    1.9862    0.5430   -0.2676 H   0  0  0  0  0  0  0  0  0  0  0  0
    3.8946    0.1076   -0.0071 C   0  0  0  0  0  0  0  0  0  0  0  0
    4.7342   -0.1275    0.8312 O   0  0  0  0  0  0  0  0  0  0  0  0
    3.8274   -0.6067   -1.3702 C   0  0  0  0  0  0  0  0  0  0  0  0
    3.9600    0.3735   -2.5466 C   0  0  0  0  0  0  0  0  0  0  0  0
    2.9455    1.5630   -2.4694 C   0  0  1  0  0  0  0  0  0  0  0  0
    3.1183    2.2206   -1.0596 C   0  0  2  0  0  0  0  0  0  0  0  0
    4.5207    2.6475   -1.0832 O   0  0  0  0  0  0  0  0  0  0  0  0
    2.3765    3.4748   -0.6876 C   0  0  1  0  0  0  0  0  0  0  0  0
    3.1688    4.1984    0.3746 C   0  0  0  0  0  0  0  0  0  0  0  0
    1.8128    4.3586   -1.6591 O   0  0  0  0  0  0  0  0  0  0  0  0
    0.8589    3.5939   -0.9142 C   0  0  2  0  0  0  0  0  0  0  0  0
    0.2816    2.8919   -1.5055 H   0  0  0  0  0  0  0  0  0  0  0  0
   -0.0067    4.3284    0.0518 C   0  0  0  0  0  0  0  0  0  0  0  0
   -0.9008    3.4106    0.8427 C   0  0  0  0  0  0  0  0  0  0  0  0
   -1.6597    3.8001    1.8815 C   0  0  0  0  0  0  0  0  0  0  0  0
   -1.7149    5.2262    2.3519 C   0  0  0  0  0  0  0  0  0  0  0  0
   -2.5032    2.8078    2.6312 C   0  0  0  0  0  0  0  0  0  0  0  0
    3.2758    2.5411   -3.6173 C   0  0  0  0  0  0  0  0  0  0  0  0
    1.6365    1.0488   -2.7267 O   0  0  0  0  0  0  0  0  0  0  0  0
    1.9731    3.1957    2.5047 H   0  0  0  0  0  0  0  0  0  0  0  0
    3.4130    2.1364    2.6516 H   0  0  0  0  0  0  0  0  0  0  0  0
    1.7924    1.6359    3.2178 H   0  0  0  0  0  0  0  0  0  0  0  0
    2.8510   -1.1000   -1.4234 H   0  0  0  0  0  0  0  0  0  0  0  0
    4.5913   -1.3853   -1.4206 H   0  0  0  0  0  0  0  0  0  0  0  0
    3.8235   -0.1759   -3.4855 H   0  0  0  0  0  0  0  0  0  0  0  0
    4.9900    0.7566   -2.5660 H   0  0  0  0  0  0  0  0  0  0  0  0
    5.1468    1.9587   -0.8190 H   0  0  0  0  0  0  0  0  0  0  0  0
    2.6023    4.8173    1.0575 H   0  0  0  0  0  0  0  0  0  0  0  0
    4.0131    4.7430   -0.0531 H   0  0  0  0  0  0  0  0  0  0  0  0
    3.6732    3.4440    0.9871 H   0  0  0  0  0  0  0  0  0  0  0  0
   -0.6293    5.0572   -0.4804 H   0  0  0  0  0  0  0  0  0  0  0  0
    0.6113    4.8913    0.7541 H   0  0  0  0  0  0  0  0  0  0  0  0
   -0.9036    2.3606    0.5540 H   0  0  0  0  0  0  0  0  0  0  0  0
   -1.0862    5.8945    1.7552 H   0  0  0  0  0  0  0  0  0  0  0  0
   -1.3650    5.2991    3.3851 H   0  0  0  0  0  0  0  0  0  0  0  0
   -2.7356    5.6112    2.2811 H   0  0  0  0  0  0  0  0  0  0  0  0
   -2.4070    1.7958    2.2204 H   0  0  0  0  0  0  0  0  0  0  0  0
   -3.5602    3.0853    2.5770 H   0  0  0  0  0  0  0  0  0  0  0  0
   -2.1991    2.7657    3.6815 H   0  0  0  0  0  0  0  0  0  0  0  0
    4.2933    2.9398   -3.5432 H   0  0  0  0  0  0  0  0  0  0  0  0
    2.5870    3.3891   -3.6415 H   0  0  0  0  0  0  0  0  0  0  0  0
    3.1744    2.0580   -4.5953 H   0  0  0  0  0  0  0  0  0  0  0  0
    1.2952    0.5420   -1.9760 H   0  0  0  0  0  0  0  0  0  0  0  0
  1  2  1  0  0  0  0
  1 24  1  0  0  0  0
  1 25  1  0  0  0  0
  1 26  1  0  0  0  0
  3  5  1  0  0  0  0
  3 10  1  0  0  0  0
  3  4  1  6  0  0  0
  3  2  1  0  0  0  0
  5  6  2  0  0  0  0
  5  7  1  0  0  0  0
  7  8  1  0  0  0  0
  7 27  1  0  0  0  0
  7 28  1  0  0  0  0
  8  9  1  0  0  0  0
  8 29  1  0  0  0  0
  8 30  1  0  0  0  0
  9 10  1  0  0  0  0
  9 23  1  6  0  0  0
  9 22  1  0  0  0  0
 10 12  1  0  0  0  0
 10 11  1  1  0  0  0
 11 31  1  0  0  0  0
 12 13  1  1  0  0  0
 12 14  1  0  0  0  0
 12 15  1  0  0  0  0
 13 32  1  0  0  0  0
 13 33  1  0  0  0  0
 13 34  1  0  0  0  0
 14 15  1  0  0  0  0
 15 16  1  6  0  0  0
 15 17  1  0  0  0  0
 17 18  1  0  0  0  0
 17 35  1  0  0  0  0
 17 36  1  0  0  0  0
 18 19  2  0  0  0  0
 18 37  1  0  0  0  0
 19 20  1  0  0  0  0
 19 21  1  0  0  0  0
 20 38  1  0  0  0  0
 20 39  1  0  0  0  0
 20 40  1  0  0  0  0
 21 41  1  0  0  0  0
 21 42  1  0  0  0  0
 21 43  1  0  0  0  0
 22 44  1  0  0  0  0
 22 45  1  0  0  0  0
 22 46  1  0  0  0  0
 23 47  1  0  0  0  0
M  END
$$$$
