OXC
 OpenBabel04121316173D

 16 16  0  0  0  0  0  0  0  0999 V2000
    1.2757    0.1002    0.4192 O   0  0  0  0  0  0  0  0  0  0  0  0
    2.4285    0.0926    0.0550 C   0  0  0  0  0  0  0  0  0  0  0  0
    3.1416   -1.0575   -0.1071 N   0  0  0  0  0  0  0  0  0  0  0  0
    4.1404   -1.1406   -1.0186 C   0  0  0  0  0  0  0  0  0  0  0  0
    4.3479   -2.1420   -1.6928 O   0  0  0  0  0  0  0  0  0  0  0  0
    4.8897   -0.0091   -1.1114 N   0  0  0  0  0  0  0  0  0  0  0  0
    4.1671    1.2194   -1.1932 C   0  0  0  0  0  0  0  0  0  0  0  0
    3.1144    1.2444   -0.2253 N   0  0  0  0  0  0  0  0  0  0  0  0
    5.1292    2.4308   -1.1724 C   0  0  0  0  0  0  0  0  0  0  0  0
    6.3480    2.3306   -1.2464 O   0  0  0  0  0  0  0  0  0  0  0  0
    4.5125    3.6387   -1.2046 O   0  0  0  0  0  0  0  0  0  0  0  0
    2.6642   -1.9149    0.1196 H   0  0  0  0  0  0  0  0  0  0  0  0
    5.7618   -0.0741   -1.6225 H   0  0  0  0  0  0  0  0  0  0  0  0
    3.6687    1.2428   -2.1742 H   0  0  0  0  0  0  0  0  0  0  0  0
    2.9828    2.0006    0.4345 H   0  0  0  0  0  0  0  0  0  0  0  0
    3.5404    3.6079   -1.2962 H   0  0  0  0  0  0  0  0  0  0  0  0
  1  2  2  0  0  0  0
  2  3  1  0  0  0  0
  2  8  1  0  0  0  0
  3  4  1  0  0  0  0
  3 12  1  0  0  0  0
  4  5  2  0  0  0  0
  4  6  1  0  0  0  0
  6  7  1  0  0  0  0
  6 13  1  0  0  0  0
  7  8  1  0  0  0  0
  7  9  1  0  0  0  0
  7 14  1  0  0  0  0
  8 15  1  0  0  0  0
  9 10  2  0  0  0  0
  9 11  1  0  0  0  0
 11 16  1  0  0  0  0
M  END
$$$$
