OXQ
 OpenBabel04121316173D

 11 11  0  0  0  0  0  0  0  0999 V2000
    1.0919   -0.1081    0.0454 O   0  0  0  0  0  0  0  0  0  0  0  0
    2.4455    0.0171    0.0294 C   0  0  0  0  0  0  0  0  0  0  0  0
    3.0849    0.0671    1.0812 O   0  0  0  0  0  0  0  0  0  0  0  0
    3.0766    0.0001   -1.2668 C   0  0  0  0  0  0  0  0  0  0  0  0
    3.4272    1.0941   -1.9621 N   0  0  0  0  0  0  0  0  0  0  0  0
    4.1241    0.6023   -3.0769 O   0  0  0  0  0  0  0  0  0  0  0  0
    4.1649   -0.8016   -3.0731 N   0  0  0  0  0  0  0  0  0  0  0  0
    3.5256   -1.1167   -1.9577 C   0  0  0  0  0  0  0  0  0  0  0  0
    3.3930   -2.4091   -1.6540 O   0  0  0  0  0  0  0  0  0  0  0  0
    0.7215   -0.5155   -0.7603 H   0  0  0  0  0  0  0  0  0  0  0  0
    3.8800   -2.9145   -2.3273 H   0  0  0  0  0  0  0  0  0  0  0  0
  1  2  1  0  0  0  0
  1 10  1  0  0  0  0
  2  3  2  0  0  0  0
  2  4  1  0  0  0  0
  4  5  2  0  0  0  0
  4  8  1  0  0  0  0
  5  6  1  0  0  0  0
  6  7  1  0  0  0  0
  7  8  2  0  0  0  0
  8  9  1  0  0  0  0
  9 11  1  0  0  0  0
M  END
$$$$
