OYJ
 OpenBabel04121316173D

 58 61  0  0  1  0  0  0  0  0999 V2000
    0.9337   -0.0660    0.1053 O   0  0  0  0  0  0  0  0  0  0  0  0
    2.1716   -0.0130    0.0863 C   0  0  0  0  0  0  0  0  0  0  0  0
    2.8724   -0.4196   -1.2059 C   0  0  1  0  0  0  0  0  0  0  0  0
    2.2042   -0.0740   -2.0087 H   0  0  0  0  0  0  0  0  0  0  0  0
    4.2359    0.1735   -1.5112 C   0  0  0  0  0  0  0  0  0  0  0  0
    4.8868   -0.7741   -2.4337 N   0  0  0  0  0  0  0  0  0  0  0  0
    4.4291   -2.1245   -1.9773 C   0  0  0  0  0  0  0  0  0  0  0  0
    3.0562   -1.9331   -1.3062 C   0  0  2  0  0  0  0  0  0  0  0  0
    3.0282   -2.4254   -0.3296 H   0  0  0  0  0  0  0  0  0  0  0  0
    1.9928   -2.6412   -2.1278 C   0  0  0  0  0  0  0  0  0  0  0  0
    2.2937   -3.3241   -3.1073 O   0  0  0  0  0  0  0  0  0  0  0  0
    0.6915   -2.5423   -1.6366 N   0  0  0  0  0  0  0  0  0  0  0  0
   -0.3335   -3.1267   -2.4083 C   0  0  0  0  0  0  0  0  0  0  0  0
   -0.3324   -4.5164   -2.5775 C   0  0  0  0  0  0  0  0  0  0  0  0
   -1.2362   -5.1235   -3.4453 C   0  0  0  0  0  0  0  0  0  0  0  0
   -2.0469   -4.3251   -4.2457 C   0  0  0  0  0  0  0  0  0  0  0  0
   -2.0542   -2.9404   -4.0634 C   0  0  0  0  0  0  0  0  0  0  0  0
   -1.2597   -2.3378   -3.0857 C   0  0  0  0  0  0  0  0  0  0  0  0
   -2.8030   -2.1589   -4.8573 F   0  0  0  0  0  0  0  0  0  0  0  0
   -3.0007   -5.0647   -5.4734 Cl  0  0  0  0  0  0  0  0  0  0  0  0
    4.6399   -0.3131   -4.0371 S   0  0  0  0  0  0  0  0  0  0  0  0
    3.2367   -0.4841   -4.3073 O   0  0  0  0  0  0  0  0  0  0  0  0
    5.2616    0.9954   -4.1797 O   0  0  0  0  0  0  0  0  0  0  0  0
    5.5854   -1.4779   -4.9860 C   0  0  0  0  0  0  0  0  0  0  0  0
    2.8162    0.3511    1.2370 N   0  0  0  0  0  0  0  0  0  0  0  0
    4.1964    0.3809    1.4628 C   0  0  0  0  0  0  0  0  0  0  0  0
    4.8580    1.6056    1.4139 C   0  0  0  0  0  0  0  0  0  0  0  0
    6.2378    1.6246    1.1387 C   0  0  0  0  0  0  0  0  0  0  0  0
    7.0051    0.4397    1.0464 C   0  0  0  0  0  0  0  0  0  0  0  0
    6.3228   -0.7644    1.2879 C   0  0  0  0  0  0  0  0  0  0  0  0
    4.9414   -0.7955    1.4438 C   0  0  0  0  0  0  0  0  0  0  0  0
    4.3261   -1.9851    1.3948 F   0  0  0  0  0  0  0  0  0  0  0  0
    8.4034    0.4663    0.6354 N   0  0  0  0  0  0  0  0  0  0  0  0
    9.0823    1.6755    0.4292 C   0  0  0  0  0  0  0  0  0  0  0  0
   10.3066    1.7390   -0.1083 C   0  0  0  0  0  0  0  0  0  0  0  0
   11.0423    0.5380   -0.3650 C   0  0  0  0  0  0  0  0  0  0  0  0
   10.5035   -0.6434   -0.0628 C   0  0  0  0  0  0  0  0  0  0  0  0
    9.0773   -0.7466    0.3333 C   0  0  0  0  0  0  0  0  0  0  0  0
    8.6262   -1.8916    0.3337 O   0  0  0  0  0  0  0  0  0  0  0  0
    4.9339    0.1916   -0.7040 H   0  0  0  0  0  0  0  0  0  0  0  0
    4.1962    1.2129   -1.8475 H   0  0  0  0  0  0  0  0  0  0  0  0
    5.1451   -2.5017   -1.2333 H   0  0  0  0  0  0  0  0  0  0  0  0
    4.4648   -2.8435   -2.7942 H   0  0  0  0  0  0  0  0  0  0  0  0
    0.4570   -1.7503   -1.0395 H   0  0  0  0  0  0  0  0  0  0  0  0
    0.3915   -5.1256   -2.0412 H   0  0  0  0  0  0  0  0  0  0  0  0
   -1.2665   -6.2062   -3.5179 H   0  0  0  0  0  0  0  0  0  0  0  0
   -1.3048   -1.2621   -2.9569 H   0  0  0  0  0  0  0  0  0  0  0  0
    5.2293   -2.4892   -4.7966 H   0  0  0  0  0  0  0  0  0  0  0  0
    6.6442   -1.3713   -4.7464 H   0  0  0  0  0  0  0  0  0  0  0  0
    5.4135   -1.2253   -6.0345 H   0  0  0  0  0  0  0  0  0  0  0  0
    2.2117    0.7285    1.9582 H   0  0  0  0  0  0  0  0  0  0  0  0
    4.3091    2.5442    1.4087 H   0  0  0  0  0  0  0  0  0  0  0  0
    6.6530    2.5975    0.8922 H   0  0  0  0  0  0  0  0  0  0  0  0
    6.7902   -1.7388    1.2601 H   0  0  0  0  0  0  0  0  0  0  0  0
    8.6046    2.6052    0.7085 H   0  0  0  0  0  0  0  0  0  0  0  0
   10.7919    2.6922   -0.2926 H   0  0  0  0  0  0  0  0  0  0  0  0
   12.0590    0.6090   -0.7315 H   0  0  0  0  0  0  0  0  0  0  0  0
   11.0379   -1.5808   -0.1408 H   0  0  0  0  0  0  0  0  0  0  0  0
  1  2  2  0  0  0  0
  2  3  1  0  0  0  0
  2 25  1  0  0  0  0
  3  4  1  6  0  0  0
  3  5  1  0  0  0  0
  3  8  1  0  0  0  0
  5  6  1  0  0  0  0
  5 40  1  0  0  0  0
  5 41  1  0  0  0  0
  6  7  1  0  0  0  0
  6 21  1  0  0  0  0
  7  8  1  0  0  0  0
  7 42  1  0  0  0  0
  7 43  1  0  0  0  0
  8  9  1  1  0  0  0
  8 10  1  0  0  0  0
 10 11  2  0  0  0  0
 10 12  1  0  0  0  0
 12 13  1  0  0  0  0
 12 44  1  0  0  0  0
 13 14  2  0  0  0  0
 13 18  1  0  0  0  0
 14 15  1  0  0  0  0
 14 45  1  0  0  0  0
 15 16  2  0  0  0  0
 15 46  1  0  0  0  0
 16 17  1  0  0  0  0
 16 20  1  0  0  0  0
 17 18  2  0  0  0  0
 17 19  1  0  0  0  0
 18 47  1  0  0  0  0
 21 22  2  0  0  0  0
 21 23  2  0  0  0  0
 21 24  1  0  0  0  0
 24 48  1  0  0  0  0
 24 49  1  0  0  0  0
 24 50  1  0  0  0  0
 25 26  1  0  0  0  0
 25 51  1  0  0  0  0
 26 27  2  0  0  0  0
 26 31  1  0  0  0  0
 27 28  1  0  0  0  0
 27 52  1  0  0  0  0
 28 29  2  0  0  0  0
 28 53  1  0  0  0  0
 29 30  1  0  0  0  0
 29 33  1  0  0  0  0
 30 31  2  0  0  0  0
 30 54  1  0  0  0  0
 31 32  1  0  0  0  0
 33 34  1  0  0  0  0
 33 38  1  0  0  0  0
 34 35  2  0  0  0  0
 34 55  1  0  0  0  0
 35 36  1  0  0  0  0
 35 56  1  0  0  0  0
 36 37  2  0  0  0  0
 36 57  1  0  0  0  0
 37 38  1  0  0  0  0
 37 58  1  0  0  0  0
 38 39  2  0  0  0  0
M  END
$$$$
