OZR
 OpenBabel04121316173D

 40 41  0  0  1  0  0  0  0  0999 V2000
    0.9256    0.1219   -0.0351 O   0  0  0  0  0  0  0  0  0  0  0  0
    2.3422    0.0670   -0.0287 C   0  0  1  0  0  0  0  0  0  0  0  0
    2.7207    0.1486   -1.0564 H   0  0  0  0  0  0  0  0  0  0  0  0
    2.9710    1.1502    0.8238 C   0  0  0  0  0  0  0  0  0  0  0  0
    4.2775    0.6648    1.1489 O   0  0  0  0  0  0  0  0  0  0  0  0
    4.1426   -0.7526    1.3545 C   0  0  1  0  0  0  0  0  0  0  0  0
    4.0418   -0.9057    2.4368 H   0  0  0  0  0  0  0  0  0  0  0  0
    2.8802   -1.2126    0.6024 C   0  0  1  0  0  0  0  0  0  0  0  0
    3.0891   -1.9517   -0.1795 H   0  0  0  0  0  0  0  0  0  0  0  0
    1.9776   -1.8361    1.5217 O   0  0  0  0  0  0  0  0  0  0  0  0
    5.3696   -1.4667    0.8886 C   0  0  0  0  0  0  0  0  0  0  0  0
    5.4727   -2.8054    0.9670 C   0  0  0  0  0  0  0  0  0  0  0  0
    6.6543   -3.5394    0.4484 C   0  0  0  0  0  0  0  0  0  0  0  0
    6.4641   -4.9503    0.6142 N   0  0  0  0  0  0  0  0  0  0  0  0
    7.4706   -5.8022    0.2349 C   0  0  0  0  0  0  0  0  0  0  0  0
    8.4981   -5.4261   -0.3134 O   0  0  0  0  0  0  0  0  0  0  0  0
    7.2614   -7.2477    0.4869 C   0  0  0  0  0  0  0  0  0  0  0  0
    7.9758   -8.1291   -0.3377 C   0  0  0  0  0  0  0  0  0  0  0  0
    7.8623   -9.5086   -0.1445 C   0  0  0  0  0  0  0  0  0  0  0  0
    7.0491  -10.0261    0.8732 C   0  0  0  0  0  0  0  0  0  0  0  0
    6.3419   -9.1406    1.6823 C   0  0  0  0  0  0  0  0  0  0  0  0
    6.4335   -7.7582    1.4911 C   0  0  0  0  0  0  0  0  0  0  0  0
    5.7075   -6.9282    2.3065 O   0  0  0  0  0  0  0  0  0  0  0  0
    5.5379   -9.5934    2.6930 O   0  0  0  0  0  0  0  0  0  0  0  0
    8.6065  -10.4207   -1.0204 N   0  3  0  0  0  0  0  0  0  0  0  0
    9.3044   -9.9259   -1.9142 O   0  0  0  0  0  0  0  0  0  0  0  0
    8.4838  -11.6365   -0.8126 O   0  5  0  0  0  0  0  0  0  0  0  0
    0.6582    0.9163   -0.5276 H   0  0  0  0  0  0  0  0  0  0  0  0
    2.3995    1.3201    1.7443 H   0  0  0  0  0  0  0  0  0  0  0  0
    3.0450    2.1059    0.2963 H   0  0  0  0  0  0  0  0  0  0  0  0
    1.6051   -1.1317    2.0790 H   0  0  0  0  0  0  0  0  0  0  0  0
    6.1760   -0.8789    0.4582 H   0  0  0  0  0  0  0  0  0  0  0  0
    4.6516   -3.3740    1.4019 H   0  0  0  0  0  0  0  0  0  0  0  0
    7.5606   -3.2459    0.9866 H   0  0  0  0  0  0  0  0  0  0  0  0
    6.7862   -3.3479   -0.6219 H   0  0  0  0  0  0  0  0  0  0  0  0
    5.6895   -5.3264    1.1537 H   0  0  0  0  0  0  0  0  0  0  0  0
    8.6111   -7.7235   -1.1252 H   0  0  0  0  0  0  0  0  0  0  0  0
    6.9727  -11.0991    1.0258 H   0  0  0  0  0  0  0  0  0  0  0  0
    5.2545   -7.5076    2.9531 H   0  0  0  0  0  0  0  0  0  0  0  0
    5.5782  -10.5675    2.7168 H   0  0  0  0  0  0  0  0  0  0  0  0
  1  2  1  0  0  0  0
  1 28  1  0  0  0  0
  2  3  1  6  0  0  0
  2  4  1  0  0  0  0
  2  8  1  0  0  0  0
  4  5  1  0  0  0  0
  4 29  1  0  0  0  0
  4 30  1  0  0  0  0
  5  6  1  0  0  0  0
  6  7  1  1  0  0  0
  6  8  1  0  0  0  0
  6 11  1  0  0  0  0
  8 10  1  0  0  0  0
  8  9  1  6  0  0  0
 10 31  1  0  0  0  0
 11 12  2  0  0  0  0
 11 32  1  0  0  0  0
 12 13  1  0  0  0  0
 12 33  1  0  0  0  0
 13 14  1  0  0  0  0
 13 34  1  0  0  0  0
 13 35  1  0  0  0  0
 14 15  1  0  0  0  0
 14 36  1  0  0  0  0
 15 16  2  0  0  0  0
 15 17  1  0  0  0  0
 17 18  2  0  0  0  0
 17 22  1  0  0  0  0
 18 19  1  0  0  0  0
 18 37  1  0  0  0  0
 19 20  2  0  0  0  0
 19 25  1  0  0  0  0
 20 21  1  0  0  0  0
 20 38  1  0  0  0  0
 21 22  2  0  0  0  0
 21 24  1  0  0  0  0
 22 23  1  0  0  0  0
 23 39  1  0  0  0  0
 24 40  1  0  0  0  0
 25 26  2  0  0  0  0
 25 27  1  0  0  0  0
M  CHG  2  25   1  27  -1
M  END
$$$$
