P1R
 OpenBabel04121316173D

 10 10  0  0  0  0  0  0  0  0999 V2000
   -1.3284   -0.0877    0.0052 C   0  0  0  0  0  0  0  0  0  0  0  0
   -0.7527    1.1626    0.0347 C   0  0  0  0  0  0  0  0  0  0  0  0
    0.6237    1.1818    0.0088 C   0  0  0  0  0  0  0  0  0  0  0  0
    1.3832    0.0727    0.0291 N   0  0  0  0  0  0  0  0  0  0  0  0
    0.7124   -1.0903    0.0649 C   0  0  0  0  0  0  0  0  0  0  0  0
   -0.6227   -1.2318    0.0253 N   0  0  0  0  0  0  0  0  0  0  0  0
   -2.4074   -0.2070   -0.0344 H   0  0  0  0  0  0  0  0  0  0  0  0
   -1.3408    2.0668    0.0699 H   0  0  0  0  0  0  0  0  0  0  0  0
    1.1704    2.1197   -0.0277 H   0  0  0  0  0  0  0  0  0  0  0  0
    1.3009   -1.9955    0.1519 H   0  0  0  0  0  0  0  0  0  0  0  0
  1  2  2  0  0  0  0
  1  6  1  0  0  0  0
  1  7  1  0  0  0  0
  2  3  1  0  0  0  0
  2  8  1  0  0  0  0
  3  4  2  0  0  0  0
  3  9  1  0  0  0  0
  4  5  1  0  0  0  0
  5  6  2  0  0  0  0
  5 10  1  0  0  0  0
M  END
$$$$
