P1T
 OpenBabel04121316173D

 36 36  0  0  0  0  0  0  0  0999 V2000
    0.8553   -0.1578   -0.2938 O   0  0  0  0  0  0  0  0  0  0  0  0
    1.9756   -0.4268    0.4151 C   0  0  0  0  0  0  0  0  0  0  0  0
    2.3340    0.3161    1.3319 O   0  0  0  0  0  0  0  0  0  0  0  0
    2.7868   -1.5238   -0.2638 C   0  0  0  0  0  0  0  0  0  0  0  0
    2.1398   -2.2043   -1.2235 C   0  0  0  0  0  0  0  0  0  0  0  0
    4.1701   -1.6935   -0.0243 N   0  0  0  0  0  0  0  0  0  0  0  0
    5.0530   -2.3290   -1.0530 C   0  0  0  0  0  0  0  0  0  0  0  0
    6.5329   -1.9858   -0.9552 C   0  0  0  0  0  0  0  0  0  0  0  0
    7.0399   -0.6774   -0.9787 C   0  0  0  0  0  0  0  0  0  0  0  0
    8.4182   -0.4548   -0.9064 C   0  0  0  0  0  0  0  0  0  0  0  0
    9.3241   -1.4391   -0.8483 N   0  0  0  0  0  0  0  0  0  0  0  0
    8.8392   -2.7016   -0.8922 C   0  0  0  0  0  0  0  0  0  0  0  0
    7.4742   -3.0060   -0.9788 C   0  0  0  0  0  0  0  0  0  0  0  0
    7.0040   -4.2813   -1.1190 O   0  0  0  0  0  0  0  0  0  0  0  0
    9.8573   -3.7889   -0.8102 C   0  0  0  0  0  0  0  0  0  0  0  0
    6.1880    0.5180   -1.1652 C   0  0  0  0  0  0  0  0  0  0  0  0
    4.8246    0.1435   -1.3033 O   0  0  0  0  0  0  0  0  0  0  0  0
    3.7440    1.4905   -1.4066 P   0  0  0  0  0  0  0  0  0  0  0  0
    4.0451    1.8948    0.0303 O   0  0  0  0  0  0  0  0  0  0  0  0
    4.8079    2.3691   -2.2778 O   0  0  0  0  0  0  0  0  0  0  0  0
    2.6635    2.8376   -1.5100 O   0  0  0  0  0  0  0  0  0  0  0  0
    0.5124    0.7264   -0.0679 H   0  0  0  0  0  0  0  0  0  0  0  0
    1.0917   -2.0506   -1.4426 H   0  0  0  0  0  0  0  0  0  0  0  0
    2.6562   -2.9273   -1.8347 H   0  0  0  0  0  0  0  0  0  0  0  0
    4.5596   -0.7781    0.2402 H   0  0  0  0  0  0  0  0  0  0  0  0
    4.7497   -2.0693   -2.0824 H   0  0  0  0  0  0  0  0  0  0  0  0
    4.8899   -3.4009   -0.9505 H   0  0  0  0  0  0  0  0  0  0  0  0
    8.8352    0.5532   -0.9098 H   0  0  0  0  0  0  0  0  0  0  0  0
    7.7249   -4.9192   -1.0233 H   0  0  0  0  0  0  0  0  0  0  0  0
   10.8645   -3.3779   -0.7036 H   0  0  0  0  0  0  0  0  0  0  0  0
    9.8193   -4.3997   -1.7157 H   0  0  0  0  0  0  0  0  0  0  0  0
    9.6423   -4.4061    0.0669 H   0  0  0  0  0  0  0  0  0  0  0  0
    6.5306    0.9989   -2.0891 H   0  0  0  0  0  0  0  0  0  0  0  0
    6.3210    1.1928   -0.3135 H   0  0  0  0  0  0  0  0  0  0  0  0
    5.3411    2.8796   -1.6336 H   0  0  0  0  0  0  0  0  0  0  0  0
    1.8081    2.6151   -1.1113 H   0  0  0  0  0  0  0  0  0  0  0  0
  1  2  1  0  0  0  0
  1 22  1  0  0  0  0
  2  3  2  0  0  0  0
  2  4  1  0  0  0  0
  4  5  2  0  0  0  0
  4  6  1  0  0  0  0
  5 23  1  0  0  0  0
  5 24  1  0  0  0  0
  6  7  1  0  0  0  0
  6 25  1  0  0  0  0
  7  8  1  0  0  0  0
  7 26  1  0  0  0  0
  7 27  1  0  0  0  0
  8  9  2  0  0  0  0
  8 13  1  0  0  0  0
  9 10  1  0  0  0  0
  9 16  1  0  0  0  0
 10 11  2  0  0  0  0
 10 28  1  0  0  0  0
 11 12  1  0  0  0  0
 12 13  2  0  0  0  0
 12 15  1  0  0  0  0
 13 14  1  0  0  0  0
 14 29  1  0  0  0  0
 15 30  1  0  0  0  0
 15 31  1  0  0  0  0
 15 32  1  0  0  0  0
 16 17  1  0  0  0  0
 16 33  1  0  0  0  0
 16 34  1  0  0  0  0
 17 18  1  0  0  0  0
 18 19  2  0  0  0  0
 18 20  1  0  0  0  0
 18 21  1  0  0  0  0
 20 35  1  0  0  0  0
 21 36  1  0  0  0  0
M  END
$$$$
