P1Y
 OpenBabel04121316173D

 32 33  0  0  0  0  0  0  0  0999 V2000
    0.9254    0.0675    0.0842 C   0  0  0  0  0  0  0  0  0  0  0  0
    2.3414    0.0354    0.2192 O   0  0  0  0  0  0  0  0  0  0  0  0
    2.9139    1.1495   -0.3223 C   0  0  0  0  0  0  0  0  0  0  0  0
    2.5719    2.4399    0.0928 C   0  0  0  0  0  0  0  0  0  0  0  0
    3.0553    3.5628   -0.5907 C   0  0  0  0  0  0  0  0  0  0  0  0
    4.0325    3.4084   -1.5745 C   0  0  0  0  0  0  0  0  0  0  0  0
    4.5550    2.1156   -1.7387 C   0  0  0  0  0  0  0  0  0  0  0  0
    3.9228    0.9867   -1.2448 C   0  0  0  0  0  0  0  0  0  0  0  0
    4.4288   -0.7132   -1.9090 Br  0  0  0  0  0  0  0  0  0  0  0  0
    4.4752    4.5963   -2.4314 C   0  0  0  0  0  0  0  0  0  0  0  0
    5.4357    4.2965   -3.5922 C   0  0  0  0  0  0  0  0  0  0  0  0
    6.1891    5.2997   -4.0821 N   0  0  0  0  0  0  0  0  0  0  0  0
    7.0744    4.9228   -5.0194 C   0  0  0  0  0  0  0  0  0  0  0  0
    7.8097    5.9273   -5.5901 O   0  0  0  0  0  0  0  0  0  0  0  0
    7.3089    3.6395   -5.4586 C   0  0  0  0  0  0  0  0  0  0  0  0
    6.4956    2.6875   -4.9149 C   0  0  0  0  0  0  0  0  0  0  0  0
    5.5045    3.0180   -4.0550 N   0  0  0  0  0  0  0  0  0  0  0  0
    6.7092    1.2298   -5.2206 C   0  0  0  0  0  0  0  0  0  0  0  0
    7.5433    0.8121   -6.0181 O   0  0  0  0  0  0  0  0  0  0  0  0
    5.9402    0.3564   -4.5362 O   0  0  0  0  0  0  0  0  0  0  0  0
    8.2680    3.3757   -6.3798 O   0  0  0  0  0  0  0  0  0  0  0  0
    0.5387   -0.8788    0.4671 H   0  0  0  0  0  0  0  0  0  0  0  0
    0.6241    0.1669   -0.9659 H   0  0  0  0  0  0  0  0  0  0  0  0
    0.4965    0.8745    0.6834 H   0  0  0  0  0  0  0  0  0  0  0  0
    1.9157    2.5744    0.9457 H   0  0  0  0  0  0  0  0  0  0  0  0
    2.6719    4.5468   -0.3295 H   0  0  0  0  0  0  0  0  0  0  0  0
    5.4785    1.9495   -2.2694 H   0  0  0  0  0  0  0  0  0  0  0  0
    4.9140    5.3551   -1.7690 H   0  0  0  0  0  0  0  0  0  0  0  0
    3.5767    5.0476   -2.8793 H   0  0  0  0  0  0  0  0  0  0  0  0
    7.4525    6.7249   -5.1630 H   0  0  0  0  0  0  0  0  0  0  0  0
    5.2998    0.7449   -3.9117 H   0  0  0  0  0  0  0  0  0  0  0  0
    8.6396    4.2308   -6.6608 H   0  0  0  0  0  0  0  0  0  0  0  0
  1  2  1  0  0  0  0
  1 22  1  0  0  0  0
  1 23  1  0  0  0  0
  1 24  1  0  0  0  0
  2  3  1  0  0  0  0
  3  4  2  0  0  0  0
  3  8  1  0  0  0  0
  4  5  1  0  0  0  0
  4 25  1  0  0  0  0
  5  6  2  0  0  0  0
  5 26  1  0  0  0  0
  6  7  1  0  0  0  0
  6 10  1  0  0  0  0
  7  8  2  0  0  0  0
  7 27  1  0  0  0  0
  8  9  1  0  0  0  0
 10 11  1  0  0  0  0
 10 28  1  0  0  0  0
 10 29  1  0  0  0  0
 11 12  2  0  0  0  0
 11 17  1  0  0  0  0
 12 13  1  0  0  0  0
 13 14  1  0  0  0  0
 13 15  2  0  0  0  0
 14 30  1  0  0  0  0
 15 16  1  0  0  0  0
 15 21  1  0  0  0  0
 16 17  2  0  0  0  0
 16 18  1  0  0  0  0
 18 19  2  0  0  0  0
 18 20  1  0  0  0  0
 20 31  1  0  0  0  0
 21 32  1  0  0  0  0
M  END
$$$$
