P27
 OpenBabel04121316173D

 69 73  0  0  0  0  0  0  0  0999 V2000
    0.8948   -0.1229    0.2562 F   0  0  0  0  0  0  0  0  0  0  0  0
    2.2130   -0.1072    0.0369 C   0  0  0  0  0  0  0  0  0  0  0  0
    2.8272    1.0944   -0.2281 C   0  0  0  0  0  0  0  0  0  0  0  0
    4.1414    1.0802   -0.6697 C   0  0  0  0  0  0  0  0  0  0  0  0
    4.9711   -0.0295   -0.4589 C   0  0  0  0  0  0  0  0  0  0  0  0
    4.3436   -1.2301   -0.0908 C   0  0  0  0  0  0  0  0  0  0  0  0
    2.9564   -1.2756    0.0341 C   0  0  0  0  0  0  0  0  0  0  0  0
    2.3500   -2.4627    0.1492 F   0  0  0  0  0  0  0  0  0  0  0  0
    6.4993    0.1556   -0.6245 C   0  0  0  0  0  0  0  0  0  0  0  0
    6.7157    0.7244   -2.0052 N   0  0  0  0  0  0  0  0  0  0  0  0
    6.7390   -0.0664   -3.1226 N   0  0  0  0  0  0  0  0  0  0  0  0
    6.8435    0.7111   -4.2048 N   0  0  0  0  0  0  0  0  0  0  0  0
    6.8812    2.0159   -3.7947 C   0  0  0  0  0  0  0  0  0  0  0  0
    6.8856    2.0006   -2.4342 C   0  0  0  0  0  0  0  0  0  0  0  0
    6.9803    3.1947   -1.7444 C   0  0  0  0  0  0  0  0  0  0  0  0
    7.1681    4.3819   -2.3822 C   0  0  0  0  0  0  0  0  0  0  0  0
    6.9383    4.4481   -3.7274 C   0  0  0  0  0  0  0  0  0  0  0  0
    6.8385    3.2604   -4.4726 C   0  0  0  0  0  0  0  0  0  0  0  0
    7.1217    0.9666    0.7608 C   0  0  0  0  0  0  0  0  0  0  0  0
    6.7140    2.3946    1.2108 C   0  0  0  0  0  0  0  0  0  0  0  0
    5.3655    2.7114    1.3063 C   0  0  0  0  0  0  0  0  0  0  0  0
    4.8858    3.9707    0.8721 C   0  0  0  0  0  0  0  0  0  0  0  0
    5.7366    5.0707    0.7118 C   0  0  0  0  0  0  0  0  0  0  0  0
    7.1009    4.8301    1.0318 C   0  0  0  0  0  0  0  0  0  0  0  0
    7.6032    3.4950    1.2203 C   0  0  0  0  0  0  0  0  0  0  0  0
    5.1922    6.4044    0.1096 C   0  0  0  0  0  0  0  0  0  0  0  0
    5.0001    6.5515   -1.7301 P   0  0  0  0  0  0  0  0  0  0  0  0
    6.2532    6.9972   -2.4272 O   0  0  0  0  0  0  0  0  0  0  0  0
    4.4443    5.0868   -2.1368 O   0  0  0  0  0  0  0  0  0  0  0  0
    3.8645    7.3127   -2.5770 O   0  0  0  0  0  0  0  0  0  0  0  0
    3.9729    6.7673    0.5782 F   0  0  0  0  0  0  0  0  0  0  0  0
    6.0434    7.4403    0.3415 F   0  0  0  0  0  0  0  0  0  0  0  0
    7.1772   -1.2652   -0.5961 C   0  0  0  0  0  0  0  0  0  0  0  0
    8.6437   -1.2874   -0.9131 C   0  0  0  0  0  0  0  0  0  0  0  0
    9.3520   -0.1026   -1.1061 C   0  0  0  0  0  0  0  0  0  0  0  0
   10.6364   -0.1073   -1.5395 C   0  0  0  0  0  0  0  0  0  0  0  0
   11.2359   -1.3126   -1.8505 C   0  0  0  0  0  0  0  0  0  0  0  0
   10.6122   -2.5214   -1.5299 C   0  0  0  0  0  0  0  0  0  0  0  0
    9.2939   -2.5103   -1.0896 C   0  0  0  0  0  0  0  0  0  0  0  0
   12.5196   -1.1956   -2.5705 C   0  0  0  0  0  0  0  0  0  0  0  0
   12.6165   -0.0082   -3.9588 P   0  0  0  0  0  0  0  0  0  0  0  0
   12.1472    1.3944   -3.7059 O   0  0  0  0  0  0  0  0  0  0  0  0
   14.1859   -0.0380   -4.3323 O   0  0  0  0  0  0  0  0  0  0  0  0
   11.9344   -0.5594   -5.3076 O   0  0  0  0  0  0  0  0  0  0  0  0
   13.4972   -0.6553   -1.7832 F   0  0  0  0  0  0  0  0  0  0  0  0
   13.0433   -2.3459   -3.0673 F   0  0  0  0  0  0  0  0  0  0  0  0
    2.3044    2.0345   -0.0907 H   0  0  0  0  0  0  0  0  0  0  0  0
    4.5500    2.0086   -1.0495 H   0  0  0  0  0  0  0  0  0  0  0  0
    4.8801   -2.1606    0.0702 H   0  0  0  0  0  0  0  0  0  0  0  0
    6.7305    3.1933   -0.7510 H   0  0  0  0  0  0  0  0  0  0  0  0
    7.2714    5.2573   -1.7455 H   0  0  0  0  0  0  0  0  0  0  0  0
    6.7689    5.4223   -4.1848 H   0  0  0  0  0  0  0  0  0  0  0  0
    6.7125    3.3373   -5.5400 H   0  0  0  0  0  0  0  0  0  0  0  0
    8.2130    0.9916    0.7221 H   0  0  0  0  0  0  0  0  0  0  0  0
    6.9257    0.3058    1.6176 H   0  0  0  0  0  0  0  0  0  0  0  0
    4.6652    1.9048    1.4851 H   0  0  0  0  0  0  0  0  0  0  0  0
    3.8515    4.0296    0.5281 H   0  0  0  0  0  0  0  0  0  0  0  0
    7.8281    5.6407    0.9665 H   0  0  0  0  0  0  0  0  0  0  0  0
    8.6824    3.3319    1.1326 H   0  0  0  0  0  0  0  0  0  0  0  0
    4.9639    4.3320   -1.8152 H   0  0  0  0  0  0  0  0  0  0  0  0
    4.2085    7.2668   -3.5115 H   0  0  0  0  0  0  0  0  0  0  0  0
    6.6825   -1.9254   -1.3270 H   0  0  0  0  0  0  0  0  0  0  0  0
    7.0467   -1.7355    0.3880 H   0  0  0  0  0  0  0  0  0  0  0  0
    8.9428    0.8938   -1.0325 H   0  0  0  0  0  0  0  0  0  0  0  0
   11.1042    0.8592   -1.7083 H   0  0  0  0  0  0  0  0  0  0  0  0
   11.1272   -3.4686   -1.6650 H   0  0  0  0  0  0  0  0  0  0  0  0
    8.7586   -3.4490   -0.9548 H   0  0  0  0  0  0  0  0  0  0  0  0
   14.6746   -0.5653   -3.6629 H   0  0  0  0  0  0  0  0  0  0  0  0
   11.7080    0.2192   -5.8651 H   0  0  0  0  0  0  0  0  0  0  0  0
  1  2  1  0  0  0  0
  2  3  2  0  0  0  0
  2  7  1  0  0  0  0
  3  4  1  0  0  0  0
  3 47  1  0  0  0  0
  4  5  2  0  0  0  0
  4 48  1  0  0  0  0
  5  6  1  0  0  0  0
  5  9  1  0  0  0  0
  6  7  2  0  0  0  0
  6 49  1  0  0  0  0
  7  8  1  0  0  0  0
  9 10  1  0  0  0  0
  9 19  1  0  0  0  0
  9 33  1  0  0  0  0
 10 11  1  0  0  0  0
 10 14  1  0  0  0  0
 11 12  2  0  0  0  0
 12 13  1  0  0  0  0
 13 14  2  0  0  0  0
 13 18  1  0  0  0  0
 14 15  1  0  0  0  0
 15 16  2  0  0  0  0
 15 50  1  0  0  0  0
 16 17  1  0  0  0  0
 16 51  1  0  0  0  0
 17 18  2  0  0  0  0
 17 52  1  0  0  0  0
 18 53  1  0  0  0  0
 19 20  1  0  0  0  0
 19 54  1  0  0  0  0
 19 55  1  0  0  0  0
 20 21  2  0  0  0  0
 20 25  1  0  0  0  0
 21 22  1  0  0  0  0
 21 56  1  0  0  0  0
 22 23  2  0  0  0  0
 22 57  1  0  0  0  0
 23 24  1  0  0  0  0
 23 26  1  0  0  0  0
 24 25  2  0  0  0  0
 24 58  1  0  0  0  0
 25 59  1  0  0  0  0
 26 27  1  0  0  0  0
 26 31  1  0  0  0  0
 26 32  1  0  0  0  0
 27 28  2  0  0  0  0
 27 29  1  0  0  0  0
 27 30  1  0  0  0  0
 29 60  1  0  0  0  0
 30 61  1  0  0  0  0
 33 34  1  0  0  0  0
 33 62  1  0  0  0  0
 33 63  1  0  0  0  0
 34 35  2  0  0  0  0
 34 39  1  0  0  0  0
 35 36  1  0  0  0  0
 35 64  1  0  0  0  0
 36 37  2  0  0  0  0
 36 65  1  0  0  0  0
 37 38  1  0  0  0  0
 37 40  1  0  0  0  0
 38 39  2  0  0  0  0
 38 66  1  0  0  0  0
 39 67  1  0  0  0  0
 40 41  1  0  0  0  0
 40 45  1  0  0  0  0
 40 46  1  0  0  0  0
 41 42  2  0  0  0  0
 41 43  1  0  0  0  0
 41 44  1  0  0  0  0
 43 68  1  0  0  0  0
 44 69  1  0  0  0  0
M  END
$$$$
