P2G
 OpenBabel04121316173D

 39 42  0  0  1  0  0  0  0  0999 V2000
    1.5500   -0.9888   -2.0182 O   0  0  0  0  0  0  0  0  0  0  0  0
    1.7149    0.4230   -1.9567 C   0  0  0  0  0  0  0  0  0  0  0  0
    3.0647    0.8103   -1.3233 C   0  0  1  0  0  0  0  0  0  0  0  0
    3.1059    0.4017   -0.3071 H   0  0  0  0  0  0  0  0  0  0  0  0
    4.1629    0.2346   -2.0714 O   0  0  0  0  0  0  0  0  0  0  0  0
    4.7964    1.2649   -2.8508 C   0  0  2  0  0  0  0  0  0  0  0  0
    5.8443    1.3255   -2.5266 H   0  0  0  0  0  0  0  0  0  0  0  0
    3.9753    2.5592   -2.6622 C   0  0  1  0  0  0  0  0  0  0  0  0
    3.2841    2.6719   -3.5028 H   0  0  0  0  0  0  0  0  0  0  0  0
    3.2394    2.3266   -1.3796 C   0  0  2  0  0  0  0  0  0  0  0  0
    2.2916    2.8683   -1.3297 H   0  0  0  0  0  0  0  0  0  0  0  0
    4.1018    2.8815   -0.3816 O   0  0  0  0  0  0  0  0  0  0  0  0
    4.8224    3.9453   -1.0428 C   0  0  1  0  0  0  0  0  0  0  0  0
    5.8810    3.8230   -0.8092 H   0  0  0  0  0  0  0  0  0  0  0  0
    4.6774    3.7995   -2.4702 O   0  0  0  0  0  0  0  0  0  0  0  0
    4.4607    5.5823   -0.3061 P   0  0  0  0  0  0  0  0  0  0  0  0
    4.6707    5.6871    1.1730 O   0  0  0  0  0  0  0  0  0  0  0  0
    5.3501    6.7003   -1.0515 O   0  0  0  0  0  0  0  0  0  0  0  0
    3.0210    6.1842   -0.6913 O   0  0  0  0  0  0  0  0  0  0  0  0
    4.8543    0.9161   -4.2754 N   0  0  0  0  0  0  0  0  0  0  0  0
    5.5801    1.6834   -5.1672 C   0  0  0  0  0  0  0  0  0  0  0  0
    5.3891    1.3242   -6.4160 N   0  0  0  0  0  0  0  0  0  0  0  0
    4.5198    0.2711   -6.3310 C   0  0  0  0  0  0  0  0  0  0  0  0
    4.1620    0.0004   -5.0243 C   0  0  0  0  0  0  0  0  0  0  0  0
    3.2944   -0.9488   -4.5997 N   0  0  0  0  0  0  0  0  0  0  0  0
    2.7853   -1.6801   -5.5545 C   0  0  0  0  0  0  0  0  0  0  0  0
    1.8876   -2.6510   -5.2658 N   0  0  0  0  0  0  0  0  0  0  0  0
    3.0924   -1.5127   -6.8902 N   0  0  0  0  0  0  0  0  0  0  0  0
    2.6711   -2.0993   -7.5887 H   0  0  0  0  0  0  0  0  0  0  0  0
    3.9418   -0.5374   -7.3773 C   0  0  0  0  0  0  0  0  0  0  0  0
    4.1470   -0.3996   -8.5879 O   0  0  0  0  0  0  0  0  0  0  0  0
    0.7698   -1.1551   -2.5723 H   0  0  0  0  0  0  0  0  0  0  0  0
    0.8982    0.8112   -1.3390 H   0  0  0  0  0  0  0  0  0  0  0  0
    1.6113    0.8427   -2.9640 H   0  0  0  0  0  0  0  0  0  0  0  0
    5.3133    7.5610   -0.5884 H   0  0  0  0  0  0  0  0  0  0  0  0
    2.8791    7.0088   -0.1778 H   0  0  0  0  0  0  0  0  0  0  0  0
    6.2003    2.5084   -4.8397 H   0  0  0  0  0  0  0  0  0  0  0  0
    1.7725   -2.8808   -4.2843 H   0  0  0  0  0  0  0  0  0  0  0  0
    1.5635   -3.3226   -5.9454 H   0  0  0  0  0  0  0  0  0  0  0  0
  1  2  1  0  0  0  0
  1 32  1  0  0  0  0
  2 33  1  0  0  0  0
  2 34  1  0  0  0  0
  3  5  1  0  0  0  0
  3 10  1  0  0  0  0
  3  4  1  1  0  0  0
  3  2  1  0  0  0  0
  5  6  1  0  0  0  0
  6  8  1  0  0  0  0
  6  7  1  1  0  0  0
  6 20  1  0  0  0  0
  8 10  1  0  0  0  0
  8 15  1  0  0  0  0
  8  9  1  6  0  0  0
 10 12  1  0  0  0  0
 10 11  1  6  0  0  0
 12 13  1  0  0  0  0
 13 15  1  0  0  0  0
 13 14  1  1  0  0  0
 13 16  1  0  0  0  0
 16 17  2  0  0  0  0
 16 18  1  0  0  0  0
 16 19  1  0  0  0  0
 18 35  1  0  0  0  0
 19 36  1  0  0  0  0
 20 21  1  0  0  0  0
 20 24  1  0  0  0  0
 21 22  2  0  0  0  0
 21 37  1  0  0  0  0
 22 23  1  0  0  0  0
 23 24  2  0  0  0  0
 23 30  1  0  0  0  0
 24 25  1  0  0  0  0
 25 26  2  0  0  0  0
 26 27  1  0  0  0  0
 26 28  1  0  0  0  0
 27 38  1  0  0  0  0
 27 39  1  0  0  0  0
 28 29  1  0  0  0  0
 28 30  1  0  0  0  0
 30 31  2  0  0  0  0
M  END
$$$$
