P34
 OpenBabel04121316173D

 39 41  0  0  0  0  0  0  0  0999 V2000
    1.0650    0.0192   -0.0981 C   0  0  0  0  0  0  0  0  0  0  0  0
    2.5333    0.0021   -0.0499 N   0  0  0  0  0  0  0  0  0  0  0  0
    3.0368   -0.9126    0.9981 C   0  0  0  0  0  0  0  0  0  0  0  0
    2.5923   -0.4247    2.3794 C   0  0  0  0  0  0  0  0  0  0  0  0
    1.9412    0.6093    2.5363 O   0  0  0  0  0  0  0  0  0  0  0  0
    2.9320   -1.2531    3.4373 N   0  0  0  0  0  0  0  0  0  0  0  0
    2.5305   -0.9038    4.7409 C   0  0  0  0  0  0  0  0  0  0  0  0
    2.5478    0.4312    5.1538 C   0  0  0  0  0  0  0  0  0  0  0  0
    2.1297    0.7923    6.4221 C   0  0  0  0  0  0  0  0  0  0  0  0
    1.6887   -0.1968    7.2894 C   0  0  0  0  0  0  0  0  0  0  0  0
    1.6449   -1.5518    6.9038 C   0  0  0  0  0  0  0  0  0  0  0  0
    2.0883   -1.8914    5.6124 C   0  0  0  0  0  0  0  0  0  0  0  0
    1.1463   -2.5436    7.8679 C   0  0  0  0  0  0  0  0  0  0  0  0
    1.0376   -3.9129    7.5678 C   0  0  0  0  0  0  0  0  0  0  0  0
    0.5844   -4.8290    8.5158 C   0  0  0  0  0  0  0  0  0  0  0  0
    0.2210   -4.3952    9.7853 C   0  0  0  0  0  0  0  0  0  0  0  0
    0.3087   -3.0441   10.1088 C   0  0  0  0  0  0  0  0  0  0  0  0
    0.7664   -2.1253    9.1573 C   0  0  0  0  0  0  0  0  0  0  0  0
    0.8516   -0.6903    9.5291 C   0  0  0  0  0  0  0  0  0  0  0  0
    0.5366   -0.2947   10.6527 O   0  0  0  0  0  0  0  0  0  0  0  0
    1.2953    0.1842    8.5749 N   0  0  0  0  0  0  0  0  0  0  0  0
    1.3426    1.1564    8.8524 H   0  0  0  0  0  0  0  0  0  0  0  0
    3.0615   -0.3590   -1.3575 C   0  0  0  0  0  0  0  0  0  0  0  0
    0.5933    0.3419    0.8336 H   0  0  0  0  0  0  0  0  0  0  0  0
    0.6624   -0.9703   -0.3332 H   0  0  0  0  0  0  0  0  0  0  0  0
    0.7194    0.7413   -0.8439 H   0  0  0  0  0  0  0  0  0  0  0  0
    4.1347   -0.9146    1.0043 H   0  0  0  0  0  0  0  0  0  0  0  0
    2.6876   -1.9385    0.8301 H   0  0  0  0  0  0  0  0  0  0  0  0
    3.2522   -2.1966    3.2586 H   0  0  0  0  0  0  0  0  0  0  0  0
    2.8963    1.2155    4.4867 H   0  0  0  0  0  0  0  0  0  0  0  0
    2.1601    1.8393    6.7046 H   0  0  0  0  0  0  0  0  0  0  0  0
    2.0321   -2.9119    5.2510 H   0  0  0  0  0  0  0  0  0  0  0  0
    1.3042   -4.3042    6.5912 H   0  0  0  0  0  0  0  0  0  0  0  0
    0.5202   -5.8818    8.2542 H   0  0  0  0  0  0  0  0  0  0  0  0
   -0.1318   -5.1093   10.5231 H   0  0  0  0  0  0  0  0  0  0  0  0
    0.0239   -2.7039   11.1018 H   0  0  0  0  0  0  0  0  0  0  0  0
    2.7275    0.3639   -2.1099 H   0  0  0  0  0  0  0  0  0  0  0  0
    2.7303   -1.3572   -1.6611 H   0  0  0  0  0  0  0  0  0  0  0  0
    4.1559   -0.3351   -1.3584 H   0  0  0  0  0  0  0  0  0  0  0  0
  1  2  1  0  0  0  0
  1 24  1  0  0  0  0
  1 25  1  0  0  0  0
  1 26  1  0  0  0  0
  2  3  1  0  0  0  0
  2 23  1  0  0  0  0
  3  4  1  0  0  0  0
  3 27  1  0  0  0  0
  3 28  1  0  0  0  0
  4  5  2  0  0  0  0
  4  6  1  0  0  0  0
  6  7  1  0  0  0  0
  6 29  1  0  0  0  0
  7  8  2  0  0  0  0
  7 12  1  0  0  0  0
  8  9  1  0  0  0  0
  8 30  1  0  0  0  0
  9 10  2  0  0  0  0
  9 31  1  0  0  0  0
 10 11  1  0  0  0  0
 10 21  1  0  0  0  0
 11 12  2  0  0  0  0
 11 13  1  0  0  0  0
 12 32  1  0  0  0  0
 13 14  2  0  0  0  0
 13 18  1  0  0  0  0
 14 15  1  0  0  0  0
 14 33  1  0  0  0  0
 15 16  2  0  0  0  0
 15 34  1  0  0  0  0
 16 17  1  0  0  0  0
 16 35  1  0  0  0  0
 17 18  2  0  0  0  0
 17 36  1  0  0  0  0
 18 19  1  0  0  0  0
 19 20  2  0  0  0  0
 19 21  1  0  0  0  0
 21 22  1  0  0  0  0
 23 37  1  0  0  0  0
 23 38  1  0  0  0  0
 23 39  1  0  0  0  0
M  END
$$$$
