P39
 OpenBabel04121316173D

 79 84  0  0  1  0  0  0  0  0999 V2000
    0.2714   -1.4997   -0.8594 C   0  0  0  0  0  0  0  0  0  0  0  0
    0.9988   -2.0570   -2.0126 C   0  0  0  0  0  0  0  0  0  0  0  0
    1.3784   -1.1293   -2.9653 C   0  0  0  0  0  0  0  0  0  0  0  0
    1.8582   -1.5496   -4.1849 C   0  0  0  0  0  0  0  0  0  0  0  0
    2.1267   -2.8998   -4.3880 C   0  0  0  0  0  0  0  0  0  0  0  0
    1.8898   -3.8092   -3.3520 C   0  0  0  0  0  0  0  0  0  0  0  0
    1.1956   -3.4207   -2.1951 C   0  0  0  0  0  0  0  0  0  0  0  0
    0.7708   -4.4254   -1.3048 N   0  0  0  0  0  0  0  0  0  0  0  0
    0.0162   -4.3965   -0.1263 C   0  0  0  0  0  0  0  0  0  0  0  0
   -0.6487   -3.3896    0.2574 N   0  0  0  0  0  0  0  0  0  0  0  0
   -1.2029   -3.2450    1.4923 C   0  0  0  0  0  0  0  0  0  0  0  0
   -1.3736   -4.1829    2.3484 N   0  0  0  0  0  0  0  0  0  0  0  0
   -0.8645   -5.3441    1.9142 N   0  0  0  0  0  0  0  0  0  0  0  0
   -0.1317   -5.4810    0.7794 C   0  0  0  0  0  0  0  0  0  0  0  0
    0.3514   -6.7350    0.7164 C   0  0  0  0  0  0  0  0  0  0  0  0
    1.1979   -7.1117   -0.4070 C   0  0  0  0  0  0  0  0  0  0  0  0
   -0.2716   -7.5212    1.7862 C   0  0  0  0  0  0  0  0  0  0  0  0
   -0.9564   -6.5577    2.5334 C   0  0  0  0  0  0  0  0  0  0  0  0
   -0.2912   -8.9781    2.1706 C   0  0  0  0  0  0  0  0  0  0  0  0
   -0.8229   -9.3328    3.2239 O   0  0  0  0  0  0  0  0  0  0  0  0
    0.2676   -9.9970    1.3861 N   0  0  0  0  0  0  0  0  0  0  0  0
    1.0373   -9.8257    0.1884 C   0  0  2  0  0  0  0  0  0  0  0  0
    1.2019   -8.8357    0.4115 H   0  0  0  0  0  0  0  0  0  0  0  0
    0.3294  -10.1351   -1.1349 C   0  0  0  0  0  0  0  0  0  0  0  0
    0.2980  -11.4914   -1.4092 C   0  0  0  0  0  0  0  0  0  0  0  0
   -0.0411  -11.9525   -2.6750 C   0  0  0  0  0  0  0  0  0  0  0  0
   -0.5185  -11.0902   -3.6593 C   0  0  0  0  0  0  0  0  0  0  0  0
   -0.6675   -9.7528   -3.3788 C   0  0  0  0  0  0  0  0  0  0  0  0
   -0.1927   -9.2782   -2.1603 C   0  0  0  0  0  0  0  0  0  0  0  0
    2.5467  -10.1035    0.1588 C   0  0  0  0  0  0  0  0  0  0  0  0
    2.5976   -3.2812   -5.6579 N   0  0  0  0  0  0  0  0  0  0  0  0
    2.8988   -4.5773   -6.0375 C   0  0  0  0  0  0  0  0  0  0  0  0
    2.8056   -5.5684   -5.3172 O   0  0  0  0  0  0  0  0  0  0  0  0
    3.3405   -4.8108   -7.4338 C   0  0  0  0  0  0  0  0  0  0  0  0
    3.4526   -3.8039   -8.3904 C   0  0  0  0  0  0  0  0  0  0  0  0
    3.7952   -4.1462   -9.6936 C   0  0  0  0  0  0  0  0  0  0  0  0
    3.8855   -5.4903  -10.0666 C   0  0  0  0  0  0  0  0  0  0  0  0
    3.7770   -6.5137   -9.1281 C   0  0  0  0  0  0  0  0  0  0  0  0
    3.5949   -6.1467   -7.7961 C   0  0  0  0  0  0  0  0  0  0  0  0
    3.7839   -7.8361   -9.4841 N   0  0  0  0  0  0  0  0  0  0  0  0
    4.8828   -8.7263   -9.1170 C   0  0  0  0  0  0  0  0  0  0  0  0
    4.2804  -10.0547   -8.6375 C   0  0  0  0  0  0  0  0  0  0  0  0
    3.4161  -10.6357   -9.6354 O   0  0  0  0  0  0  0  0  0  0  0  0
    2.3382   -9.7348   -9.9613 C   0  0  0  0  0  0  0  0  0  0  0  0
    2.8656   -8.3836  -10.4854 C   0  0  0  0  0  0  0  0  0  0  0  0
    0.1872   -0.4247   -0.7828 H   0  0  0  0  0  0  0  0  0  0  0  0
    0.8093   -1.8304    0.0375 H   0  0  0  0  0  0  0  0  0  0  0  0
   -0.7642   -1.8264   -1.0218 H   0  0  0  0  0  0  0  0  0  0  0  0
    1.2215   -0.0811   -2.7400 H   0  0  0  0  0  0  0  0  0  0  0  0
    2.0084   -0.7953   -4.9460 H   0  0  0  0  0  0  0  0  0  0  0  0
    2.2050   -4.8435   -3.4475 H   0  0  0  0  0  0  0  0  0  0  0  0
    0.9254   -5.2984   -1.7591 H   0  0  0  0  0  0  0  0  0  0  0  0
   -1.4786   -2.2001    1.7069 H   0  0  0  0  0  0  0  0  0  0  0  0
    1.3288   -6.7599   -1.4135 H   0  0  0  0  0  0  0  0  0  0  0  0
    0.4675   -7.8179   -0.7078 H   0  0  0  0  0  0  0  0  0  0  0  0
    2.1871   -7.4373   -0.1037 H   0  0  0  0  0  0  0  0  0  0  0  0
   -1.5277   -6.6325    3.4497 H   0  0  0  0  0  0  0  0  0  0  0  0
    0.2006  -10.9187    1.7885 H   0  0  0  0  0  0  0  0  0  0  0  0
    0.6082  -12.1854   -0.6347 H   0  0  0  0  0  0  0  0  0  0  0  0
    0.0861  -13.0047   -2.8877 H   0  0  0  0  0  0  0  0  0  0  0  0
   -0.7759  -11.4600   -4.6433 H   0  0  0  0  0  0  0  0  0  0  0  0
   -1.1031   -9.0600   -4.0990 H   0  0  0  0  0  0  0  0  0  0  0  0
   -0.2653   -8.1934   -2.1670 H   0  0  0  0  0  0  0  0  0  0  0  0
    2.9854   -9.6493   -0.7476 H   0  0  0  0  0  0  0  0  0  0  0  0
    2.7808  -11.1616    0.1717 H   0  0  0  0  0  0  0  0  0  0  0  0
    3.0515   -9.6082    1.0018 H   0  0  0  0  0  0  0  0  0  0  0  0
    2.6403   -2.5331   -6.3341 H   0  0  0  0  0  0  0  0  0  0  0  0
    3.2788   -2.7589   -8.1666 H   0  0  0  0  0  0  0  0  0  0  0  0
    3.9678   -3.3665  -10.4290 H   0  0  0  0  0  0  0  0  0  0  0  0
    4.0653   -5.7414  -11.1068 H   0  0  0  0  0  0  0  0  0  0  0  0
    3.5702   -6.9240   -7.0324 H   0  0  0  0  0  0  0  0  0  0  0  0
    5.5315   -8.3007   -8.3446 H   0  0  0  0  0  0  0  0  0  0  0  0
    5.4932   -8.9046  -10.0118 H   0  0  0  0  0  0  0  0  0  0  0  0
    3.7061   -9.9057   -7.7153 H   0  0  0  0  0  0  0  0  0  0  0  0
    5.0800  -10.7716   -8.4300 H   0  0  0  0  0  0  0  0  0  0  0  0
    1.7174   -9.5920   -9.0678 H   0  0  0  0  0  0  0  0  0  0  0  0
    1.7186  -10.2191  -10.7227 H   0  0  0  0  0  0  0  0  0  0  0  0
    2.0205   -7.7143  -10.6830 H   0  0  0  0  0  0  0  0  0  0  0  0
    3.4111   -8.5409  -11.4231 H   0  0  0  0  0  0  0  0  0  0  0  0
  1  2  1  0  0  0  0
  1 46  1  0  0  0  0
  1 47  1  0  0  0  0
  1 48  1  0  0  0  0
  2  3  2  0  0  0  0
  2  7  1  0  0  0  0
  3  4  1  0  0  0  0
  3 49  1  0  0  0  0
  4  5  2  0  0  0  0
  4 50  1  0  0  0  0
  5  6  1  0  0  0  0
  5 31  1  0  0  0  0
  6  7  2  0  0  0  0
  6 51  1  0  0  0  0
  7  8  1  0  0  0  0
  8  9  1  0  0  0  0
  8 52  1  0  0  0  0
  9 10  2  0  0  0  0
  9 14  1  0  0  0  0
 10 11  1  0  0  0  0
 11 12  2  0  0  0  0
 11 53  1  0  0  0  0
 12 13  1  0  0  0  0
 13 14  1  0  0  0  0
 13 18  1  0  0  0  0
 14 15  2  0  0  0  0
 15 16  1  0  0  0  0
 15 17  1  0  0  0  0
 16 54  1  0  0  0  0
 16 55  1  0  0  0  0
 16 56  1  0  0  0  0
 17 18  2  0  0  0  0
 17 19  1  0  0  0  0
 18 57  1  0  0  0  0
 19 20  2  0  0  0  0
 19 21  1  0  0  0  0
 21 58  1  0  0  0  0
 22 24  1  0  0  0  0
 22 30  1  0  0  0  0
 22 23  1  6  0  0  0
 22 21  1  0  0  0  0
 24 25  2  0  0  0  0
 24 29  1  0  0  0  0
 25 26  1  0  0  0  0
 25 59  1  0  0  0  0
 26 27  2  0  0  0  0
 26 60  1  0  0  0  0
 27 28  1  0  0  0  0
 27 61  1  0  0  0  0
 28 29  2  0  0  0  0
 28 62  1  0  0  0  0
 29 63  1  0  0  0  0
 30 64  1  0  0  0  0
 30 65  1  0  0  0  0
 30 66  1  0  0  0  0
 31 32  1  0  0  0  0
 31 67  1  0  0  0  0
 32 33  2  0  0  0  0
 32 34  1  0  0  0  0
 34 35  2  0  0  0  0
 34 39  1  0  0  0  0
 35 36  1  0  0  0  0
 35 68  1  0  0  0  0
 36 37  2  0  0  0  0
 36 69  1  0  0  0  0
 37 38  1  0  0  0  0
 37 70  1  0  0  0  0
 38 39  2  0  0  0  0
 38 40  1  0  0  0  0
 39 71  1  0  0  0  0
 40 41  1  0  0  0  0
 40 45  1  0  0  0  0
 41 42  1  0  0  0  0
 41 72  1  0  0  0  0
 41 73  1  0  0  0  0
 42 43  1  0  0  0  0
 42 74  1  0  0  0  0
 42 75  1  0  0  0  0
 43 44  1  0  0  0  0
 44 45  1  0  0  0  0
 44 76  1  0  0  0  0
 44 77  1  0  0  0  0
 45 78  1  0  0  0  0
 45 79  1  0  0  0  0
M  END
$$$$
