P3T
 OpenBabel04121316173D

 43 43  0  0  0  0  0  0  0  0999 V2000
    1.0338   -0.0354   -0.0213 N   0  0  0  0  0  0  0  0  0  0  0  0
    2.4855   -0.0245   -0.0267 C   0  0  0  0  0  0  0  0  0  0  0  0
    3.0005   -1.0626    0.9495 C   0  0  0  0  0  0  0  0  0  0  0  0
    4.5146   -1.0492    0.9206 C   0  0  0  0  0  0  0  0  0  0  0  0
    5.0373   -2.0992    1.8588 C   0  0  0  0  0  0  0  0  0  0  0  0
    6.4893   -2.0666    1.7306 N   0  0  0  0  0  0  0  0  0  0  0  0
    7.0071   -3.1286    2.5805 C   0  0  0  0  0  0  0  0  0  0  0  0
    8.5051   -3.0997    2.7498 C   0  0  0  0  0  0  0  0  0  0  0  0
    9.1703   -3.1042    3.9905 C   0  0  0  0  0  0  0  0  0  0  0  0
   10.5661   -3.1342    4.0033 C   0  0  0  0  0  0  0  0  0  0  0  0
   11.3325   -3.1257    2.8940 N   0  0  0  0  0  0  0  0  0  0  0  0
   10.6823   -3.1301    1.7103 C   0  0  0  0  0  0  0  0  0  0  0  0
    9.2943   -3.1526    1.5978 C   0  0  0  0  0  0  0  0  0  0  0  0
    8.6552   -3.2665    0.3989 O   0  0  0  0  0  0  0  0  0  0  0  0
   11.5271   -3.1038    0.4772 C   0  0  0  0  0  0  0  0  0  0  0  0
    8.4891   -3.1266    5.3196 C   0  0  0  0  0  0  0  0  0  0  0  0
    7.0919   -3.2206    5.1326 O   0  0  0  0  0  0  0  0  0  0  0  0
    6.2277   -3.2666    6.6306 P   0  0  0  0  0  0  0  0  0  0  0  0
    4.9407   -3.6304    5.9041 O   0  0  0  0  0  0  0  0  0  0  0  0
    7.0068   -4.6411    7.0146 O   0  0  0  0  0  0  0  0  0  0  0  0
    5.3635   -3.3125    8.1286 O   0  0  0  0  0  0  0  0  0  0  0  0
    0.6943    0.6945   -0.6432 H   0  0  0  0  0  0  0  0  0  0  0  0
    0.6971    0.1925    0.9129 H   0  0  0  0  0  0  0  0  0  0  0  0
    2.8542    0.9683    0.2551 H   0  0  0  0  0  0  0  0  0  0  0  0
    2.8549   -0.2448   -1.0341 H   0  0  0  0  0  0  0  0  0  0  0  0
    2.6355   -2.0625    0.6808 H   0  0  0  0  0  0  0  0  0  0  0  0
    2.6477   -0.8527    1.9679 H   0  0  0  0  0  0  0  0  0  0  0  0
    4.8931   -0.0627    1.2184 H   0  0  0  0  0  0  0  0  0  0  0  0
    4.8796   -1.2517   -0.0938 H   0  0  0  0  0  0  0  0  0  0  0  0
    4.6483   -3.0908    1.5942 H   0  0  0  0  0  0  0  0  0  0  0  0
    4.7138   -1.8761    2.8868 H   0  0  0  0  0  0  0  0  0  0  0  0
    6.8395   -1.1810    2.0917 H   0  0  0  0  0  0  0  0  0  0  0  0
    6.6882   -4.1359    2.2900 H   0  0  0  0  0  0  0  0  0  0  0  0
    6.4546   -2.8947    3.4657 H   0  0  0  0  0  0  0  0  0  0  0  0
   11.1264   -3.1795    4.9353 H   0  0  0  0  0  0  0  0  0  0  0  0
    9.2391   -3.0073   -0.3313 H   0  0  0  0  0  0  0  0  0  0  0  0
   12.5896   -3.1115    0.7276 H   0  0  0  0  0  0  0  0  0  0  0  0
   11.3091   -2.1912   -0.0866 H   0  0  0  0  0  0  0  0  0  0  0  0
   11.3034   -3.9778   -0.1410 H   0  0  0  0  0  0  0  0  0  0  0  0
    8.7201   -2.2288    5.9026 H   0  0  0  0  0  0  0  0  0  0  0  0
    8.8539   -4.0047    5.8650 H   0  0  0  0  0  0  0  0  0  0  0  0
    6.7398   -5.3457    6.3956 H   0  0  0  0  0  0  0  0  0  0  0  0
    4.7820   -2.5336    8.1766 H   0  0  0  0  0  0  0  0  0  0  0  0
  1  2  1  0  0  0  0
  1 22  1  0  0  0  0
  1 23  1  0  0  0  0
  2  3  1  0  0  0  0
  2 24  1  0  0  0  0
  2 25  1  0  0  0  0
  3  4  1  0  0  0  0
  3 26  1  0  0  0  0
  3 27  1  0  0  0  0
  4  5  1  0  0  0  0
  4 28  1  0  0  0  0
  4 29  1  0  0  0  0
  5  6  1  0  0  0  0
  5 30  1  0  0  0  0
  5 31  1  0  0  0  0
  6  7  1  0  0  0  0
  6 32  1  0  0  0  0
  7  8  1  0  0  0  0
  7 33  1  0  0  0  0
  7 34  1  0  0  0  0
  8  9  2  0  0  0  0
  8 13  1  0  0  0  0
  9 10  1  0  0  0  0
  9 16  1  0  0  0  0
 10 11  2  0  0  0  0
 10 35  1  0  0  0  0
 11 12  1  0  0  0  0
 12 13  2  0  0  0  0
 12 15  1  0  0  0  0
 13 14  1  0  0  0  0
 14 36  1  0  0  0  0
 15 37  1  0  0  0  0
 15 38  1  0  0  0  0
 15 39  1  0  0  0  0
 16 17  1  0  0  0  0
 16 40  1  0  0  0  0
 16 41  1  0  0  0  0
 17 18  1  0  0  0  0
 18 19  2  0  0  0  0
 18 20  1  0  0  0  0
 18 21  1  0  0  0  0
 20 42  1  0  0  0  0
 21 43  1  0  0  0  0
M  END
$$$$
