P3Y
 OpenBabel04121316173D

 48 51  0  0  0  0  0  0  0  0999 V2000
    1.0148    0.2936    0.9836 C   0  0  0  0  0  0  0  0  0  0  0  0
    2.3837    0.3251    0.5623 O   0  0  0  0  0  0  0  0  0  0  0  0
    3.0709   -0.8128    0.8858 C   0  0  0  0  0  0  0  0  0  0  0  0
    4.2128   -0.5530    1.6627 C   0  0  0  0  0  0  0  0  0  0  0  0
    4.9504   -1.5922    2.2099 C   0  0  0  0  0  0  0  0  0  0  0  0
    4.4765   -2.8881    2.0670 C   0  0  0  0  0  0  0  0  0  0  0  0
    3.3438   -3.1435    1.2689 C   0  0  0  0  0  0  0  0  0  0  0  0
    2.7047   -2.1222    0.5259 C   0  0  0  0  0  0  0  0  0  0  0  0
    1.7051   -2.4370   -0.5456 C   0  0  0  0  0  0  0  0  0  0  0  0
    1.2733   -3.7285   -0.8152 C   0  0  0  0  0  0  0  0  0  0  0  0
    0.2080   -3.6710   -1.6886 N   0  0  0  0  0  0  0  0  0  0  0  0
   -0.3094   -4.4618   -2.0397 H   0  0  0  0  0  0  0  0  0  0  0  0
   -0.1135   -2.3696   -1.9603 C   0  0  0  0  0  0  0  0  0  0  0  0
    0.9128   -1.5976   -1.4474 C   0  0  0  0  0  0  0  0  0  0  0  0
    0.8175   -0.2256   -1.7749 C   0  0  0  0  0  0  0  0  0  0  0  0
   -0.4297    0.3502   -2.1367 C   0  0  0  0  0  0  0  0  0  0  0  0
   -1.3401   -0.5692   -2.6238 C   0  0  0  0  0  0  0  0  0  0  0  0
   -1.2083   -1.9324   -2.6226 N   0  0  0  0  0  0  0  0  0  0  0  0
   -0.7107    1.8181   -1.9707 C   0  0  0  0  0  0  0  0  0  0  0  0
   -1.9085    2.4634   -1.7061 C   0  0  0  0  0  0  0  0  0  0  0  0
   -2.0377    3.8242   -1.5815 N   0  0  0  0  0  0  0  0  0  0  0  0
   -0.9067    4.5932   -1.6694 C   0  0  0  0  0  0  0  0  0  0  0  0
    0.3614    4.0699   -1.8444 C   0  0  0  0  0  0  0  0  0  0  0  0
    0.3707    2.6945   -2.0293 C   0  0  0  0  0  0  0  0  0  0  0  0
    1.5773    4.9464   -1.9046 C   0  0  0  0  0  0  0  0  0  0  0  0
    1.3471    6.1730   -1.8696 O   0  0  0  0  0  0  0  0  0  0  0  0
    2.9039    4.4777   -1.9922 N   0  0  0  0  0  0  0  0  0  0  0  0
    3.4355    3.1210   -2.0010 C   0  0  0  0  0  0  0  0  0  0  0  0
    3.9823    5.4538   -2.0874 C   0  0  0  0  0  0  0  0  0  0  0  0
    0.5076    1.0857    0.4295 H   0  0  0  0  0  0  0  0  0  0  0  0
    0.9067    0.5030    2.0413 H   0  0  0  0  0  0  0  0  0  0  0  0
    0.4931   -0.6433    0.7718 H   0  0  0  0  0  0  0  0  0  0  0  0
    4.5020    0.4767    1.8590 H   0  0  0  0  0  0  0  0  0  0  0  0
    5.8481   -1.3835    2.7864 H   0  0  0  0  0  0  0  0  0  0  0  0
    4.9961   -3.7040    2.5666 H   0  0  0  0  0  0  0  0  0  0  0  0
    2.9719   -4.1656    1.2666 H   0  0  0  0  0  0  0  0  0  0  0  0
    1.5990   -4.6887   -0.4368 H   0  0  0  0  0  0  0  0  0  0  0  0
    1.6739    0.3825   -1.5248 H   0  0  0  0  0  0  0  0  0  0  0  0
   -2.2451   -0.2039   -3.1040 H   0  0  0  0  0  0  0  0  0  0  0  0
   -2.8406    1.9221   -1.5689 H   0  0  0  0  0  0  0  0  0  0  0  0
   -1.0740    5.6697   -1.6179 H   0  0  0  0  0  0  0  0  0  0  0  0
    1.2491    2.1940   -2.3228 H   0  0  0  0  0  0  0  0  0  0  0  0
    2.7584    2.3324   -1.7792 H   0  0  0  0  0  0  0  0  0  0  0  0
    4.1574    3.0089   -1.1917 H   0  0  0  0  0  0  0  0  0  0  0  0
    3.8831    2.9218   -2.9801 H   0  0  0  0  0  0  0  0  0  0  0  0
    3.6466    6.4904   -2.0599 H   0  0  0  0  0  0  0  0  0  0  0  0
    4.5234    5.2760   -3.0238 H   0  0  0  0  0  0  0  0  0  0  0  0
    4.6701    5.2800   -1.2520 H   0  0  0  0  0  0  0  0  0  0  0  0
  1  2  1  0  0  0  0
  1 30  1  0  0  0  0
  1 31  1  0  0  0  0
  1 32  1  0  0  0  0
  2  3  1  0  0  0  0
  3  4  2  0  0  0  0
  3  8  1  0  0  0  0
  4  5  1  0  0  0  0
  4 33  1  0  0  0  0
  5  6  2  0  0  0  0
  5 34  1  0  0  0  0
  6  7  1  0  0  0  0
  6 35  1  0  0  0  0
  7  8  2  0  0  0  0
  7 36  1  0  0  0  0
  8  9  1  0  0  0  0
  9 10  2  0  0  0  0
  9 14  1  0  0  0  0
 10 11  1  0  0  0  0
 10 37  1  0  0  0  0
 11 12  1  0  0  0  0
 11 13  1  0  0  0  0
 13 14  2  0  0  0  0
 13 18  1  0  0  0  0
 14 15  1  0  0  0  0
 15 16  2  0  0  0  0
 15 38  1  0  0  0  0
 16 17  1  0  0  0  0
 16 19  1  0  0  0  0
 17 18  2  0  0  0  0
 17 39  1  0  0  0  0
 19 20  2  0  0  0  0
 19 24  1  0  0  0  0
 20 21  1  0  0  0  0
 20 40  1  0  0  0  0
 21 22  2  0  0  0  0
 22 23  1  0  0  0  0
 22 41  1  0  0  0  0
 23 24  2  0  0  0  0
 23 25  1  0  0  0  0
 24 42  1  0  0  0  0
 25 26  2  0  0  0  0
 25 27  1  0  0  0  0
 27 28  1  0  0  0  0
 27 29  1  0  0  0  0
 28 43  1  0  0  0  0
 28 44  1  0  0  0  0
 28 45  1  0  0  0  0
 29 46  1  0  0  0  0
 29 47  1  0  0  0  0
 29 48  1  0  0  0  0
M  END
$$$$
