P47
 OpenBabel04121316173D

 35 36  0  0  0  0  0  0  0  0999 V2000
    0.8754    0.1235   -0.0032 O   0  0  0  0  0  0  0  0  0  0  0  0
    2.1863    0.0272    0.2689 C   0  0  0  0  0  0  0  0  0  0  0  0
    2.5814   -0.7941    1.0871 O   0  0  0  0  0  0  0  0  0  0  0  0
    3.0301    0.9692   -0.5282 C   0  0  0  0  0  0  0  0  0  0  0  0
    4.3861    0.9603   -0.5603 C   0  0  0  0  0  0  0  0  0  0  0  0
    5.1662   -0.0796    0.1451 C   0  0  0  0  0  0  0  0  0  0  0  0
    6.1857    0.2131    1.0610 C   0  0  0  0  0  0  0  0  0  0  0  0
    6.9777   -0.8049    1.5823 C   0  0  0  0  0  0  0  0  0  0  0  0
    6.5806   -2.1248    1.4144 C   0  0  0  0  0  0  0  0  0  0  0  0
    5.4634   -2.4187    0.6447 C   0  0  0  0  0  0  0  0  0  0  0  0
    4.8681   -1.4194   -0.1084 C   0  0  0  0  0  0  0  0  0  0  0  0
    5.1670    1.9945   -1.3588 C   0  0  0  0  0  0  0  0  0  0  0  0
    6.7048    1.8647   -1.2992 C   0  0  0  0  0  0  0  0  0  0  0  0
    7.3914    2.9473   -2.0576 C   0  0  0  0  0  0  0  0  0  0  0  0
    7.1790    4.2760   -1.6753 C   0  0  0  0  0  0  0  0  0  0  0  0
    7.5794    5.2937   -2.5207 C   0  0  0  0  0  0  0  0  0  0  0  0
    8.3394    4.9812   -3.6447 C   0  0  0  0  0  0  0  0  0  0  0  0
    8.7293    3.6672   -3.9081 C   0  0  0  0  0  0  0  0  0  0  0  0
    8.2102    2.6358   -3.1403 C   0  0  0  0  0  0  0  0  0  0  0  0
    8.7639    6.2296   -4.7446 Cl  0  0  0  0  0  0  0  0  0  0  0  0
    0.5901    0.9721   -0.3757 H   0  0  0  0  0  0  0  0  0  0  0  0
    2.4988    1.7061   -1.1227 H   0  0  0  0  0  0  0  0  0  0  0  0
    6.4027    1.2343    1.3631 H   0  0  0  0  0  0  0  0  0  0  0  0
    7.8664   -0.5651    2.1577 H   0  0  0  0  0  0  0  0  0  0  0  0
    7.1187   -2.9248    1.9087 H   0  0  0  0  0  0  0  0  0  0  0  0
    5.0241   -3.4101    0.6434 H   0  0  0  0  0  0  0  0  0  0  0  0
    4.0608   -1.6840   -0.7871 H   0  0  0  0  0  0  0  0  0  0  0  0
    4.8675    2.9925   -1.0091 H   0  0  0  0  0  0  0  0  0  0  0  0
    4.8629    1.9466   -2.4159 H   0  0  0  0  0  0  0  0  0  0  0  0
    7.0132    0.8756   -1.6608 H   0  0  0  0  0  0  0  0  0  0  0  0
    7.0861    1.9915   -0.2880 H   0  0  0  0  0  0  0  0  0  0  0  0
    6.6498    4.5070   -0.7522 H   0  0  0  0  0  0  0  0  0  0  0  0
    7.2751    6.3127   -2.3070 H   0  0  0  0  0  0  0  0  0  0  0  0
    9.3985    3.4360   -4.7296 H   0  0  0  0  0  0  0  0  0  0  0  0
    8.4191    1.5984   -3.3950 H   0  0  0  0  0  0  0  0  0  0  0  0
  1  2  1  0  0  0  0
  1 21  1  0  0  0  0
  2  3  2  0  0  0  0
  2  4  1  0  0  0  0
  4  5  2  0  0  0  0
  4 22  1  0  0  0  0
  5  6  1  0  0  0  0
  5 12  1  0  0  0  0
  6  7  2  0  0  0  0
  6 11  1  0  0  0  0
  7  8  1  0  0  0  0
  7 23  1  0  0  0  0
  8  9  2  0  0  0  0
  8 24  1  0  0  0  0
  9 10  1  0  0  0  0
  9 25  1  0  0  0  0
 10 11  2  0  0  0  0
 10 26  1  0  0  0  0
 11 27  1  0  0  0  0
 12 13  1  0  0  0  0
 12 28  1  0  0  0  0
 12 29  1  0  0  0  0
 13 14  1  0  0  0  0
 13 30  1  0  0  0  0
 13 31  1  0  0  0  0
 14 15  2  0  0  0  0
 14 19  1  0  0  0  0
 15 16  1  0  0  0  0
 15 32  1  0  0  0  0
 16 17  2  0  0  0  0
 16 33  1  0  0  0  0
 17 18  1  0  0  0  0
 17 20  1  0  0  0  0
 18 19  2  0  0  0  0
 18 34  1  0  0  0  0
 19 35  1  0  0  0  0
M  END
$$$$
