P4O
 OpenBabel04121316173D

 42 46  0  0  0  0  0  0  0  0999 V2000
    0.7703   -0.0578   -0.0441 O   0  0  0  0  0  0  0  0  0  0  0  0
    2.0030   -0.0456   -0.0495 C   0  0  0  0  0  0  0  0  0  0  0  0
    2.7356   -1.1982   -0.0691 N   0  0  0  0  0  0  0  0  0  0  0  0
    4.1901   -1.3060   -0.0164 C   0  0  0  0  0  0  0  0  0  0  0  0
    5.0267   -0.0088   -0.0195 C   0  0  0  0  0  0  0  0  0  0  0  0
    4.1579    1.1828   -0.0344 C   0  0  0  0  0  0  0  0  0  0  0  0
    2.7785    1.1637   -0.0421 C   0  0  0  0  0  0  0  0  0  0  0  0
    2.3441    2.4947   -0.0413 C   0  0  0  0  0  0  0  0  0  0  0  0
    3.4654    3.2893   -0.0467 C   0  0  0  0  0  0  0  0  0  0  0  0
    4.5791    2.4833   -0.0334 N   0  0  0  0  0  0  0  0  0  0  0  0
    5.5409    2.8061   -0.0440 H   0  0  0  0  0  0  0  0  0  0  0  0
    3.4996    4.7218   -0.0723 C   0  0  0  0  0  0  0  0  0  0  0  0
    2.9864    5.4017   -1.1668 C   0  0  0  0  0  0  0  0  0  0  0  0
    2.9260    6.7719   -1.0952 C   0  0  0  0  0  0  0  0  0  0  0  0
    3.4543    7.4758   -0.0756 N   0  0  0  0  0  0  0  0  0  0  0  0
    3.9780    6.7854    0.9732 C   0  0  0  0  0  0  0  0  0  0  0  0
    3.9259    5.4093    1.0438 C   0  0  0  0  0  0  0  0  0  0  0  0
    4.5882    7.5668    2.0402 C   0  0  0  0  0  0  0  0  0  0  0  0
    5.4586    7.0112    2.9825 C   0  0  0  0  0  0  0  0  0  0  0  0
    6.0070    7.6709    4.0251 N   0  0  0  0  0  0  0  0  0  0  0  0
    5.7351    8.9779    4.1171 C   0  0  0  0  0  0  0  0  0  0  0  0
    4.8872    9.6438    3.2072 C   0  0  0  0  0  0  0  0  0  0  0  0
    4.3223    8.9237    2.1667 C   0  0  0  0  0  0  0  0  0  0  0  0
    4.6283   11.0070    3.3220 C   0  0  0  0  0  0  0  0  0  0  0  0
    5.3631   11.7564    4.2259 C   0  0  0  0  0  0  0  0  0  0  0  0
    6.2765   11.1235    5.0637 C   0  0  0  0  0  0  0  0  0  0  0  0
    6.3522    9.7311    5.0938 C   0  0  0  0  0  0  0  0  0  0  0  0
    2.1738   -2.0375   -0.0519 H   0  0  0  0  0  0  0  0  0  0  0  0
    4.4821   -1.9290   -0.8678 H   0  0  0  0  0  0  0  0  0  0  0  0
    4.4171   -1.8721    0.8923 H   0  0  0  0  0  0  0  0  0  0  0  0
    5.6961   -0.0053   -0.8877 H   0  0  0  0  0  0  0  0  0  0  0  0
    5.6584    0.0087    0.8762 H   0  0  0  0  0  0  0  0  0  0  0  0
    1.3216    2.8489   -0.0406 H   0  0  0  0  0  0  0  0  0  0  0  0
    2.5991    4.8632   -2.0231 H   0  0  0  0  0  0  0  0  0  0  0  0
    2.4265    7.3495   -1.8655 H   0  0  0  0  0  0  0  0  0  0  0  0
    4.1780    4.8741    1.9530 H   0  0  0  0  0  0  0  0  0  0  0  0
    5.7753    5.9726    2.9255 H   0  0  0  0  0  0  0  0  0  0  0  0
    3.6940    9.4211    1.4302 H   0  0  0  0  0  0  0  0  0  0  0  0
    3.8954   11.4864    2.6784 H   0  0  0  0  0  0  0  0  0  0  0  0
    5.2258   12.8313    4.2696 H   0  0  0  0  0  0  0  0  0  0  0  0
    6.9398   11.7101    5.6904 H   0  0  0  0  0  0  0  0  0  0  0  0
    6.9379    9.2306    5.8594 H   0  0  0  0  0  0  0  0  0  0  0  0
  1  2  2  0  0  0  0
  2  3  1  0  0  0  0
  2  7  1  0  0  0  0
  3  4  1  0  0  0  0
  3 28  1  0  0  0  0
  4  5  1  0  0  0  0
  4 29  1  0  0  0  0
  4 30  1  0  0  0  0
  5  6  1  0  0  0  0
  5 31  1  0  0  0  0
  5 32  1  0  0  0  0
  6  7  2  0  0  0  0
  6 10  1  0  0  0  0
  7  8  1  0  0  0  0
  8  9  2  0  0  0  0
  8 33  1  0  0  0  0
  9 10  1  0  0  0  0
  9 12  1  0  0  0  0
 10 11  1  0  0  0  0
 12 13  2  0  0  0  0
 12 17  1  0  0  0  0
 13 14  1  0  0  0  0
 13 34  1  0  0  0  0
 14 15  2  0  0  0  0
 14 35  1  0  0  0  0
 15 16  1  0  0  0  0
 16 17  2  0  0  0  0
 16 18  1  0  0  0  0
 17 36  1  0  0  0  0
 18 19  2  0  0  0  0
 18 23  1  0  0  0  0
 19 20  1  0  0  0  0
 19 37  1  0  0  0  0
 20 21  2  0  0  0  0
 21 22  1  0  0  0  0
 21 27  1  0  0  0  0
 22 23  2  0  0  0  0
 22 24  1  0  0  0  0
 23 38  1  0  0  0  0
 24 25  2  0  0  0  0
 24 39  1  0  0  0  0
 25 26  1  0  0  0  0
 25 40  1  0  0  0  0
 26 27  2  0  0  0  0
 26 41  1  0  0  0  0
 27 42  1  0  0  0  0
M  END
$$$$
