P4T
 OpenBabel04121316173D

 28 29  0  0  0  0  0  0  0  0999 V2000
    1.0738   -0.0020   -0.0111 C   0  0  0  0  0  0  0  0  0  0  0  0
    2.5794    0.0680   -0.0303 C   0  0  0  0  0  0  0  0  0  0  0  0
    3.1892   -0.0961   -1.0965 O   0  0  0  0  0  0  0  0  0  0  0  0
    3.2582    0.1452    1.2401 C   0  0  0  0  0  0  0  0  0  0  0  0
    3.6403    1.6169    2.0474 S   0  0  0  0  0  0  0  0  0  0  0  0
    4.4684    0.7325    3.3011 C   0  0  0  0  0  0  0  0  0  0  0  0
    4.4665   -0.5617    3.0654 N   0  0  0  0  0  0  0  0  0  0  0  0
    3.7628   -0.9195    1.9486 C   0  0  0  0  0  0  0  0  0  0  0  0
    3.6437   -2.3638    1.6292 C   0  0  0  0  0  0  0  0  0  0  0  0
    5.0558    1.3100    4.3985 N   0  0  0  0  0  0  0  0  0  0  0  0
    5.6076    0.5862    5.4947 C   0  0  0  0  0  0  0  0  0  0  0  0
    6.5160    1.1636    6.3983 C   0  0  0  0  0  0  0  0  0  0  0  0
    7.1940    0.3677    7.3484 C   0  0  0  0  0  0  0  0  0  0  0  0
    6.9246   -0.9958    7.4626 C   0  0  0  0  0  0  0  0  0  0  0  0
    5.9601   -1.5600    6.6511 C   0  0  0  0  0  0  0  0  0  0  0  0
    5.3444   -0.7824    5.6749 C   0  0  0  0  0  0  0  0  0  0  0  0
    0.7029   -0.1216   -1.0358 H   0  0  0  0  0  0  0  0  0  0  0  0
    0.6549    0.9164    0.4032 H   0  0  0  0  0  0  0  0  0  0  0  0
    0.7394   -0.8694    0.5670 H   0  0  0  0  0  0  0  0  0  0  0  0
    4.1192   -2.9754    2.4036 H   0  0  0  0  0  0  0  0  0  0  0  0
    4.1235   -2.5876    0.6731 H   0  0  0  0  0  0  0  0  0  0  0  0
    2.5902   -2.6559    1.5749 H   0  0  0  0  0  0  0  0  0  0  0  0
    5.0906    2.3180    4.4791 H   0  0  0  0  0  0  0  0  0  0  0  0
    6.7339    2.2285    6.3845 H   0  0  0  0  0  0  0  0  0  0  0  0
    7.9453    0.8054    8.0026 H   0  0  0  0  0  0  0  0  0  0  0  0
    7.4513   -1.6196    8.1791 H   0  0  0  0  0  0  0  0  0  0  0  0
    5.6783   -2.6044    6.7416 H   0  0  0  0  0  0  0  0  0  0  0  0
    4.6325   -1.3034    5.0481 H   0  0  0  0  0  0  0  0  0  0  0  0
  1  2  1  0  0  0  0
  1 17  1  0  0  0  0
  1 18  1  0  0  0  0
  1 19  1  0  0  0  0
  2  3  2  0  0  0  0
  2  4  1  0  0  0  0
  4  5  1  0  0  0  0
  4  8  2  0  0  0  0
  5  6  1  0  0  0  0
  6  7  2  0  0  0  0
  6 10  1  0  0  0  0
  7  8  1  0  0  0  0
  8  9  1  0  0  0  0
  9 20  1  0  0  0  0
  9 21  1  0  0  0  0
  9 22  1  0  0  0  0
 10 11  1  0  0  0  0
 10 23  1  0  0  0  0
 11 12  2  0  0  0  0
 11 16  1  0  0  0  0
 12 13  1  0  0  0  0
 12 24  1  0  0  0  0
 13 14  2  0  0  0  0
 13 25  1  0  0  0  0
 14 15  1  0  0  0  0
 14 26  1  0  0  0  0
 15 16  2  0  0  0  0
 15 27  1  0  0  0  0
 16 28  1  0  0  0  0
M  END
$$$$
