P6P
 OpenBabel04121316173D

 29 29  0  0  1  0  0  0  0  0999 V2000
    2.0420    1.1355   -3.3992 O   0  0  0  0  0  0  0  0  0  0  0  0
    2.3599    0.3490   -2.2502 C   0  0  0  0  0  0  0  0  0  0  0  0
    3.0055    1.0282   -0.9840 C   0  0  2  0  0  0  0  0  0  0  0  0
    2.5764    0.1817    0.0953 O   0  0  0  0  0  0  0  0  0  0  0  0
    2.5316    2.3587   -0.6977 O   0  0  0  0  0  0  0  0  0  0  0  0
    3.4959    3.3004   -1.2406 C   0  0  1  0  0  0  0  0  0  0  0  0
    3.4329    4.2385   -0.6762 H   0  0  0  0  0  0  0  0  0  0  0  0
    4.8599    2.6377   -1.1366 C   0  0  2  0  0  0  0  0  0  0  0  0
    5.4867    2.8302   -2.0136 H   0  0  0  0  0  0  0  0  0  0  0  0
    4.5522    1.1508   -0.9502 C   0  0  2  0  0  0  0  0  0  0  0  0
    4.9251    0.8291    0.0308 H   0  0  0  0  0  0  0  0  0  0  0  0
    5.2290    0.3497   -1.9129 O   0  0  0  0  0  0  0  0  0  0  0  0
    5.5996    3.1390   -0.0150 O   0  0  0  0  0  0  0  0  0  0  0  0
    3.1632    3.5202   -2.7009 C   0  0  0  0  0  0  0  0  0  0  0  0
    3.9956    4.4031   -3.4264 O   0  0  0  0  0  0  0  0  0  0  0  0
    3.5720    4.5582   -5.0965 P   0  0  0  0  0  0  0  0  0  0  0  0
    3.7728    3.0688   -5.3651 O   0  0  0  0  0  0  0  0  0  0  0  0
    2.0271    4.8503   -4.6881 O   0  0  0  0  0  0  0  0  0  0  0  0
    3.1483    4.7133   -6.7667 O   0  0  0  0  0  0  0  0  0  0  0  0
    2.4783    0.7770   -4.1695 H   0  0  0  0  0  0  0  0  0  0  0  0
    2.9714   -0.4998   -2.5754 H   0  0  0  0  0  0  0  0  0  0  0  0
    1.3921   -0.0643   -1.9644 H   0  0  0  0  0  0  0  0  0  0  0  0
    2.9288    0.5597    0.9184 H   0  0  0  0  0  0  0  0  0  0  0  0
    6.1718    0.5938   -1.8770 H   0  0  0  0  0  0  0  0  0  0  0  0
    5.0049    3.1751    0.7554 H   0  0  0  0  0  0  0  0  0  0  0  0
    2.1050    3.7858   -2.7724 H   0  0  0  0  0  0  0  0  0  0  0  0
    3.3654    2.5916   -3.1923 H   0  0  0  0  0  0  0  0  0  0  0  0
    1.9514    5.6435   -4.1251 H   0  0  0  0  0  0  0  0  0  0  0  0
    3.6492    4.0075   -7.2202 H   0  0  0  0  0  0  0  0  0  0  0  0
  1  2  1  0  0  0  0
  1 20  1  0  0  0  0
  2 21  1  0  0  0  0
  2 22  1  0  0  0  0
  3  5  1  0  0  0  0
  3 10  1  0  0  0  0
  3  4  1  1  0  0  0
  3  2  1  0  0  0  0
  4 23  1  0  0  0  0
  5  6  1  0  0  0  0
  6  7  1  1  0  0  0
  6  8  1  0  0  0  0
  6 14  1  0  0  0  0
  8 10  1  0  0  0  0
  8 13  1  0  0  0  0
  8  9  1  6  0  0  0
 10 11  1  1  0  0  0
 10 12  1  0  0  0  0
 12 24  1  0  0  0  0
 13 25  1  0  0  0  0
 14 15  1  0  0  0  0
 14 26  1  0  0  0  0
 14 27  1  0  0  0  0
 15 16  1  0  0  0  0
 16 17  2  0  0  0  0
 16 18  1  0  0  0  0
 16 19  1  0  0  0  0
 18 28  1  0  0  0  0
 19 29  1  0  0  0  0
M  END
$$$$
