P83
 OpenBabel04121316173D

 36 38  0  0  0  0  0  0  0  0999 V2000
    0.8500   -0.0807    0.0187 C   0  0  0  0  0  0  0  0  0  0  0  0
    2.2950   -0.0698   -0.0176 N   0  0  0  0  0  0  0  0  0  0  0  0
    2.7883    0.8237   -1.0698 C   0  0  0  0  0  0  0  0  0  0  0  0
    4.2905    0.8346   -1.0732 C   0  0  0  0  0  0  0  0  0  0  0  0
    4.9447    0.8731    0.1463 C   0  0  0  0  0  0  0  0  0  0  0  0
    6.3211    0.8633    0.2138 C   0  0  0  0  0  0  0  0  0  0  0  0
    7.0814    0.8500   -0.9678 C   0  0  0  0  0  0  0  0  0  0  0  0
    6.4541    0.8432   -2.2140 C   0  0  0  0  0  0  0  0  0  0  0  0
    5.0367    0.8391   -2.2654 C   0  0  0  0  0  0  0  0  0  0  0  0
    7.4746    0.8397   -3.2163 C   0  0  0  0  0  0  0  0  0  0  0  0
    7.4599    0.8347   -4.6278 C   0  0  0  0  0  0  0  0  0  0  0  0
    8.6635    0.8340   -5.3395 C   0  0  0  0  0  0  0  0  0  0  0  0
    9.8796    0.8374   -4.6631 C   0  0  0  0  0  0  0  0  0  0  0  0
    9.9228    0.8408   -3.2652 C   0  0  0  0  0  0  0  0  0  0  0  0
    8.7083    0.8416   -2.5564 C   0  0  0  0  0  0  0  0  0  0  0  0
    8.4458    0.8447   -1.1907 N   0  0  0  0  0  0  0  0  0  0  0  0
    9.5108    0.8484   -0.1915 C   0  0  0  0  0  0  0  0  0  0  0  0
    9.0915    0.8513    1.2681 C   0  0  0  0  0  0  0  0  0  0  0  0
    0.5109   -0.7471    0.8165 H   0  0  0  0  0  0  0  0  0  0  0  0
    0.4390   -0.4356   -0.9296 H   0  0  0  0  0  0  0  0  0  0  0  0
    0.4641    0.9204    0.2336 H   0  0  0  0  0  0  0  0  0  0  0  0
    2.6632   -1.0065   -0.1807 H   0  0  0  0  0  0  0  0  0  0  0  0
    2.4513    1.8514   -0.8875 H   0  0  0  0  0  0  0  0  0  0  0  0
    2.4179    0.4963   -2.0458 H   0  0  0  0  0  0  0  0  0  0  0  0
    4.3858    0.8849    1.0819 H   0  0  0  0  0  0  0  0  0  0  0  0
    6.7264    0.8627    1.2098 H   0  0  0  0  0  0  0  0  0  0  0  0
    4.5348    0.8320   -3.2264 H   0  0  0  0  0  0  0  0  0  0  0  0
    6.5146    0.8324   -5.1654 H   0  0  0  0  0  0  0  0  0  0  0  0
    8.6484    0.8311   -6.4264 H   0  0  0  0  0  0  0  0  0  0  0  0
   10.8081    0.8374   -5.2292 H   0  0  0  0  0  0  0  0  0  0  0  0
   10.8798    0.8433   -2.7513 H   0  0  0  0  0  0  0  0  0  0  0  0
   10.1176    1.7397   -0.3853 H   0  0  0  0  0  0  0  0  0  0  0  0
   10.1202   -0.0420   -0.3809 H   0  0  0  0  0  0  0  0  0  0  0  0
    8.5089    1.7531    1.4911 H   0  0  0  0  0  0  0  0  0  0  0  0
    9.9411    0.8531    1.9509 H   0  0  0  0  0  0  0  0  0  0  0  0
    8.5079   -0.0492    1.4947 H   0  0  0  0  0  0  0  0  0  0  0  0
  1  2  1  0  0  0  0
  1 19  1  0  0  0  0
  1 20  1  0  0  0  0
  1 21  1  0  0  0  0
  2  3  1  0  0  0  0
  2 22  1  0  0  0  0
  3  4  1  0  0  0  0
  3 23  1  0  0  0  0
  3 24  1  0  0  0  0
  4  5  2  0  0  0  0
  4  9  1  0  0  0  0
  5  6  1  0  0  0  0
  5 25  1  0  0  0  0
  6  7  2  0  0  0  0
  6 26  1  0  0  0  0
  7  8  1  0  0  0  0
  7 16  1  0  0  0  0
  8  9  2  0  0  0  0
  8 10  1  0  0  0  0
  9 27  1  0  0  0  0
 10 11  2  0  0  0  0
 10 15  1  0  0  0  0
 11 12  1  0  0  0  0
 11 28  1  0  0  0  0
 12 13  2  0  0  0  0
 12 29  1  0  0  0  0
 13 14  1  0  0  0  0
 13 30  1  0  0  0  0
 14 15  2  0  0  0  0
 14 31  1  0  0  0  0
 15 16  1  0  0  0  0
 16 17  1  0  0  0  0
 17 18  1  0  0  0  0
 17 32  1  0  0  0  0
 17 33  1  0  0  0  0
 18 34  1  0  0  0  0
 18 35  1  0  0  0  0
 18 36  1  0  0  0  0
M  END
$$$$
