P89
 OpenBabel04121316173D

 60 60  0  0  0  0  0  0  0  0999 V2000
    0.9156   -0.0857    0.0301 C   0  0  0  0  0  0  0  0  0  0  0  0
    2.4314   -0.0792    0.0327 C   0  0  0  0  0  0  0  0  0  0  0  0
    2.9544    1.2455    0.5676 C   0  0  0  0  0  0  0  0  0  0  0  0
    4.4737    1.2544    0.5712 C   0  0  0  0  0  0  0  0  0  0  0  0
    4.9815    2.5808    1.1067 C   0  0  0  0  0  0  0  0  0  0  0  0
    6.4965    2.5924    1.1114 C   0  0  0  0  0  0  0  0  0  0  0  0
    6.9914    3.9222    1.6483 C   0  0  0  0  0  0  0  0  0  0  0  0
    8.4996    3.9251    1.6493 C   0  0  0  0  0  0  0  0  0  0  0  0
    9.0338    5.2404    2.1794 C   0  0  0  0  0  0  0  0  0  0  0  0
   10.5365    5.1785    2.1475 C   0  0  0  0  0  0  0  0  0  0  0  0
   11.1231    4.1677    1.7688 O   0  0  0  0  0  0  0  0  0  0  0  0
   11.2437    6.4319    2.6241 C   0  0  0  0  0  0  0  0  0  0  0  0
   12.6507    6.1943    2.3872 N   0  0  0  0  0  0  0  0  0  0  0  0
   13.4517    6.9820    3.0010 C   0  0  0  0  0  0  0  0  0  0  0  0
   14.9044    6.8108    2.8690 C   0  0  0  0  0  0  0  0  0  0  0  0
   15.7528    7.9192    2.7889 C   0  0  0  0  0  0  0  0  0  0  0  0
   17.1123    7.6407    2.6791 C   0  0  0  0  0  0  0  0  0  0  0  0
   17.6483    6.4009    2.6316 N   0  0  0  0  0  0  0  0  0  0  0  0
   16.7976    5.3486    2.6991 C   0  0  0  0  0  0  0  0  0  0  0  0
   15.4246    5.5094    2.8294 C   0  0  0  0  0  0  0  0  0  0  0  0
   14.5914    4.4391    3.0031 O   0  0  0  0  0  0  0  0  0  0  0  0
   17.4051    3.9801    2.6617 C   0  0  0  0  0  0  0  0  0  0  0  0
   15.3380    9.3609    2.7896 C   0  0  0  0  0  0  0  0  0  0  0  0
   13.9445    9.5499    2.8327 O   0  0  0  0  0  0  0  0  0  0  0  0
   13.3504   11.0004    2.9433 P   0  0  0  0  0  0  0  0  0  0  0  0
   13.8700   11.7431    4.2293 O   0  0  0  0  0  0  0  0  0  0  0  0
   13.6979   11.8256    1.6494 O   0  0  0  0  0  0  0  0  0  0  0  0
   11.7771   10.8888    3.0402 O   0  0  0  0  0  0  0  0  0  0  0  0
    0.5417   -1.0380   -0.3544 H   0  0  0  0  0  0  0  0  0  0  0  0
    0.5267    0.7195   -0.6015 H   0  0  0  0  0  0  0  0  0  0  0  0
    0.5267    0.0552    1.0437 H   0  0  0  0  0  0  0  0  0  0  0  0
    2.8028   -0.2429   -0.9856 H   0  0  0  0  0  0  0  0  0  0  0  0
    2.8028   -0.9041    0.6519 H   0  0  0  0  0  0  0  0  0  0  0  0
    2.5824    1.4112    1.5863 H   0  0  0  0  0  0  0  0  0  0  0  0
    2.5824    2.0721   -0.0505 H   0  0  0  0  0  0  0  0  0  0  0  0
    4.8527    1.0948   -0.4457 H   0  0  0  0  0  0  0  0  0  0  0  0
    4.8527    0.4335    1.1922 H   0  0  0  0  0  0  0  0  0  0  0  0
    4.6072    2.7435    2.1249 H   0  0  0  0  0  0  0  0  0  0  0  0
    4.6072    3.4048    0.4870 H   0  0  0  0  0  0  0  0  0  0  0  0
    6.8781    2.4323    0.0950 H   0  0  0  0  0  0  0  0  0  0  0  0
    6.8781    1.7714    1.7317 H   0  0  0  0  0  0  0  0  0  0  0  0
    6.6189    4.0818    2.6669 H   0  0  0  0  0  0  0  0  0  0  0  0
    6.6187    4.7442    1.0261 H   0  0  0  0  0  0  0  0  0  0  0  0
    8.8742    3.7551    0.6307 H   0  0  0  0  0  0  0  0  0  0  0  0
    8.8739    3.0959    2.2648 H   0  0  0  0  0  0  0  0  0  0  0  0
    8.7060    5.4085    3.2107 H   0  0  0  0  0  0  0  0  0  0  0  0
    8.7008    6.0762    1.5551 H   0  0  0  0  0  0  0  0  0  0  0  0
   11.0042    6.5904    3.6834 H   0  0  0  0  0  0  0  0  0  0  0  0
   10.9101    7.2868    2.0295 H   0  0  0  0  0  0  0  0  0  0  0  0
   13.0532    7.7993    3.6154 H   0  0  0  0  0  0  0  0  0  0  0  0
   17.8462    8.4424    2.6196 H   0  0  0  0  0  0  0  0  0  0  0  0
   14.9967    3.6028    2.7334 H   0  0  0  0  0  0  0  0  0  0  0  0
   18.4941    4.0309    2.5903 H   0  0  0  0  0  0  0  0  0  0  0  0
   17.0275    3.4306    1.7931 H   0  0  0  0  0  0  0  0  0  0  0  0
   17.1445    3.4342    3.5744 H   0  0  0  0  0  0  0  0  0  0  0  0
   15.7114    9.8414    1.8796 H   0  0  0  0  0  0  0  0  0  0  0  0
   15.7838    9.8499    3.6621 H   0  0  0  0  0  0  0  0  0  0  0  0
   14.8308   11.8701    4.3190 H   0  0  0  0  0  0  0  0  0  0  0  0
   14.6235   11.8468    1.3551 H   0  0  0  0  0  0  0  0  0  0  0  0
   11.4266   10.4590    3.8411 H   0  0  0  0  0  0  0  0  0  0  0  0
  1  2  1  0  0  0  0
  1 29  1  0  0  0  0
  1 30  1  0  0  0  0
  1 31  1  0  0  0  0
  2  3  1  0  0  0  0
  2 32  1  0  0  0  0
  2 33  1  0  0  0  0
  3  4  1  0  0  0  0
  3 34  1  0  0  0  0
  3 35  1  0  0  0  0
  4  5  1  0  0  0  0
  4 36  1  0  0  0  0
  4 37  1  0  0  0  0
  5  6  1  0  0  0  0
  5 38  1  0  0  0  0
  5 39  1  0  0  0  0
  6  7  1  0  0  0  0
  6 40  1  0  0  0  0
  6 41  1  0  0  0  0
  7  8  1  0  0  0  0
  7 42  1  0  0  0  0
  7 43  1  0  0  0  0
  8  9  1  0  0  0  0
  8 44  1  0  0  0  0
  8 45  1  0  0  0  0
  9 10  1  0  0  0  0
  9 46  1  0  0  0  0
  9 47  1  0  0  0  0
 10 11  2  0  0  0  0
 10 12  1  0  0  0  0
 12 13  1  0  0  0  0
 12 48  1  0  0  0  0
 12 49  1  0  0  0  0
 13 14  2  0  0  0  0
 14 15  1  0  0  0  0
 14 50  1  0  0  0  0
 15 16  2  0  0  0  0
 15 20  1  0  0  0  0
 16 17  1  0  0  0  0
 16 23  1  0  0  0  0
 17 18  2  0  0  0  0
 17 51  1  0  0  0  0
 18 19  1  0  0  0  0
 19 20  2  0  0  0  0
 19 22  1  0  0  0  0
 20 21  1  0  0  0  0
 21 52  1  0  0  0  0
 22 53  1  0  0  0  0
 22 54  1  0  0  0  0
 22 55  1  0  0  0  0
 23 24  1  0  0  0  0
 23 56  1  0  0  0  0
 23 57  1  0  0  0  0
 24 25  1  0  0  0  0
 25 26  1  0  0  0  0
 25 27  1  0  0  0  0
 25 28  1  0  0  0  0
 26 58  1  0  0  0  0
 27 59  1  0  0  0  0
 28 60  1  0  0  0  0
M  END
$$$$
