P8H
 OpenBabel04121316173D

 40 42  0  0  0  0  0  0  0  0999 V2000
    0.9600    0.0311    0.0071 Br  0  0  0  0  0  0  0  0  0  0  0  0
    2.8449    0.0468    0.0358 C   0  0  0  0  0  0  0  0  0  0  0  0
    3.5801    1.2070   -0.0315 C   0  0  0  0  0  0  0  0  0  0  0  0
    4.9376    1.2286   -0.0466 N   0  0  0  0  0  0  0  0  0  0  0  0
    5.5850    0.0290   -0.0194 C   0  0  0  0  0  0  0  0  0  0  0  0
    4.9354   -1.1912    0.0433 C   0  0  0  0  0  0  0  0  0  0  0  0
    3.5371   -1.1469    0.1325 C   0  0  0  0  0  0  0  0  0  0  0  0
    5.7247   -2.4627    0.0847 C   0  0  0  0  0  0  0  0  0  0  0  0
    6.9428   -2.4302    0.2884 O   0  0  0  0  0  0  0  0  0  0  0  0
    5.0425   -3.6567   -0.0975 N   0  0  0  0  0  0  0  0  0  0  0  0
    4.0015   -3.7293   -1.1389 C   0  0  0  0  0  0  0  0  0  0  0  0
    3.8921   -5.0616   -1.8116 C   0  0  0  0  0  0  0  0  0  0  0  0
    3.8522   -6.1892   -0.7709 C   0  0  0  0  0  0  0  0  0  0  0  0
    5.2008   -6.1457   -0.0172 C   0  0  0  0  0  0  0  0  0  0  0  0
    5.3711   -4.8414    0.7430 C   0  0  0  0  0  0  0  0  0  0  0  0
    2.6362   -6.2123    0.0880 N   0  0  0  0  0  0  0  0  0  0  0  0
    2.6098   -7.3476    1.0122 C   0  0  0  0  0  0  0  0  0  0  0  0
    1.6334   -6.9456    2.1030 C   0  0  0  0  0  0  0  0  0  0  0  0
    1.8144   -5.4578    2.2359 C   0  0  0  0  0  0  0  0  0  0  0  0
    2.2481   -5.0248    0.8587 C   0  0  0  0  0  0  0  0  0  0  0  0
    3.0922    2.1753   -0.0564 H   0  0  0  0  0  0  0  0  0  0  0  0
    6.6707    0.0900   -0.0335 H   0  0  0  0  0  0  0  0  0  0  0  0
    2.9443   -2.0292    0.3004 H   0  0  0  0  0  0  0  0  0  0  0  0
    4.1525   -2.9300   -1.8694 H   0  0  0  0  0  0  0  0  0  0  0  0
    3.0177   -3.5296   -0.7334 H   0  0  0  0  0  0  0  0  0  0  0  0
    4.7627   -5.1701   -2.4704 H   0  0  0  0  0  0  0  0  0  0  0  0
    3.0011   -5.0696   -2.4491 H   0  0  0  0  0  0  0  0  0  0  0  0
    3.8362   -7.1133   -1.3661 H   0  0  0  0  0  0  0  0  0  0  0  0
    6.0252   -6.2291   -0.7354 H   0  0  0  0  0  0  0  0  0  0  0  0
    5.3168   -7.0098    0.6446 H   0  0  0  0  0  0  0  0  0  0  0  0
    6.3665   -4.7540    1.1918 H   0  0  0  0  0  0  0  0  0  0  0  0
    4.7254   -4.8624    1.6316 H   0  0  0  0  0  0  0  0  0  0  0  0
    3.5780   -7.5209    1.4859 H   0  0  0  0  0  0  0  0  0  0  0  0
    2.3081   -8.2705    0.5082 H   0  0  0  0  0  0  0  0  0  0  0  0
    1.8550   -7.4511    3.0461 H   0  0  0  0  0  0  0  0  0  0  0  0
    0.6046   -7.1610    1.8046 H   0  0  0  0  0  0  0  0  0  0  0  0
    2.6073   -5.2276    2.9618 H   0  0  0  0  0  0  0  0  0  0  0  0
    0.9112   -4.9278    2.5469 H   0  0  0  0  0  0  0  0  0  0  0  0
    3.0225   -4.3001    1.0632 H   0  0  0  0  0  0  0  0  0  0  0  0
    1.4510   -4.4722    0.3508 H   0  0  0  0  0  0  0  0  0  0  0  0
  1  2  1  0  0  0  0
  2  3  2  0  0  0  0
  2  7  1  0  0  0  0
  3  4  1  0  0  0  0
  3 21  1  0  0  0  0
  4  5  2  0  0  0  0
  5  6  1  0  0  0  0
  5 22  1  0  0  0  0
  6  7  2  0  0  0  0
  6  8  1  0  0  0  0
  7 23  1  0  0  0  0
  8  9  2  0  0  0  0
  8 10  1  0  0  0  0
 10 11  1  0  0  0  0
 10 15  1  0  0  0  0
 11 12  1  0  0  0  0
 11 24  1  0  0  0  0
 11 25  1  0  0  0  0
 12 13  1  0  0  0  0
 12 26  1  0  0  0  0
 12 27  1  0  0  0  0
 13 14  1  0  0  0  0
 13 16  1  0  0  0  0
 13 28  1  0  0  0  0
 14 15  1  0  0  0  0
 14 29  1  0  0  0  0
 14 30  1  0  0  0  0
 15 31  1  0  0  0  0
 15 32  1  0  0  0  0
 16 17  1  0  0  0  0
 16 20  1  0  0  0  0
 17 18  1  0  0  0  0
 17 33  1  0  0  0  0
 17 34  1  0  0  0  0
 18 19  1  0  0  0  0
 18 35  1  0  0  0  0
 18 36  1  0  0  0  0
 19 20  1  0  0  0  0
 19 37  1  0  0  0  0
 19 38  1  0  0  0  0
 20 39  1  0  0  0  0
 20 40  1  0  0  0  0
M  END
$$$$
