P91
 OpenBabel04121316173D

 44 47  0  0  0  0  0  0  0  0999 V2000
    1.0183    0.0875    0.0480 O   0  0  0  0  0  0  0  0  0  0  0  0
    2.4377    0.0896    0.0375 C   0  0  0  0  0  0  0  0  0  0  0  0
    2.9649   -0.5468    1.3142 C   0  0  0  0  0  0  0  0  0  0  0  0
    4.4089   -0.5348    1.3926 N   0  0  0  0  0  0  0  0  0  0  0  0
    5.0215   -1.1361    2.4684 C   0  0  0  0  0  0  0  0  0  0  0  0
    4.3966   -1.5988    3.4141 O   0  0  0  0  0  0  0  0  0  0  0  0
    6.4557   -1.1835    2.3782 C   0  0  0  0  0  0  0  0  0  0  0  0
    7.2566   -2.3208    2.3815 C   0  0  0  0  0  0  0  0  0  0  0  0
    6.5987   -4.0735    2.3989 Br  0  0  0  0  0  0  0  0  0  0  0  0
    8.5558   -1.8495    2.3725 C   0  0  0  0  0  0  0  0  0  0  0  0
    8.6056   -0.4849    2.3756 C   0  0  0  0  0  0  0  0  0  0  0  0
    7.2881   -0.0736    2.3677 N   0  0  0  0  0  0  0  0  0  0  0  0
    6.8406    1.3065    2.4115 C   0  0  0  0  0  0  0  0  0  0  0  0
    9.7917    0.2322    2.3775 C   0  0  0  0  0  0  0  0  0  0  0  0
   11.0440   -0.4255    2.4348 C   0  0  0  0  0  0  0  0  0  0  0  0
   10.9640   -1.8347    2.5047 C   0  0  0  0  0  0  0  0  0  0  0  0
    9.7583   -2.5967    2.3851 C   0  0  0  0  0  0  0  0  0  0  0  0
   10.0910   -3.9874    2.3517 C   0  0  0  0  0  0  0  0  0  0  0  0
    9.4561   -5.0355    2.4272 O   0  0  0  0  0  0  0  0  0  0  0  0
   11.4499   -3.9822    2.2920 N   0  0  0  0  0  0  0  0  0  0  0  0
   11.9568   -4.8407    2.4293 H   0  0  0  0  0  0  0  0  0  0  0  0
   11.9982   -2.8193    2.7401 C   0  0  0  0  0  0  0  0  0  0  0  0
   13.0726   -2.8024    3.3263 O   0  0  0  0  0  0  0  0  0  0  0  0
   12.2985    0.3727    2.3987 C   0  0  0  0  0  0  0  0  0  0  0  0
   12.2133    1.7809    2.5892 C   0  0  0  0  0  0  0  0  0  0  0  0
   13.2874    2.6335    2.3500 C   0  0  0  0  0  0  0  0  0  0  0  0
   14.5490    2.0947    2.2055 C   0  0  0  0  0  0  0  0  0  0  0  0
   14.7107    0.7221    2.2293 C   0  0  0  0  0  0  0  0  0  0  0  0
   13.5891   -0.0925    2.0853 C   0  0  0  0  0  0  0  0  0  0  0  0
   13.9218   -1.4331    1.0197 Cl  0  0  0  0  0  0  0  0  0  0  0  0
    0.7207    0.4935   -0.7836 H   0  0  0  0  0  0  0  0  0  0  0  0
    2.7885    1.1232   -0.0445 H   0  0  0  0  0  0  0  0  0  0  0  0
    2.7874   -0.4664   -0.8388 H   0  0  0  0  0  0  0  0  0  0  0  0
    2.6140   -1.5832    1.3974 H   0  0  0  0  0  0  0  0  0  0  0  0
    2.5767   -0.0189    2.1932 H   0  0  0  0  0  0  0  0  0  0  0  0
    4.9610   -0.2739    0.5863 H   0  0  0  0  0  0  0  0  0  0  0  0
    7.6912    1.9915    2.4250 H   0  0  0  0  0  0  0  0  0  0  0  0
    6.2470    1.4596    3.3159 H   0  0  0  0  0  0  0  0  0  0  0  0
    6.2518    1.5084    1.5143 H   0  0  0  0  0  0  0  0  0  0  0  0
    9.7204    1.3101    2.3366 H   0  0  0  0  0  0  0  0  0  0  0  0
   11.2866    2.2835    2.8539 H   0  0  0  0  0  0  0  0  0  0  0  0
   13.1306    3.7067    2.2897 H   0  0  0  0  0  0  0  0  0  0  0  0
   15.4052    2.7290    2.0132 H   0  0  0  0  0  0  0  0  0  0  0  0
   15.7018    0.2846    2.1704 H   0  0  0  0  0  0  0  0  0  0  0  0
  1  2  1  0  0  0  0
  1 31  1  0  0  0  0
  2  3  1  0  0  0  0
  2 32  1  0  0  0  0
  2 33  1  0  0  0  0
  3  4  1  0  0  0  0
  3 34  1  0  0  0  0
  3 35  1  0  0  0  0
  4  5  1  0  0  0  0
  4 36  1  0  0  0  0
  5  6  2  0  0  0  0
  5  7  1  0  0  0  0
  7  8  2  0  0  0  0
  7 12  1  0  0  0  0
  8  9  1  0  0  0  0
  8 10  1  0  0  0  0
 10 11  2  0  0  0  0
 10 17  1  0  0  0  0
 11 12  1  0  0  0  0
 11 14  1  0  0  0  0
 12 13  1  0  0  0  0
 13 37  1  0  0  0  0
 13 38  1  0  0  0  0
 13 39  1  0  0  0  0
 14 15  2  0  0  0  0
 14 40  1  0  0  0  0
 15 16  1  0  0  0  0
 15 24  1  0  0  0  0
 16 17  2  0  0  0  0
 16 22  1  0  0  0  0
 17 18  1  0  0  0  0
 18 19  2  0  0  0  0
 18 20  1  0  0  0  0
 20 21  1  0  0  0  0
 20 22  1  0  0  0  0
 22 23  2  0  0  0  0
 24 25  2  0  0  0  0
 24 29  1  0  0  0  0
 25 26  1  0  0  0  0
 25 41  1  0  0  0  0
 26 27  2  0  0  0  0
 26 42  1  0  0  0  0
 27 28  1  0  0  0  0
 27 43  1  0  0  0  0
 28 29  2  0  0  0  0
 28 44  1  0  0  0  0
 29 30  1  0  0  0  0
M  END
$$$$
