PAI
 OpenBabel04121316173D

 48 47  0  0  1  0  0  0  0  0999 V2000
   -1.7963   -9.0205    1.6295 O   0  0  0  0  0  0  0  0  0  0  0  0
   -1.6026   -7.7182    1.1320 C   0  0  0  0  0  0  0  0  0  0  0  0
   -0.5604   -6.8880    1.9417 C   0  0  0  0  0  0  0  0  0  0  0  0
   -0.9872   -6.2371    3.2097 N   0  0  0  0  0  0  0  0  0  0  0  0
   -1.2872   -7.1668    4.3691 C   0  0  0  0  0  0  0  0  0  0  0  0
   -2.6589   -8.2302    3.7891 P   0  0  0  0  0  0  0  0  0  0  0  0
   -1.8181   -9.4688    4.1354 O   0  0  0  0  0  0  0  0  0  0  0  0
   -3.5049   -7.8544    5.1441 O   0  0  0  0  0  0  0  0  0  0  0  0
   -3.9557   -9.2355    3.2407 O   0  0  0  0  0  0  0  0  0  0  0  0
    0.1101   -5.3781    3.7131 C   0  0  0  0  0  0  0  0  0  0  0  0
    0.3770   -4.0539    2.9582 C   0  0  2  0  0  0  0  0  0  0  0  0
    1.1291   -4.2432    2.1800 H   0  0  0  0  0  0  0  0  0  0  0  0
    0.8965   -2.9037    3.8778 C   0  0  2  0  0  0  0  0  0  0  0  0
    1.9905   -2.9724    3.9024 H   0  0  0  0  0  0  0  0  0  0  0  0
    0.3717   -2.9354    5.3535 C   0  0  1  0  0  0  0  0  0  0  0  0
    0.7186   -2.0182    5.8388 H   0  0  0  0  0  0  0  0  0  0  0  0
   -1.1944   -2.9274    5.4184 C   0  0  1  0  0  0  0  0  0  0  0  0
   -1.6235   -3.7402    4.8231 H   0  0  0  0  0  0  0  0  0  0  0  0
   -1.7763   -3.1009    6.8434 C   0  0  0  0  0  0  0  0  0  0  0  0
   -1.5646   -4.4327    7.2721 O   0  0  0  0  0  0  0  0  0  0  0  0
   -1.5312   -5.0018    8.7542 P   0  0  0  0  0  0  0  0  0  0  0  0
   -1.7055   -6.4968    8.7978 O   0  0  0  0  0  0  0  0  0  0  0  0
   -0.1674   -4.4713    9.3717 O   0  0  0  0  0  0  0  0  0  0  0  0
   -2.6408   -4.2326    9.5962 O   0  0  0  0  0  0  0  0  0  0  0  0
   -1.6656   -1.7145    4.8209 O   0  0  0  0  0  0  0  0  0  0  0  0
    0.9793   -4.0013    6.1076 O   0  0  0  0  0  0  0  0  0  0  0  0
    0.5936   -1.6414    3.2561 O   0  0  0  0  0  0  0  0  0  0  0  0
   -0.8056   -3.6054    2.2773 O   0  0  0  0  0  0  0  0  0  0  0  0
   -1.1655   -7.9432   -0.1830 O   0  0  0  0  0  0  0  0  0  0  0  0
   -1.0492   -9.2600    2.2194 H   0  0  0  0  0  0  0  0  0  0  0  0
   -2.5747   -7.2001    1.1356 H   0  0  0  0  0  0  0  0  0  0  0  0
   -0.2592   -6.0896    1.2510 H   0  0  0  0  0  0  0  0  0  0  0  0
    0.3349   -7.4892    2.1204 H   0  0  0  0  0  0  0  0  0  0  0  0
   -1.5712   -6.6037    5.2650 H   0  0  0  0  0  0  0  0  0  0  0  0
   -0.3846   -7.7480    4.5975 H   0  0  0  0  0  0  0  0  0  0  0  0
   -3.0445   -8.1360    5.9623 H   0  0  0  0  0  0  0  0  0  0  0  0
   -3.6439   -9.6188    2.3928 H   0  0  0  0  0  0  0  0  0  0  0  0
    1.0463   -5.9343    3.8452 H   0  0  0  0  0  0  0  0  0  0  0  0
   -0.2087   -5.1481    4.7189 H   0  0  0  0  0  0  0  0  0  0  0  0
   -2.8597   -2.9485    6.7855 H   0  0  0  0  0  0  0  0  0  0  0  0
   -1.3649   -2.3484    7.5213 H   0  0  0  0  0  0  0  0  0  0  0  0
    0.4484   -4.2019    8.6636 H   0  0  0  0  0  0  0  0  0  0  0  0
   -3.0338   -4.8557   10.2429 H   0  0  0  0  0  0  0  0  0  0  0  0
   -1.3875   -1.7545    3.8756 H   0  0  0  0  0  0  0  0  0  0  0  0
    1.8964   -4.1265    5.8002 H   0  0  0  0  0  0  0  0  0  0  0  0
    0.7784   -0.9184    3.8801 H   0  0  0  0  0  0  0  0  0  0  0  0
   -1.1746   -4.3695    1.8063 H   0  0  0  0  0  0  0  0  0  0  0  0
   -1.2666   -7.1258   -0.6874 H   0  0  0  0  0  0  0  0  0  0  0  0
  1  2  1  0  0  0  0
  1 30  1  0  0  0  0
  2  3  1  0  0  0  0
  2 29  1  0  0  0  0
  2 31  1  0  0  0  0
  3  4  1  0  0  0  0
  3 32  1  0  0  0  0
  3 33  1  0  0  0  0
  4  5  1  0  0  0  0
  4 10  1  0  0  0  0
  5  6  1  0  0  0  0
  5 34  1  0  0  0  0
  5 35  1  0  0  0  0
  6  7  2  0  0  0  0
  6  8  1  0  0  0  0
  6  9  1  0  0  0  0
  8 36  1  0  0  0  0
  9 37  1  0  0  0  0
 10 38  1  0  0  0  0
 10 39  1  0  0  0  0
 11 28  1  0  0  0  0
 11 12  1  6  0  0  0
 11 10  1  0  0  0  0
 13 15  1  0  0  0  0
 13 27  1  0  0  0  0
 13 14  1  1  0  0  0
 13 11  1  0  0  0  0
 15 16  1  1  0  0  0
 15 17  1  0  0  0  0
 15 26  1  0  0  0  0
 17 18  1  6  0  0  0
 17 19  1  0  0  0  0
 17 25  1  0  0  0  0
 19 20  1  0  0  0  0
 19 40  1  0  0  0  0
 19 41  1  0  0  0  0
 20 21  1  0  0  0  0
 21 22  2  0  0  0  0
 21 23  1  0  0  0  0
 21 24  1  0  0  0  0
 23 42  1  0  0  0  0
 24 43  1  0  0  0  0
 25 44  1  0  0  0  0
 26 45  1  0  0  0  0
 27 46  1  0  0  0  0
 28 47  1  0  0  0  0
 29 48  1  0  0  0  0
M  END
$$$$
