PAJ
 OpenBabel04121316173D

 56 58  0  0  1  0  0  0  0  0999 V2000
    0.7675    1.2780    0.5632 O   0  0  0  0  0  0  0  0  0  0  0  0
    0.2997    0.0249    1.0279 C   0  0  0  0  0  0  0  0  0  0  0  0
    0.7699   -0.2696    2.4676 C   0  0  0  0  0  0  0  0  0  0  0  0
    2.3215   -0.3077    2.5283 C   0  0  2  0  0  0  0  0  0  0  0  0
    2.7442   -0.8107    1.6484 H   0  0  0  0  0  0  0  0  0  0  0  0
    2.7840   -1.0574    3.7800 C   0  0  0  0  0  0  0  0  0  0  0  0
    3.4571   -0.5690    4.6889 O   0  0  0  0  0  0  0  0  0  0  0  0
    2.5132   -2.3925    3.7023 O   0  0  0  0  0  0  0  0  0  0  0  0
    3.0788   -3.3117    5.0118 P   0  0  1  0  0  0  0  0  0  0  0  0
    2.0453   -4.4028    4.7384 O   0  0  0  0  0  0  0  0  0  0  0  0
    4.4790   -3.6395    4.1696 O   0  0  0  0  0  0  0  0  0  0  0  0
    4.6663   -3.0401    2.8759 C   0  0  0  0  0  0  0  0  0  0  0  0
    5.9810   -3.2817    2.1973 C   0  0  1  0  0  0  0  0  0  0  0  0
    5.8471   -3.0491    1.1302 H   0  0  0  0  0  0  0  0  0  0  0  0
    7.0159   -2.3983    2.6945 O   0  0  0  0  0  0  0  0  0  0  0  0
    8.2380   -3.0681    2.3343 C   0  0  2  0  0  0  0  0  0  0  0  0
    8.4692   -2.8218    1.2880 H   0  0  0  0  0  0  0  0  0  0  0  0
    7.9275   -4.5622    2.5051 C   0  0  1  0  0  0  0  0  0  0  0  0
    8.1512   -4.9056    3.5154 H   0  0  0  0  0  0  0  0  0  0  0  0
    6.4280   -4.6930    2.4250 C   0  0  2  0  0  0  0  0  0  0  0  0
    6.0703   -5.0800    3.3850 H   0  0  0  0  0  0  0  0  0  0  0  0
    5.9505   -5.5602    1.4141 O   0  0  0  0  0  0  0  0  0  0  0  0
    8.5971   -5.3799    1.5572 O   0  0  0  0  0  0  0  0  0  0  0  0
    9.3591   -2.5717    3.1195 N   0  0  0  0  0  0  0  0  0  0  0  0
    9.8299   -1.2809    3.1313 C   0  0  0  0  0  0  0  0  0  0  0  0
   10.9487   -1.1662    3.8215 N   0  0  0  0  0  0  0  0  0  0  0  0
   11.2246   -2.4414    4.2700 C   0  0  0  0  0  0  0  0  0  0  0  0
   10.2689   -3.3299    3.8174 C   0  0  0  0  0  0  0  0  0  0  0  0
   10.2600   -4.6579    4.0177 N   0  0  0  0  0  0  0  0  0  0  0  0
   11.2666   -5.0601    4.8066 C   0  0  0  0  0  0  0  0  0  0  0  0
   12.2551   -4.3096    5.3202 N   0  0  0  0  0  0  0  0  0  0  0  0
   12.2647   -2.9842    5.0455 C   0  0  0  0  0  0  0  0  0  0  0  0
   13.3023   -2.2305    5.5378 N   0  0  0  0  0  0  0  0  0  0  0  0
    3.6555   -4.2489    6.3467 O   0  0  0  0  0  0  0  0  0  0  0  0
    2.8613    1.0198    2.5186 O   0  0  0  0  0  0  0  0  0  0  0  0
    0.2564    0.8167    3.4286 C   0  0  0  0  0  0  0  0  0  0  0  0
    0.1418   -1.6204    2.8753 C   0  0  0  0  0  0  0  0  0  0  0  0
    0.4132    1.4189   -0.3297 H   0  0  0  0  0  0  0  0  0  0  0  0
    0.6592   -0.7495    0.3396 H   0  0  0  0  0  0  0  0  0  0  0  0
   -0.7949    0.0331    0.9844 H   0  0  0  0  0  0  0  0  0  0  0  0
    4.6487   -1.9577    2.9737 H   0  0  0  0  0  0  0  0  0  0  0  0
    3.8694   -3.4046    2.2166 H   0  0  0  0  0  0  0  0  0  0  0  0
    6.4499   -6.3885    1.5421 H   0  0  0  0  0  0  0  0  0  0  0  0
    9.5499   -5.2649    1.7356 H   0  0  0  0  0  0  0  0  0  0  0  0
    9.3343   -0.4677    2.6143 H   0  0  0  0  0  0  0  0  0  0  0  0
   11.2799   -6.1176    5.0559 H   0  0  0  0  0  0  0  0  0  0  0  0
   13.9957   -2.6851    6.1090 H   0  0  0  0  0  0  0  0  0  0  0  0
   13.3106   -1.2383    5.3535 H   0  0  0  0  0  0  0  0  0  0  0  0
    2.8742   -4.5243    6.8603 H   0  0  0  0  0  0  0  0  0  0  0  0
    3.8264    0.9750    2.6274 H   0  0  0  0  0  0  0  0  0  0  0  0
   -0.8364    0.8309    3.4516 H   0  0  0  0  0  0  0  0  0  0  0  0
    0.5953    1.8161    3.1359 H   0  0  0  0  0  0  0  0  0  0  0  0
    0.6140    0.6338    4.4487 H   0  0  0  0  0  0  0  0  0  0  0  0
   -0.9457   -1.6178    2.7872 H   0  0  0  0  0  0  0  0  0  0  0  0
    0.3407   -1.8510    3.9288 H   0  0  0  0  0  0  0  0  0  0  0  0
    0.5324   -2.4350    2.2515 H   0  0  0  0  0  0  0  0  0  0  0  0
  1  2  1  0  0  0  0
  1 38  1  0  0  0  0
  2  3  1  0  0  0  0
  2 39  1  0  0  0  0
  2 40  1  0  0  0  0
  3 36  1  0  0  0  0
  3 37  1  0  0  0  0
  4  6  1  0  0  0  0
  4 35  1  0  0  0  0
  4  5  1  6  0  0  0
  4  3  1  0  0  0  0
  6  7  2  0  0  0  0
  6  8  1  0  0  0  0
  9  8  1  1  0  0  0
  9 10  2  0  0  0  0
  9 11  1  0  0  0  0
  9 34  1  0  0  0  0
 11 12  1  0  0  0  0
 12 13  1  0  0  0  0
 12 41  1  0  0  0  0
 12 42  1  0  0  0  0
 13 14  1  6  0  0  0
 13 15  1  0  0  0  0
 13 20  1  0  0  0  0
 15 16  1  0  0  0  0
 16 18  1  0  0  0  0
 16 24  1  0  0  0  0
 16 17  1  6  0  0  0
 18 19  1  1  0  0  0
 18 20  1  0  0  0  0
 18 23  1  0  0  0  0
 20 21  1  1  0  0  0
 20 22  1  0  0  0  0
 22 43  1  0  0  0  0
 23 44  1  0  0  0  0
 24 25  1  0  0  0  0
 24 28  1  0  0  0  0
 25 26  2  0  0  0  0
 25 45  1  0  0  0  0
 26 27  1  0  0  0  0
 27 28  2  0  0  0  0
 27 32  1  0  0  0  0
 28 29  1  0  0  0  0
 29 30  2  0  0  0  0
 30 31  1  0  0  0  0
 30 46  1  0  0  0  0
 31 32  2  0  0  0  0
 32 33  1  0  0  0  0
 33 47  1  0  0  0  0
 33 48  1  0  0  0  0
 34 49  1  0  0  0  0
 35 50  1  0  0  0  0
 36 51  1  0  0  0  0
 36 52  1  0  0  0  0
 36 53  1  0  0  0  0
 37 54  1  0  0  0  0
 37 55  1  0  0  0  0
 37 56  1  0  0  0  0
M  END
$$$$
