PB6
 OpenBabel04121316173D

 38 38  0  0  0  0  0  0  0  0999 V2000
    1.0585    0.0266   -0.0926 C   0  0  0  0  0  0  0  0  0  0  0  0
    2.5851    0.0344   -0.0611 C   0  0  0  0  0  0  0  0  0  0  0  0
    3.0821   -1.1739    0.7004 C   0  0  0  0  0  0  0  0  0  0  0  0
    4.3294   -1.4608    1.0244 C   0  0  0  0  0  0  0  0  0  0  0  0
    4.7436   -2.7149    1.7382 C   0  0  0  0  0  0  0  0  0  0  0  0
    6.0504   -2.8924    2.1531 C   0  0  0  0  0  0  0  0  0  0  0  0
    6.4756   -4.1662    2.5266 C   0  0  0  0  0  0  0  0  0  0  0  0
    5.6907   -5.2713    2.1951 C   0  0  0  0  0  0  0  0  0  0  0  0
    4.4508   -5.0910    1.6818 N   0  3  0  0  0  0  0  0  0  0  0  0
    3.8995   -3.8473    1.7730 C   0  0  0  0  0  0  0  0  0  0  0  0
    3.7916   -6.2507    0.9293 C   0  0  0  0  0  0  0  0  0  0  0  0
    2.6373   -5.9158   -0.0369 C   0  0  0  0  0  0  0  0  0  0  0  0
    3.1796   -4.8852   -1.4486 P   0  0  0  0  0  0  0  0  0  0  0  0
    1.7165   -4.6396   -1.8020 O   0  0  0  0  0  0  0  0  0  0  0  0
    3.7078   -3.6864   -0.5649 O   0  0  0  0  0  0  0  0  0  0  0  0
    3.6922   -3.9110   -2.7831 O   0  0  0  0  0  0  0  0  0  0  0  0
    1.5482   -7.3250   -0.1606 P   0  0  0  0  0  0  0  0  0  0  0  0
    1.5261   -8.1411    1.0873 O   0  0  0  0  0  0  0  0  0  0  0  0
    0.1395   -6.6923   -0.5667 O   0  0  0  0  0  0  0  0  0  0  0  0
    1.9349   -8.2082   -1.4310 O   0  0  0  0  0  0  0  0  0  0  0  0
    0.6698    0.9492   -0.5305 H   0  0  0  0  0  0  0  0  0  0  0  0
    0.6481   -0.0683    0.9201 H   0  0  0  0  0  0  0  0  0  0  0  0
    0.6808   -0.8180   -0.6824 H   0  0  0  0  0  0  0  0  0  0  0  0
    2.9272    0.9371    0.4538 H   0  0  0  0  0  0  0  0  0  0  0  0
    2.9687    0.0491   -1.0880 H   0  0  0  0  0  0  0  0  0  0  0  0
    2.2668   -1.8513    0.9719 H   0  0  0  0  0  0  0  0  0  0  0  0
    5.1396   -0.8230    0.6353 H   0  0  0  0  0  0  0  0  0  0  0  0
    6.7424   -2.0502    2.1945 H   0  0  0  0  0  0  0  0  0  0  0  0
    7.4437   -4.2996    3.0012 H   0  0  0  0  0  0  0  0  0  0  0  0
    6.0451   -6.2917    2.3105 H   0  0  0  0  0  0  0  0  0  0  0  0
    2.8455   -3.7671    1.5468 H   0  0  0  0  0  0  0  0  0  0  0  0
    3.4986   -6.9401    1.7252 H   0  0  0  0  0  0  0  0  0  0  0  0
    4.5920   -6.7259    0.3452 H   0  0  0  0  0  0  0  0  0  0  0  0
    1.9763   -5.2576    0.5405 H   0  0  0  0  0  0  0  0  0  0  0  0
    4.6609   -3.5100   -0.6974 H   0  0  0  0  0  0  0  0  0  0  0  0
    3.1045   -4.0723   -3.5527 H   0  0  0  0  0  0  0  0  0  0  0  0
    0.1760   -5.8033   -0.9964 H   0  0  0  0  0  0  0  0  0  0  0  0
    1.4325   -9.0593   -1.4048 H   0  0  0  0  0  0  0  0  0  0  0  0
  1  2  1  0  0  0  0
  1 21  1  0  0  0  0
  1 22  1  0  0  0  0
  1 23  1  0  0  0  0
  2  3  1  0  0  0  0
  2 24  1  0  0  0  0
  2 25  1  0  0  0  0
  3  4  2  0  0  0  0
  3 26  1  0  0  0  0
  4  5  1  0  0  0  0
  4 27  1  0  0  0  0
  5  6  2  0  0  0  0
  5 10  1  0  0  0  0
  6  7  1  0  0  0  0
  6 28  1  0  0  0  0
  7  8  2  0  0  0  0
  7 29  1  0  0  0  0
  8  9  1  0  0  0  0
  8 30  1  0  0  0  0
  9 10  2  0  0  0  0
  9 11  1  0  0  0  0
 10 31  1  0  0  0  0
 11 12  1  0  0  0  0
 11 32  1  0  0  0  0
 11 33  1  0  0  0  0
 12 13  1  0  0  0  0
 12 17  1  0  0  0  0
 12 34  1  0  0  0  0
 13 14  2  0  0  0  0
 13 15  1  0  0  0  0
 13 16  1  0  0  0  0
 15 35  1  0  0  0  0
 16 36  1  0  0  0  0
 17 18  2  0  0  0  0
 17 19  1  0  0  0  0
 17 20  1  0  0  0  0
 19 37  1  0  0  0  0
 20 38  1  0  0  0  0
M  CHG  1   9   1
M  END
$$$$
