PB9
 OpenBabel04121316173D

 73 77  0  0  1  0  0  0  0  0999 V2000
    0.9313    0.0913   -0.0481 C   0  0  0  0  0  0  0  0  0  0  0  0
    2.3424    0.2207   -0.1140 O   0  0  0  0  0  0  0  0  0  0  0  0
    2.9549   -0.0618    1.0519 C   0  0  0  0  0  0  0  0  0  0  0  0
    2.3898   -0.3770    2.0929 O   0  0  0  0  0  0  0  0  0  0  0  0
    4.3052   -0.0755    0.8713 N   0  0  0  0  0  0  0  0  0  0  0  0
    5.1031    0.8887    0.0996 C   0  0  0  0  0  0  0  0  0  0  0  0
    6.0777    1.7111    0.9858 C   0  0  0  0  0  0  0  0  0  0  0  0
    6.9585    0.7923    1.8115 C   0  0  0  0  0  0  0  0  0  0  0  0
    5.9236   -0.0466    2.4884 C   0  0  0  0  0  0  0  0  0  0  0  0
    5.0362   -0.9342    1.7091 C   0  0  0  0  0  0  0  0  0  0  0  0
    7.9365   -0.1215    1.0848 C   0  0  0  0  0  0  0  0  0  0  0  0
    8.8828   -0.9857    2.0201 N   0  0  0  0  0  0  0  0  0  0  0  0
    8.1300   -2.1231    3.4272 S   0  0  0  0  0  0  0  0  0  0  0  0
    7.0044   -2.8353    2.8445 O   0  0  0  0  0  0  0  0  0  0  0  0
    9.1986   -2.8713    4.0454 O   0  0  0  0  0  0  0  0  0  0  0  0
    7.2832   -1.1923    4.7825 C   0  0  0  0  0  0  0  0  0  0  0  0
    6.0478   -1.7623    5.1812 C   0  0  0  0  0  0  0  0  0  0  0  0
    5.0505   -0.9268    5.6721 C   0  0  0  0  0  0  0  0  0  0  0  0
    5.3017    0.4397    5.7365 C   0  0  0  0  0  0  0  0  0  0  0  0
    6.5386    0.9203    5.2971 C   0  0  0  0  0  0  0  0  0  0  0  0
    7.5463    0.1416    4.8146 N   0  0  0  0  0  0  0  0  0  0  0  0
    9.8192   -1.7933    1.0267 C   0  0  2  0  0  0  0  0  0  0  0  0
    9.2876   -1.8345    0.0502 H   0  0  0  0  0  0  0  0  0  0  0  0
   10.2587   -3.2239    1.4862 C   0  0  0  0  0  0  0  0  0  0  0  0
   10.5679   -3.9795    0.2783 N   0  0  0  0  0  0  0  0  0  0  0  0
    9.9105   -5.2561   -0.0958 C   0  0  0  0  0  0  0  0  0  0  0  0
    8.6811   -5.6884    0.6388 C   0  0  0  0  0  0  0  0  0  0  0  0
    8.2732   -6.9096    1.1302 C   0  0  0  0  0  0  0  0  0  0  0  0
    7.1809   -6.7730    1.9475 N   0  0  0  0  0  0  0  0  0  0  0  0
    6.8634   -5.5014    1.8737 C   0  0  0  0  0  0  0  0  0  0  0  0
    7.6024   -4.8855    0.9075 N   0  0  0  0  0  0  0  0  0  0  0  0
    7.4718   -3.5574    0.4217 C   0  0  0  0  0  0  0  0  0  0  0  0
   11.6298   -3.4187   -0.4168 C   0  0  0  0  0  0  0  0  0  0  0  0
   11.9342   -2.0294   -0.2676 C   0  0  0  0  0  0  0  0  0  0  0  0
   11.1082   -1.0928    0.6261 C   0  0  0  0  0  0  0  0  0  0  0  0
   13.0415   -1.4917   -0.9217 C   0  0  0  0  0  0  0  0  0  0  0  0
   13.8576   -2.3126   -1.7033 C   0  0  0  0  0  0  0  0  0  0  0  0
   13.5611   -3.6706   -1.8482 C   0  0  0  0  0  0  0  0  0  0  0  0
   12.4446   -4.2123   -1.2244 C   0  0  0  0  0  0  0  0  0  0  0  0
   14.9926   -1.7623   -2.3464 C   0  0  0  0  0  0  0  0  0  0  0  0
   15.9318   -1.2927   -2.8857 N   0  0  0  0  0  0  0  0  0  0  0  0
    0.5538    0.2248   -1.0622 H   0  0  0  0  0  0  0  0  0  0  0  0
    0.5342    0.8800    0.5937 H   0  0  0  0  0  0  0  0  0  0  0  0
    0.6219   -0.8985    0.3100 H   0  0  0  0  0  0  0  0  0  0  0  0
    4.4463    1.5707   -0.4298 H   0  0  0  0  0  0  0  0  0  0  0  0
    5.6998    0.3027   -0.6057 H   0  0  0  0  0  0  0  0  0  0  0  0
    5.4979    2.3112    1.7086 H   0  0  0  0  0  0  0  0  0  0  0  0
    6.6951    2.3982    0.4064 H   0  0  0  0  0  0  0  0  0  0  0  0
    7.5528    1.3802    2.5236 H   0  0  0  0  0  0  0  0  0  0  0  0
    5.3364    0.5136    3.2022 H   0  0  0  0  0  0  0  0  0  0  0  0
    6.5147   -0.7485    2.9359 H   0  0  0  0  0  0  0  0  0  0  0  0
    4.4536   -1.5800    2.3827 H   0  0  0  0  0  0  0  0  0  0  0  0
    5.5736   -1.5981    1.0516 H   0  0  0  0  0  0  0  0  0  0  0  0
    8.5774    0.5226    0.4563 H   0  0  0  0  0  0  0  0  0  0  0  0
    7.4232   -0.7629    0.3592 H   0  0  0  0  0  0  0  0  0  0  0  0
    5.8005   -2.8018    4.9581 H   0  0  0  0  0  0  0  0  0  0  0  0
    4.0712   -1.3277    5.9291 H   0  0  0  0  0  0  0  0  0  0  0  0
    4.5217    1.1223    6.0589 H   0  0  0  0  0  0  0  0  0  0  0  0
    6.7046    1.9919    5.2030 H   0  0  0  0  0  0  0  0  0  0  0  0
    9.5479   -3.8079    2.0514 H   0  0  0  0  0  0  0  0  0  0  0  0
   11.1017   -3.1380    2.1804 H   0  0  0  0  0  0  0  0  0  0  0  0
   10.6380   -6.0709   -0.0027 H   0  0  0  0  0  0  0  0  0  0  0  0
    9.6216   -5.2088   -1.1565 H   0  0  0  0  0  0  0  0  0  0  0  0
    8.7364   -7.8714    0.9741 H   0  0  0  0  0  0  0  0  0  0  0  0
    6.1170   -5.0044    2.4844 H   0  0  0  0  0  0  0  0  0  0  0  0
    6.5572   -3.0557    0.6556 H   0  0  0  0  0  0  0  0  0  0  0  0
    7.7893   -3.4162   -0.6050 H   0  0  0  0  0  0  0  0  0  0  0  0
    8.1469   -3.0254    1.0270 H   0  0  0  0  0  0  0  0  0  0  0  0
   10.9021   -0.1626    0.0772 H   0  0  0  0  0  0  0  0  0  0  0  0
   11.6701   -0.8441    1.5285 H   0  0  0  0  0  0  0  0  0  0  0  0
   13.2704   -0.4347   -0.8054 H   0  0  0  0  0  0  0  0  0  0  0  0
   14.2026   -4.3251   -2.4320 H   0  0  0  0  0  0  0  0  0  0  0  0
   12.2554   -5.2772   -1.3266 H   0  0  0  0  0  0  0  0  0  0  0  0
  1  2  1  0  0  0  0
  1 42  1  0  0  0  0
  1 43  1  0  0  0  0
  1 44  1  0  0  0  0
  2  3  1  0  0  0  0
  3  4  2  0  0  0  0
  3  5  1  0  0  0  0
  5  6  1  0  0  0  0
  5 10  1  0  0  0  0
  6  7  1  0  0  0  0
  6 45  1  0  0  0  0
  6 46  1  0  0  0  0
  7  8  1  0  0  0  0
  7 47  1  0  0  0  0
  7 48  1  0  0  0  0
  8  9  1  0  0  0  0
  8 11  1  0  0  0  0
  8 49  1  0  0  0  0
  9 10  1  0  0  0  0
  9 50  1  0  0  0  0
  9 51  1  0  0  0  0
 10 52  1  0  0  0  0
 10 53  1  0  0  0  0
 11 12  1  0  0  0  0
 11 54  1  0  0  0  0
 11 55  1  0  0  0  0
 12 13  1  0  0  0  0
 12 22  1  0  0  0  0
 13 14  2  0  0  0  0
 13 15  2  0  0  0  0
 13 16  1  0  0  0  0
 16 17  2  0  0  0  0
 16 21  1  0  0  0  0
 17 18  1  0  0  0  0
 17 56  1  0  0  0  0
 18 19  2  0  0  0  0
 18 57  1  0  0  0  0
 19 20  1  0  0  0  0
 19 58  1  0  0  0  0
 20 21  2  0  0  0  0
 20 59  1  0  0  0  0
 22 23  1  6  0  0  0
 22 24  1  0  0  0  0
 22 35  1  0  0  0  0
 24 25  1  0  0  0  0
 24 60  1  0  0  0  0
 24 61  1  0  0  0  0
 25 26  1  0  0  0  0
 25 33  1  0  0  0  0
 26 27  1  0  0  0  0
 26 62  1  0  0  0  0
 26 63  1  0  0  0  0
 27 28  2  0  0  0  0
 27 31  1  0  0  0  0
 28 29  1  0  0  0  0
 28 64  1  0  0  0  0
 29 30  2  0  0  0  0
 30 31  1  0  0  0  0
 30 65  1  0  0  0  0
 31 32  1  0  0  0  0
 32 66  1  0  0  0  0
 32 67  1  0  0  0  0
 32 68  1  0  0  0  0
 33 34  2  0  0  0  0
 33 39  1  0  0  0  0
 34 35  1  0  0  0  0
 34 36  1  0  0  0  0
 35 69  1  0  0  0  0
 35 70  1  0  0  0  0
 36 37  2  0  0  0  0
 36 71  1  0  0  0  0
 37 38  1  0  0  0  0
 37 40  1  0  0  0  0
 38 39  2  0  0  0  0
 38 72  1  0  0  0  0
 39 73  1  0  0  0  0
 40 41  3  0  0  0  0
M  END
$$$$
