PBD
 OpenBabel04121316173D

 42 43  0  0  0  0  0  0  0  0999 V2000
    0.9877   -0.0281   -0.0205 C   0  0  0  0  0  0  0  0  0  0  0  0
    2.4198   -0.1116    0.0649 O   0  0  0  0  0  0  0  0  0  0  0  0
    3.0010    0.5060   -1.0125 C   0  0  0  0  0  0  0  0  0  0  0  0
    3.0555    1.8776   -0.9284 C   0  0  0  0  0  0  0  0  0  0  0  0
    3.3137    2.7074   -2.0068 C   0  0  0  0  0  0  0  0  0  0  0  0
    3.8810    2.1018   -3.1213 C   0  0  0  0  0  0  0  0  0  0  0  0
    4.0943    0.6985   -3.1212 C   0  0  0  0  0  0  0  0  0  0  0  0
    3.5938   -0.1183   -2.0844 C   0  0  0  0  0  0  0  0  0  0  0  0
    3.7640   -1.4705   -2.2252 O   0  0  0  0  0  0  0  0  0  0  0  0
    3.2046   -2.2717   -1.1818 C   0  0  0  0  0  0  0  0  0  0  0  0
    2.9796    4.0916   -1.9442 N   0  0  0  0  0  0  0  0  0  0  0  0
    2.2690    4.7468   -0.9253 C   0  0  0  0  0  0  0  0  0  0  0  0
    1.6162    4.1266    0.5200 S   0  0  0  0  0  0  0  0  0  0  0  0
    2.1020    6.1033   -1.1790 N   0  0  0  0  0  0  0  0  0  0  0  0
    1.4782    6.9143   -0.1543 C   0  0  0  0  0  0  0  0  0  0  0  0
    1.2606    8.3467   -0.4952 C   0  0  0  0  0  0  0  0  0  0  0  0
    0.5734    8.9784    0.7101 C   0  0  0  0  0  0  0  0  0  0  0  0
    0.3775   10.3850    0.4897 N   0  0  0  0  0  0  0  0  0  0  0  0
   -0.3223   10.9389   -0.5407 C   0  0  0  0  0  0  0  0  0  0  0  0
   -0.2062   12.2449   -0.5374 N   0  0  0  0  0  0  0  0  0  0  0  0
    0.5914   12.5325    0.5425 C   0  0  0  0  0  0  0  0  0  0  0  0
    0.9674   11.3870    1.1971 C   0  0  0  0  0  0  0  0  0  0  0  0
    0.5785   -0.6422    0.7869 H   0  0  0  0  0  0  0  0  0  0  0  0
    0.6215   -0.4343   -0.9709 H   0  0  0  0  0  0  0  0  0  0  0  0
    0.6161    0.9935    0.1112 H   0  0  0  0  0  0  0  0  0  0  0  0
    2.8846    2.2343    0.0610 H   0  0  0  0  0  0  0  0  0  0  0  0
    4.1917    2.6783   -3.9921 H   0  0  0  0  0  0  0  0  0  0  0  0
    4.6398    0.2377   -3.9403 H   0  0  0  0  0  0  0  0  0  0  0  0
    3.3836   -3.3234   -1.4051 H   0  0  0  0  0  0  0  0  0  0  0  0
    2.1167   -2.1519   -1.1396 H   0  0  0  0  0  0  0  0  0  0  0  0
    3.6752   -2.0609   -0.2126 H   0  0  0  0  0  0  0  0  0  0  0  0
    3.1800    4.6250   -2.7843 H   0  0  0  0  0  0  0  0  0  0  0  0
    2.3901    6.5229   -2.0534 H   0  0  0  0  0  0  0  0  0  0  0  0
    2.1080    6.8509    0.7442 H   0  0  0  0  0  0  0  0  0  0  0  0
    0.4958    6.4776    0.0719 H   0  0  0  0  0  0  0  0  0  0  0  0
    0.6372    8.4172   -1.3923 H   0  0  0  0  0  0  0  0  0  0  0  0
    2.2166    8.8346   -0.7088 H   0  0  0  0  0  0  0  0  0  0  0  0
    1.1850    8.8545    1.6146 H   0  0  0  0  0  0  0  0  0  0  0  0
   -0.4054    8.5273    0.9187 H   0  0  0  0  0  0  0  0  0  0  0  0
   -0.8663   10.3501   -1.2708 H   0  0  0  0  0  0  0  0  0  0  0  0
    0.8614   13.5500    0.7874 H   0  0  0  0  0  0  0  0  0  0  0  0
    1.5932   11.2059    2.0613 H   0  0  0  0  0  0  0  0  0  0  0  0
  1  2  1  0  0  0  0
  1 23  1  0  0  0  0
  1 24  1  0  0  0  0
  1 25  1  0  0  0  0
  2  3  1  0  0  0  0
  3  4  2  0  0  0  0
  3  8  1  0  0  0  0
  4  5  1  0  0  0  0
  4 26  1  0  0  0  0
  5  6  2  0  0  0  0
  5 11  1  0  0  0  0
  6  7  1  0  0  0  0
  6 27  1  0  0  0  0
  7  8  2  0  0  0  0
  7 28  1  0  0  0  0
  8  9  1  0  0  0  0
  9 10  1  0  0  0  0
 10 29  1  0  0  0  0
 10 30  1  0  0  0  0
 10 31  1  0  0  0  0
 11 12  1  0  0  0  0
 11 32  1  0  0  0  0
 12 13  2  0  0  0  0
 12 14  1  0  0  0  0
 14 15  1  0  0  0  0
 14 33  1  0  0  0  0
 15 16  1  0  0  0  0
 15 34  1  0  0  0  0
 15 35  1  0  0  0  0
 16 17  1  0  0  0  0
 16 36  1  0  0  0  0
 16 37  1  0  0  0  0
 17 18  1  0  0  0  0
 17 38  1  0  0  0  0
 17 39  1  0  0  0  0
 18 19  1  0  0  0  0
 18 22  1  0  0  0  0
 19 20  2  0  0  0  0
 19 40  1  0  0  0  0
 20 21  1  0  0  0  0
 21 22  2  0  0  0  0
 21 41  1  0  0  0  0
 22 42  1  0  0  0  0
M  END
$$$$
