PBF
 OpenBabel04121316173D

 35 36  0  0  1  0  0  0  0  0999 V2000
    2.7964    1.3993   -0.2224 N   0  0  0  0  0  0  0  0  0  0  0  0
    2.3010    0.0295    0.0532 C   0  0  2  0  0  0  0  0  0  0  0  0
    1.2118    0.0351   -0.0531 H   0  0  0  0  0  0  0  0  0  0  0  0
    2.5568   -0.4634    1.4966 C   0  0  0  0  0  0  0  0  0  0  0  0
    2.8225   -1.6252    1.8029 O   0  0  0  0  0  0  0  0  0  0  0  0
    2.4368    0.4785    2.4557 O   0  0  0  0  0  0  0  0  0  0  0  0
    2.8940   -0.9413   -0.9967 C   0  0  0  0  0  0  0  0  0  0  0  0
    4.4104   -0.9530   -1.0767 C   0  0  0  0  0  0  0  0  0  0  0  0
    5.0687   -0.9868   -2.3111 C   0  0  0  0  0  0  0  0  0  0  0  0
    6.4521   -1.1856   -2.3565 C   0  0  0  0  0  0  0  0  0  0  0  0
    7.1900   -1.2445   -1.1701 C   0  0  0  0  0  0  0  0  0  0  0  0
    6.5594   -1.0632    0.0482 C   0  0  0  0  0  0  0  0  0  0  0  0
    5.1888   -0.9767    0.0859 C   0  0  0  0  0  0  0  0  0  0  0  0
    8.6267   -1.5729   -1.1903 C   0  0  0  0  0  0  0  0  0  0  0  0
    9.2054   -1.8453   -2.2343 O   0  0  0  0  0  0  0  0  0  0  0  0
    9.3655   -1.6280    0.0827 C   0  0  0  0  0  0  0  0  0  0  0  0
    9.7327   -0.4380    0.7165 C   0  0  0  0  0  0  0  0  0  0  0  0
   10.5524   -0.4980    1.8377 C   0  0  0  0  0  0  0  0  0  0  0  0
   10.8902   -1.7375    2.3844 C   0  0  0  0  0  0  0  0  0  0  0  0
   10.3784   -2.9170    1.8373 C   0  0  0  0  0  0  0  0  0  0  0  0
    9.6493   -2.8698    0.6525 C   0  0  0  0  0  0  0  0  0  0  0  0
    3.8176    1.3982   -0.2920 H   0  0  0  0  0  0  0  0  0  0  0  0
    2.5308    2.1013    0.4517 H   0  0  0  0  0  0  0  0  0  0  0  0
    2.0009    1.2873    2.1401 H   0  0  0  0  0  0  0  0  0  0  0  0
    2.4864   -0.6786   -1.9834 H   0  0  0  0  0  0  0  0  0  0  0  0
    2.5560   -1.9672   -0.7962 H   0  0  0  0  0  0  0  0  0  0  0  0
    4.5162   -0.8810   -3.2425 H   0  0  0  0  0  0  0  0  0  0  0  0
    6.9518   -1.3159   -3.3136 H   0  0  0  0  0  0  0  0  0  0  0  0
    7.0777   -1.0421    1.0014 H   0  0  0  0  0  0  0  0  0  0  0  0
    4.7909   -0.9528    1.0873 H   0  0  0  0  0  0  0  0  0  0  0  0
    9.3899    0.5216    0.3385 H   0  0  0  0  0  0  0  0  0  0  0  0
   10.9363    0.4182    2.2778 H   0  0  0  0  0  0  0  0  0  0  0  0
   11.5551   -1.7844    3.2428 H   0  0  0  0  0  0  0  0  0  0  0  0
   10.5700   -3.8712    2.3210 H   0  0  0  0  0  0  0  0  0  0  0  0
    9.3017   -3.7857    0.1810 H   0  0  0  0  0  0  0  0  0  0  0  0
  1 22  1  0  0  0  0
  1 23  1  0  0  0  0
  2  4  1  0  0  0  0
  2  7  1  0  0  0  0
  2  3  1  6  0  0  0
  2  1  1  0  0  0  0
  4  5  2  0  0  0  0
  4  6  1  0  0  0  0
  6 24  1  0  0  0  0
  7  8  1  0  0  0  0
  7 25  1  0  0  0  0
  7 26  1  0  0  0  0
  8  9  2  0  0  0  0
  8 13  1  0  0  0  0
  9 10  1  0  0  0  0
  9 27  1  0  0  0  0
 10 11  2  0  0  0  0
 10 28  1  0  0  0  0
 11 12  1  0  0  0  0
 11 14  1  0  0  0  0
 12 13  2  0  0  0  0
 12 29  1  0  0  0  0
 13 30  1  0  0  0  0
 14 15  2  0  0  0  0
 14 16  1  0  0  0  0
 16 17  2  0  0  0  0
 16 21  1  0  0  0  0
 17 18  1  0  0  0  0
 17 31  1  0  0  0  0
 18 19  2  0  0  0  0
 18 32  1  0  0  0  0
 19 20  1  0  0  0  0
 19 33  1  0  0  0  0
 20 21  2  0  0  0  0
 20 34  1  0  0  0  0
 21 35  1  0  0  0  0
M  END
$$$$
