PBG
 OpenBabel04121316173D

 30 30  0  0  0  0  0  0  0  0999 V2000
    0.8187    0.2760   -0.1291 N   0  0  0  0  0  0  0  0  0  0  0  0
    2.2639    0.2208   -0.1839 C   0  0  0  0  0  0  0  0  0  0  0  0
    2.8501    1.1876    0.7729 C   0  0  0  0  0  0  0  0  0  0  0  0
    2.6683    2.5373    0.5945 N   0  0  0  0  0  0  0  0  0  0  0  0
    2.1738    2.9513   -0.1842 H   0  0  0  0  0  0  0  0  0  0  0  0
    3.1599    3.2199    1.6672 C   0  0  0  0  0  0  0  0  0  0  0  0
    3.7635    2.3125    2.5192 C   0  0  0  0  0  0  0  0  0  0  0  0
    3.6269    0.9976    1.9064 C   0  0  0  0  0  0  0  0  0  0  0  0
    4.1675   -0.3000    2.4652 C   0  0  0  0  0  0  0  0  0  0  0  0
    4.1963   -1.5698    1.6424 C   0  0  0  0  0  0  0  0  0  0  0  0
    4.2481   -1.6592    0.4361 O   0  0  0  0  0  0  0  0  0  0  0  0
    4.3739   -2.6861    2.4002 O   0  0  0  0  0  0  0  0  0  0  0  0
    4.3978    2.7063    3.8291 C   0  0  0  0  0  0  0  0  0  0  0  0
    4.9884    1.5425    4.6029 C   0  0  0  0  0  0  0  0  0  0  0  0
    5.6193    1.9253    5.8972 C   0  0  0  0  0  0  0  0  0  0  0  0
    5.6781    3.0581    6.3384 O   0  0  0  0  0  0  0  0  0  0  0  0
    6.1397    0.8510    6.5419 O   0  0  0  0  0  0  0  0  0  0  0  0
    0.4773   -0.5284   -0.6510 H   0  0  0  0  0  0  0  0  0  0  0  0
    0.4780    1.1144   -0.5767 H   0  0  0  0  0  0  0  0  0  0  0  0
    2.6868    0.3559   -1.1859 H   0  0  0  0  0  0  0  0  0  0  0  0
    2.4360   -0.8024    0.1049 H   0  0  0  0  0  0  0  0  0  0  0  0
    3.0308    4.2941    1.7407 H   0  0  0  0  0  0  0  0  0  0  0  0
    3.6347   -0.5057    3.4013 H   0  0  0  0  0  0  0  0  0  0  0  0
    5.2316   -0.1496    2.6578 H   0  0  0  0  0  0  0  0  0  0  0  0
    4.7499   -2.5260    3.2820 H   0  0  0  0  0  0  0  0  0  0  0  0
    3.6382    3.2028    4.4482 H   0  0  0  0  0  0  0  0  0  0  0  0
    5.1787    3.4516    3.6316 H   0  0  0  0  0  0  0  0  0  0  0  0
    5.7861    1.0872    4.0113 H   0  0  0  0  0  0  0  0  0  0  0  0
    4.1977    0.8251    4.8431 H   0  0  0  0  0  0  0  0  0  0  0  0
    6.0320   -0.0051    6.0850 H   0  0  0  0  0  0  0  0  0  0  0  0
  1  2  1  0  0  0  0
  1 18  1  0  0  0  0
  1 19  1  0  0  0  0
  2  3  1  0  0  0  0
  2 20  1  0  0  0  0
  2 21  1  0  0  0  0
  3  4  1  0  0  0  0
  3  8  2  0  0  0  0
  4  5  1  0  0  0  0
  4  6  1  0  0  0  0
  6  7  2  0  0  0  0
  6 22  1  0  0  0  0
  7  8  1  0  0  0  0
  7 13  1  0  0  0  0
  8  9  1  0  0  0  0
  9 10  1  0  0  0  0
  9 23  1  0  0  0  0
  9 24  1  0  0  0  0
 10 11  2  0  0  0  0
 10 12  1  0  0  0  0
 12 25  1  0  0  0  0
 13 14  1  0  0  0  0
 13 26  1  0  0  0  0
 13 27  1  0  0  0  0
 14 15  1  0  0  0  0
 14 28  1  0  0  0  0
 14 29  1  0  0  0  0
 15 16  2  0  0  0  0
 15 17  1  0  0  0  0
 17 30  1  0  0  0  0
M  END
$$$$
