PC0
 OpenBabel04121316173D

 42 43  0  0  0  0  0  0  0  0999 V2000
    0.8640   -0.0064   -0.0110 C   0  0  0  0  0  0  0  0  0  0  0  0
    2.3748    0.0061   -0.0461 C   0  0  0  0  0  0  0  0  0  0  0  0
    2.8161    1.0400   -0.9433 O   0  0  0  0  0  0  0  0  0  0  0  0
    4.1797    1.1688   -1.0215 C   0  0  0  0  0  0  0  0  0  0  0  0
    4.7129    2.4336   -1.1479 C   0  0  0  0  0  0  0  0  0  0  0  0
    6.0934    2.5676   -1.0692 C   0  0  0  0  0  0  0  0  0  0  0  0
    6.9651    1.5251   -1.0881 N   0  0  0  0  0  0  0  0  0  0  0  0
    6.4338    0.2844   -1.1303 C   0  0  0  0  0  0  0  0  0  0  0  0
    5.0517    0.0870   -1.0115 C   0  0  0  0  0  0  0  0  0  0  0  0
    4.5431   -1.1366   -0.9214 F   0  0  0  0  0  0  0  0  0  0  0  0
    7.3903   -0.8704   -1.3939 C   0  0  0  0  0  0  0  0  0  0  0  0
    6.6565   -2.1952   -1.4444 C   0  0  0  0  0  0  0  0  0  0  0  0
    7.3708   -3.4211   -1.6875 N   0  0  0  0  0  0  0  0  0  0  0  0
    6.6515   -4.6240   -1.6721 C   0  0  0  0  0  0  0  0  0  0  0  0
    4.9832   -4.6723   -1.3600 S   0  0  0  0  0  0  0  0  0  0  0  0
    7.4845   -5.7146   -1.8577 N   0  0  0  0  0  0  0  0  0  0  0  0
    7.0376   -7.0424   -1.9751 C   0  0  0  0  0  0  0  0  0  0  0  0
    7.8908   -8.0823   -1.6482 C   0  0  0  0  0  0  0  0  0  0  0  0
    7.4392   -9.3898   -1.8425 C   0  0  0  0  0  0  0  0  0  0  0  0
    6.1474   -9.6195   -2.3181 C   0  0  0  0  0  0  0  0  0  0  0  0
    5.3437   -8.5195   -2.5312 C   0  0  0  0  0  0  0  0  0  0  0  0
    5.7900   -7.2637   -2.4168 N   0  0  0  0  0  0  0  0  0  0  0  0
    5.6300  -10.9810   -2.6333 C   0  0  0  0  0  0  0  0  0  0  0  0
    0.5076   -0.7838    0.6720 H   0  0  0  0  0  0  0  0  0  0  0  0
    0.4744   -0.2180   -1.0122 H   0  0  0  0  0  0  0  0  0  0  0  0
    0.4738    0.9636    0.3022 H   0  0  0  0  0  0  0  0  0  0  0  0
    2.6547   -0.9933   -0.3847 H   0  0  0  0  0  0  0  0  0  0  0  0
    2.7810    0.1850    0.9574 H   0  0  0  0  0  0  0  0  0  0  0  0
    4.0738    3.3037   -1.2550 H   0  0  0  0  0  0  0  0  0  0  0  0
    6.5501    3.5463   -0.9692 H   0  0  0  0  0  0  0  0  0  0  0  0
    8.1595   -0.8968   -0.6164 H   0  0  0  0  0  0  0  0  0  0  0  0
    7.8848   -0.6998   -2.3576 H   0  0  0  0  0  0  0  0  0  0  0  0
    5.8974   -2.1420   -2.2382 H   0  0  0  0  0  0  0  0  0  0  0  0
    6.1875   -2.3423   -0.4635 H   0  0  0  0  0  0  0  0  0  0  0  0
    8.3634   -3.3933   -1.8661 H   0  0  0  0  0  0  0  0  0  0  0  0
    8.4790   -5.5666   -1.8202 H   0  0  0  0  0  0  0  0  0  0  0  0
    8.8665   -7.9019   -1.2140 H   0  0  0  0  0  0  0  0  0  0  0  0
    8.0967  -10.2245   -1.6185 H   0  0  0  0  0  0  0  0  0  0  0  0
    4.2984   -8.5997   -2.8134 H   0  0  0  0  0  0  0  0  0  0  0  0
    6.3985  -11.7407   -2.4706 H   0  0  0  0  0  0  0  0  0  0  0  0
    5.3389  -11.0210   -3.6893 H   0  0  0  0  0  0  0  0  0  0  0  0
    4.7613  -11.2184   -2.0129 H   0  0  0  0  0  0  0  0  0  0  0  0
  1  2  1  0  0  0  0
  1 24  1  0  0  0  0
  1 25  1  0  0  0  0
  1 26  1  0  0  0  0
  2  3  1  0  0  0  0
  2 27  1  0  0  0  0
  2 28  1  0  0  0  0
  3  4  1  0  0  0  0
  4  5  2  0  0  0  0
  4  9  1  0  0  0  0
  5  6  1  0  0  0  0
  5 29  1  0  0  0  0
  6  7  2  0  0  0  0
  6 30  1  0  0  0  0
  7  8  1  0  0  0  0
  8  9  2  0  0  0  0
  8 11  1  0  0  0  0
  9 10  1  0  0  0  0
 11 12  1  0  0  0  0
 11 31  1  0  0  0  0
 11 32  1  0  0  0  0
 12 13  1  0  0  0  0
 12 33  1  0  0  0  0
 12 34  1  0  0  0  0
 13 14  1  0  0  0  0
 13 35  1  0  0  0  0
 14 15  2  0  0  0  0
 14 16  1  0  0  0  0
 16 17  1  0  0  0  0
 16 36  1  0  0  0  0
 17 18  2  0  0  0  0
 17 22  1  0  0  0  0
 18 19  1  0  0  0  0
 18 37  1  0  0  0  0
 19 20  2  0  0  0  0
 19 38  1  0  0  0  0
 20 21  1  0  0  0  0
 20 23  1  0  0  0  0
 21 22  2  0  0  0  0
 21 39  1  0  0  0  0
 23 40  1  0  0  0  0
 23 41  1  0  0  0  0
 23 42  1  0  0  0  0
M  END
$$$$
