PCA
 OpenBabel04121316173D

 16 16  0  0  1  0  0  0  0  0999 V2000
    1.1477   -0.2179    0.1622 O   0  0  0  0  0  0  0  0  0  0  0  0
    2.3596   -0.1354    0.0481 C   0  0  0  0  0  0  0  0  0  0  0  0
    3.1898    1.1127    0.0681 C   0  0  0  0  0  0  0  0  0  0  0  0
    4.3447    0.7193   -0.8413 C   0  0  0  0  0  0  0  0  0  0  0  0
    4.5131   -0.7790   -0.5918 C   0  0  2  0  0  0  0  0  0  0  0  0
    4.6860   -1.3199   -1.5288 H   0  0  0  0  0  0  0  0  0  0  0  0
    3.2274   -1.2083   -0.0720 N   0  0  0  0  0  0  0  0  0  0  0  0
    5.7102   -1.0519    0.3213 C   0  0  0  0  0  0  0  0  0  0  0  0
    6.8317   -0.6124    0.1082 O   0  0  0  0  0  0  0  0  0  0  0  0
    5.4442   -1.8713    1.3635 O   0  0  0  0  0  0  0  0  0  0  0  0
    3.5297    1.2707    1.0969 H   0  0  0  0  0  0  0  0  0  0  0  0
    2.6509    1.9916   -0.2908 H   0  0  0  0  0  0  0  0  0  0  0  0
    5.2408    1.3122   -0.6347 H   0  0  0  0  0  0  0  0  0  0  0  0
    4.0642    0.8958   -1.8878 H   0  0  0  0  0  0  0  0  0  0  0  0
    2.8389   -2.1422   -0.1561 H   0  0  0  0  0  0  0  0  0  0  0  0
    4.5019   -2.1284    1.4033 H   0  0  0  0  0  0  0  0  0  0  0  0
  1  2  2  0  0  0  0
  2  3  1  0  0  0  0
  2  7  1  0  0  0  0
  3  4  1  0  0  0  0
  3 11  1  0  0  0  0
  3 12  1  0  0  0  0
  4  5  1  0  0  0  0
  4 13  1  0  0  0  0
  4 14  1  0  0  0  0
  5  7  1  0  0  0  0
  5  8  1  0  0  0  0
  5  6  1  6  0  0  0
  7 15  1  0  0  0  0
  8  9  2  0  0  0  0
  8 10  1  0  0  0  0
 10 16  1  0  0  0  0
M  END
$$$$
