PCF
 OpenBabel04121316173D

130129  0  0  1  0  0  0  0  0999 V2000
    1.0334   -0.0204   -0.0659 C   0  0  0  0  0  0  0  0  0  0  0  0
    2.5492   -0.0241   -0.0720 C   0  0  0  0  0  0  0  0  0  0  0  0
    3.0722   -0.7691   -1.2915 C   0  0  0  0  0  0  0  0  0  0  0  0
    4.5919   -0.7742   -1.3000 C   0  0  0  0  0  0  0  0  0  0  0  0
    5.1045   -1.5197   -2.5204 C   0  0  0  0  0  0  0  0  0  0  0  0
    6.6224   -1.5235   -2.5266 C   0  0  0  0  0  0  0  0  0  0  0  0
    7.1335   -2.2683   -3.7458 C   0  0  0  0  0  0  0  0  0  0  0  0
    8.6506   -2.2711   -3.7503 C   0  0  0  0  0  0  0  0  0  0  0  0
    9.1610   -3.0156   -4.9692 C   0  0  0  0  0  0  0  0  0  0  0  0
   10.6779   -3.0187   -4.9743 C   0  0  0  0  0  0  0  0  0  0  0  0
   11.1848   -3.7640   -6.1946 C   0  0  0  0  0  0  0  0  0  0  0  0
   12.7002   -3.7707   -6.2053 C   0  0  0  0  0  0  0  0  0  0  0  0
   13.2069   -4.5187   -7.4282 C   0  0  0  0  0  0  0  0  0  0  0  0
   14.7203   -4.5145   -7.4154 C   0  0  0  0  0  0  0  0  0  0  0  0
   15.3095   -5.2514   -8.6023 C   0  0  0  0  0  0  0  0  0  0  0  0
   16.8126   -5.2010   -8.4726 C   0  0  0  0  0  0  0  0  0  0  0  0
   17.4441   -4.5616   -7.6429 O   0  0  0  0  0  0  0  0  0  0  0  0
   17.3769   -5.9380   -9.4434 O   0  0  0  0  0  0  0  0  0  0  0  0
   18.8002   -5.8965   -9.5445 C   0  0  0  0  0  0  0  0  0  0  0  0
   19.2329   -6.6663  -10.8036 C   0  0  1  0  0  0  0  0  0  0  0  0
   18.8608   -7.6955  -10.8177 H   0  0  0  0  0  0  0  0  0  0  0  0
   18.6989   -5.9908  -11.9807 O   0  0  0  0  0  0  0  0  0  0  0  0
   17.3629   -6.1091  -12.2111 C   0  0  0  0  0  0  0  0  0  0  0  0
   16.5705   -6.7965  -11.5675 O   0  0  0  0  0  0  0  0  0  0  0  0
   16.9304   -5.2870  -13.3845 C   0  0  0  0  0  0  0  0  0  0  0  0
   15.4253   -5.2294  -13.4580 C   0  0  0  0  0  0  0  0  0  0  0  0
   14.9692   -4.5202  -14.7154 C   0  0  0  0  0  0  0  0  0  0  0  0
   13.4541   -4.5105  -14.7235 C   0  0  0  0  0  0  0  0  0  0  0  0
   12.9482   -3.8279  -15.9745 C   0  0  0  0  0  0  0  0  0  0  0  0
   11.4326   -3.8283  -15.9740 C   0  0  0  0  0  0  0  0  0  0  0  0
   10.9229   -3.1457  -17.2273 C   0  0  0  0  0  0  0  0  0  0  0  0
    9.4069   -3.1440  -17.2306 C   0  0  0  0  0  0  0  0  0  0  0  0
    8.8967   -2.4607  -18.4848 C   0  0  0  0  0  0  0  0  0  0  0  0
    7.3796   -2.4582  -18.4895 C   0  0  0  0  0  0  0  0  0  0  0  0
    6.8670   -1.7748  -19.7439 C   0  0  0  0  0  0  0  0  0  0  0  0
    5.3479   -1.7716  -19.7497 C   0  0  0  0  0  0  0  0  0  0  0  0
    4.8320   -1.0878  -21.0050 C   0  0  0  0  0  0  0  0  0  0  0  0
    3.3104   -1.0798  -21.0196 C   0  0  0  0  0  0  0  0  0  0  0  0
    2.7984   -0.3972  -22.2725 C   0  0  0  0  0  0  0  0  0  0  0  0
   20.7715   -6.6722  -10.8315 C   0  0  0  0  0  0  0  0  0  0  0  0
   21.2829   -7.3123  -12.0029 O   0  0  0  0  0  0  0  0  0  0  0  0
   23.0129   -7.3123  -12.0029 P   0  0  1  0  0  0  0  0  0  0  0  0
   22.8604   -8.6835  -12.6792 O   0  0  0  0  0  0  0  0  0  0  0  0
   23.0141   -6.1645  -13.2188 O   0  0  0  0  0  0  0  0  0  0  0  0
   21.7753   -5.7637  -13.6977 C   0  0  0  0  0  0  0  0  0  0  0  0
   21.7919   -4.7078  -14.7597 C   0  0  0  0  0  0  0  0  0  0  0  0
   20.3253   -4.3199  -15.1070 N   0  3  0  0  0  0  0  0  0  0  0  0
   19.5733   -5.5633  -15.6009 C   0  0  0  0  0  0  0  0  0  0  0  0
   19.6568   -3.6804  -13.9098 C   0  0  0  0  0  0  0  0  0  0  0  0
   20.3306   -3.2859  -16.1959 C   0  0  0  0  0  0  0  0  0  0  0  0
   24.7429   -7.3123  -12.0029 O   0  5  0  0  0  0  0  0  0  0  0  0
    0.6594    0.5150    0.8105 H   0  0  0  0  0  0  0  0  0  0  0  0
    0.6446   -1.0433   -0.0388 H   0  0  0  0  0  0  0  0  0  0  0  0
    0.6446    0.4707   -0.9637 H   0  0  0  0  0  0  0  0  0  0  0  0
    2.9204   -0.4997    0.8434 H   0  0  0  0  0  0  0  0  0  0  0  0
    2.9204    1.0074   -0.0773 H   0  0  0  0  0  0  0  0  0  0  0  0
    2.6996   -0.2945   -2.2078 H   0  0  0  0  0  0  0  0  0  0  0  0
    2.6996   -1.8009   -1.2875 H   0  0  0  0  0  0  0  0  0  0  0  0
    4.9697   -1.2518   -0.3877 H   0  0  0  0  0  0  0  0  0  0  0  0
    4.9697    0.2555   -1.3085 H   0  0  0  0  0  0  0  0  0  0  0  0
    4.7298   -1.0437   -3.4350 H   0  0  0  0  0  0  0  0  0  0  0  0
    4.7298   -2.5508   -2.5143 H   0  0  0  0  0  0  0  0  0  0  0  0
    6.9990   -2.0005   -1.6133 H   0  0  0  0  0  0  0  0  0  0  0  0
    6.9990   -0.4932   -2.5341 H   0  0  0  0  0  0  0  0  0  0  0  0
    6.7582   -1.7918   -4.6599 H   0  0  0  0  0  0  0  0  0  0  0  0
    6.7582   -3.2991   -3.7392 H   0  0  0  0  0  0  0  0  0  0  0  0
    9.0265   -2.7478   -2.8367 H   0  0  0  0  0  0  0  0  0  0  0  0
    9.0265   -1.2405   -3.7574 H   0  0  0  0  0  0  0  0  0  0  0  0
    8.7853   -2.5390   -5.8831 H   0  0  0  0  0  0  0  0  0  0  0  0
    8.7853   -4.0463   -4.9623 H   0  0  0  0  0  0  0  0  0  0  0  0
   11.0541   -3.4955   -4.0607 H   0  0  0  0  0  0  0  0  0  0  0  0
   11.0541   -1.9882   -4.9814 H   0  0  0  0  0  0  0  0  0  0  0  0
   10.8084   -3.2864   -7.1072 H   0  0  0  0  0  0  0  0  0  0  0  0
   10.8084   -4.7941   -6.1861 H   0  0  0  0  0  0  0  0  0  0  0  0
   13.0781   -4.2460   -5.2910 H   0  0  0  0  0  0  0  0  0  0  0  0
   13.0785   -2.7404   -6.2113 H   0  0  0  0  0  0  0  0  0  0  0  0
   12.8348   -4.0396   -8.3415 H   0  0  0  0  0  0  0  0  0  0  0  0
   12.8322   -5.5489   -7.4190 H   0  0  0  0  0  0  0  0  0  0  0  0
   15.0815   -4.9787   -6.4889 H   0  0  0  0  0  0  0  0  0  0  0  0
   15.0830   -3.4785   -7.4149 H   0  0  0  0  0  0  0  0  0  0  0  0
   14.9996   -4.7748   -9.5409 H   0  0  0  0  0  0  0  0  0  0  0  0
   14.9707   -6.2942   -8.6112 H   0  0  0  0  0  0  0  0  0  0  0  0
   19.2283   -6.3549   -8.6496 H   0  0  0  0  0  0  0  0  0  0  0  0
   19.1198   -4.8482   -9.6246 H   0  0  0  0  0  0  0  0  0  0  0  0
   17.3221   -5.7500  -14.2886 H   0  0  0  0  0  0  0  0  0  0  0  0
   17.2678   -4.2586  -13.2725 H   0  0  0  0  0  0  0  0  0  0  0  0
   15.0479   -4.7030  -12.5727 H   0  0  0  0  0  0  0  0  0  0  0  0
   15.0171   -6.2455  -13.4381 H   0  0  0  0  0  0  0  0  0  0  0  0
   15.3504   -5.0380  -15.6045 H   0  0  0  0  0  0  0  0  0  0  0  0
   15.3571   -3.4943  -14.7452 H   0  0  0  0  0  0  0  0  0  0  0  0
   13.0807   -3.9901  -13.8324 H   0  0  0  0  0  0  0  0  0  0  0  0
   13.0760   -5.5397  -14.6781 H   0  0  0  0  0  0  0  0  0  0  0  0
   13.3241   -4.3505  -16.8624 H   0  0  0  0  0  0  0  0  0  0  0  0
   13.3247   -2.7988  -16.0164 H   0  0  0  0  0  0  0  0  0  0  0  0
   11.0582   -3.3078  -15.0838 H   0  0  0  0  0  0  0  0  0  0  0  0
   11.0582   -4.8586  -15.9288 H   0  0  0  0  0  0  0  0  0  0  0  0
   11.2993   -3.6674  -18.1158 H   0  0  0  0  0  0  0  0  0  0  0  0
   11.2993   -2.1162  -17.2709 H   0  0  0  0  0  0  0  0  0  0  0  0
    9.0319   -2.6229  -16.3411 H   0  0  0  0  0  0  0  0  0  0  0  0
    9.0319   -4.1739  -17.1861 H   0  0  0  0  0  0  0  0  0  0  0  0
    9.2731   -2.9822  -19.3735 H   0  0  0  0  0  0  0  0  0  0  0  0
    9.2731   -1.4312  -18.5285 H   0  0  0  0  0  0  0  0  0  0  0  0
    7.0050   -1.9372  -17.5997 H   0  0  0  0  0  0  0  0  0  0  0  0
    7.0050   -3.4882  -18.4447 H   0  0  0  0  0  0  0  0  0  0  0  0
    7.2441   -2.2963  -20.6324 H   0  0  0  0  0  0  0  0  0  0  0  0
    7.2441   -0.7455  -19.7875 H   0  0  0  0  0  0  0  0  0  0  0  0
    4.9746   -1.2510  -18.8594 H   0  0  0  0  0  0  0  0  0  0  0  0
    4.9746   -2.8020  -19.7044 H   0  0  0  0  0  0  0  0  0  0  0  0
    5.2118   -1.6096  -21.8921 H   0  0  0  0  0  0  0  0  0  0  0  0
    5.2118   -0.0594  -21.0476 H   0  0  0  0  0  0  0  0  0  0  0  0
    2.9314   -0.5568  -20.1338 H   0  0  0  0  0  0  0  0  0  0  0  0
    2.9314   -2.1077  -20.9786 H   0  0  0  0  0  0  0  0  0  0  0  0
    3.1498    0.6385  -22.3193 H   0  0  0  0  0  0  0  0  0  0  0  0
    1.7055   -0.3923  -22.2815 H   0  0  0  0  0  0  0  0  0  0  0  0
    3.1498   -0.9195  -23.1681 H   0  0  0  0  0  0  0  0  0  0  0  0
   21.1690   -7.1847   -9.9491 H   0  0  0  0  0  0  0  0  0  0  0  0
   21.1522   -5.6427  -10.8090 H   0  0  0  0  0  0  0  0  0  0  0  0
   21.2754   -5.3054  -12.8515 H   0  0  0  0  0  0  0  0  0  0  0  0
   21.2516   -6.6481  -14.0632 H   0  0  0  0  0  0  0  0  0  0  0  0
   22.2789   -5.0604  -15.6709 H   0  0  0  0  0  0  0  0  0  0  0  0
   22.2916   -3.8026  -14.3986 H   0  0  0  0  0  0  0  0  0  0  0  0
   19.4699   -6.2942  -14.7933 H   0  0  0  0  0  0  0  0  0  0  0  0
   20.1300   -5.9930  -16.4378 H   0  0  0  0  0  0  0  0  0  0  0  0
   18.5780   -5.2563  -15.9273 H   0  0  0  0  0  0  0  0  0  0  0  0
   19.5670   -4.4043  -13.1155 H   0  0  0  0  0  0  0  0  0  0  0  0
   18.6765   -3.3292  -14.2275 H   0  0  0  0  0  0  0  0  0  0  0  0
   20.2533   -2.8409  -13.5473 H   0  0  0  0  0  0  0  0  0  0  0  0
   20.8416   -3.7023  -17.0630 H   0  0  0  0  0  0  0  0  0  0  0  0
   20.8424   -2.3997  -15.8119 H   0  0  0  0  0  0  0  0  0  0  0  0
   19.2882   -3.0470  -16.4315 H   0  0  0  0  0  0  0  0  0  0  0  0
  1  2  1  0  0  0  0
  1 52  1  0  0  0  0
  1 53  1  0  0  0  0
  1 54  1  0  0  0  0
  2  3  1  0  0  0  0
  2 55  1  0  0  0  0
  2 56  1  0  0  0  0
  3  4  1  0  0  0  0
  3 57  1  0  0  0  0
  3 58  1  0  0  0  0
  4  5  1  0  0  0  0
  4 59  1  0  0  0  0
  4 60  1  0  0  0  0
  5  6  1  0  0  0  0
  5 61  1  0  0  0  0
  5 62  1  0  0  0  0
  6  7  1  0  0  0  0
  6 63  1  0  0  0  0
  6 64  1  0  0  0  0
  7  8  1  0  0  0  0
  7 65  1  0  0  0  0
  7 66  1  0  0  0  0
  8  9  1  0  0  0  0
  8 67  1  0  0  0  0
  8 68  1  0  0  0  0
  9 10  1  0  0  0  0
  9 69  1  0  0  0  0
  9 70  1  0  0  0  0
 10 11  1  0  0  0  0
 10 71  1  0  0  0  0
 10 72  1  0  0  0  0
 11 12  1  0  0  0  0
 11 73  1  0  0  0  0
 11 74  1  0  0  0  0
 12 13  1  0  0  0  0
 12 75  1  0  0  0  0
 12 76  1  0  0  0  0
 13 14  1  0  0  0  0
 13 77  1  0  0  0  0
 13 78  1  0  0  0  0
 14 15  1  0  0  0  0
 14 79  1  0  0  0  0
 14 80  1  0  0  0  0
 15 16  1  0  0  0  0
 15 81  1  0  0  0  0
 15 82  1  0  0  0  0
 16 17  2  0  0  0  0
 16 18  1  0  0  0  0
 18 19  1  0  0  0  0
 19 20  1  0  0  0  0
 19 83  1  0  0  0  0
 19 84  1  0  0  0  0
 20 21  1  1  0  0  0
 20 22  1  0  0  0  0
 20 40  1  0  0  0  0
 22 23  1  0  0  0  0
 23 24  2  0  0  0  0
 23 25  1  0  0  0  0
 25 26  1  0  0  0  0
 25 85  1  0  0  0  0
 25 86  1  0  0  0  0
 26 27  1  0  0  0  0
 26 87  1  0  0  0  0
 26 88  1  0  0  0  0
 27 28  1  0  0  0  0
 27 89  1  0  0  0  0
 27 90  1  0  0  0  0
 28 29  1  0  0  0  0
 28 91  1  0  0  0  0
 28 92  1  0  0  0  0
 29 30  1  0  0  0  0
 29 93  1  0  0  0  0
 29 94  1  0  0  0  0
 30 31  1  0  0  0  0
 30 95  1  0  0  0  0
 30 96  1  0  0  0  0
 31 32  1  0  0  0  0
 31 97  1  0  0  0  0
 31 98  1  0  0  0  0
 32 33  1  0  0  0  0
 32 99  1  0  0  0  0
 32100  1  0  0  0  0
 33 34  1  0  0  0  0
 33101  1  0  0  0  0
 33102  1  0  0  0  0
 34 35  1  0  0  0  0
 34103  1  0  0  0  0
 34104  1  0  0  0  0
 35 36  1  0  0  0  0
 35105  1  0  0  0  0
 35106  1  0  0  0  0
 36 37  1  0  0  0  0
 36107  1  0  0  0  0
 36108  1  0  0  0  0
 37 38  1  0  0  0  0
 37109  1  0  0  0  0
 37110  1  0  0  0  0
 38 39  1  0  0  0  0
 38111  1  0  0  0  0
 38112  1  0  0  0  0
 39113  1  0  0  0  0
 39114  1  0  0  0  0
 39115  1  0  0  0  0
 40 41  1  0  0  0  0
 40116  1  0  0  0  0
 40117  1  0  0  0  0
 42 41  1  1  0  0  0
 42 43  2  0  0  0  0
 42 44  1  0  0  0  0
 42 51  1  0  0  0  0
 44 45  1  0  0  0  0
 45 46  1  0  0  0  0
 45118  1  0  0  0  0
 45119  1  0  0  0  0
 46 47  1  0  0  0  0
 46120  1  0  0  0  0
 46121  1  0  0  0  0
 47 48  1  0  0  0  0
 47 49  1  0  0  0  0
 47 50  1  0  0  0  0
 48122  1  0  0  0  0
 48123  1  0  0  0  0
 48124  1  0  0  0  0
 49125  1  0  0  0  0
 49126  1  0  0  0  0
 49127  1  0  0  0  0
 50128  1  0  0  0  0
 50129  1  0  0  0  0
 50130  1  0  0  0  0
M  CHG  2  47   1  51  -1
M  END
$$$$
