PCO
 OpenBabel04121316173D

 38 37  0  0  1  0  0  0  0  0999 V2000
    0.8737   -0.0302   -0.1021 S   0  0  0  0  0  0  0  0  0  0  0  0
    2.6065   -0.0212   -0.0919 C   0  0  0  0  0  0  0  0  0  0  0  0
    3.3151    0.7321    0.7570 C   0  0  0  0  0  0  0  0  0  0  0  0
    2.7394    1.5604    1.6903 N   0  0  0  0  0  0  0  0  0  0  0  0
    3.4957    2.3272    2.5495 C   0  0  0  0  0  0  0  0  0  0  0  0
    4.7199    2.3212    2.5494 O   0  0  0  0  0  0  0  0  0  0  0  0
    2.6840    3.1834    3.4946 C   0  0  0  0  0  0  0  0  0  0  0  0
    3.6602    3.9889    4.3404 C   0  0  0  0  0  0  0  0  0  0  0  0
    2.9965    4.9050    5.2315 N   0  0  0  0  0  0  0  0  0  0  0  0
    3.7227    5.6528    6.1368 C   0  0  0  0  0  0  0  0  0  0  0  0
    4.9492    5.7246    6.1134 O   0  0  0  0  0  0  0  0  0  0  0  0
    2.8708    6.4427    7.1571 C   0  0  1  0  0  0  0  0  0  0  0  0
    2.2380    7.1293    6.5823 H   0  0  0  0  0  0  0  0  0  0  0  0
    1.9919    5.5413    8.0779 C   0  0  0  0  0  0  0  0  0  0  0  0
    2.8679    4.5508    8.8813 C   0  0  0  0  0  0  0  0  0  0  0  0
    3.6009    3.6439    8.0688 O   0  0  0  0  0  0  0  0  0  0  0  0
    1.2385    6.4440    9.0826 C   0  0  0  0  0  0  0  0  0  0  0  0
    0.9070    4.7691    7.2975 C   0  0  0  0  0  0  0  0  0  0  0  0
    3.7010    7.2772    7.9733 O   0  0  0  0  0  0  0  0  0  0  0  0
    0.6624   -0.9093   -1.0916 H   0  0  0  0  0  0  0  0  0  0  0  0
    3.1382   -0.6505   -0.8013 H   0  0  0  0  0  0  0  0  0  0  0  0
    4.4050    0.7163    0.7381 H   0  0  0  0  0  0  0  0  0  0  0  0
    1.7250    1.5880    1.7204 H   0  0  0  0  0  0  0  0  0  0  0  0
    2.0496    2.5470    4.1246 H   0  0  0  0  0  0  0  0  0  0  0  0
    2.0277    3.8507    2.9234 H   0  0  0  0  0  0  0  0  0  0  0  0
    4.3337    4.5789    3.7110 H   0  0  0  0  0  0  0  0  0  0  0  0
    4.2760    3.3167    4.9522 H   0  0  0  0  0  0  0  0  0  0  0  0
    2.0052    5.0625    5.1233 H   0  0  0  0  0  0  0  0  0  0  0  0
    2.2475    3.9487    9.5527 H   0  0  0  0  0  0  0  0  0  0  0  0
    3.5943    5.0876    9.5004 H   0  0  0  0  0  0  0  0  0  0  0  0
    3.0079    3.2053    7.4406 H   0  0  0  0  0  0  0  0  0  0  0  0
    1.9223    7.0055    9.7269 H   0  0  0  0  0  0  0  0  0  0  0  0
    0.5905    5.8476    9.7347 H   0  0  0  0  0  0  0  0  0  0  0  0
    0.6035    7.1661    8.5555 H   0  0  0  0  0  0  0  0  0  0  0  0
    1.3103    3.9871    6.6527 H   0  0  0  0  0  0  0  0  0  0  0  0
    0.3129    5.4507    6.6779 H   0  0  0  0  0  0  0  0  0  0  0  0
    0.2271    4.2448    7.9759 H   0  0  0  0  0  0  0  0  0  0  0  0
    4.4205    7.6037    7.3989 H   0  0  0  0  0  0  0  0  0  0  0  0
  1  2  1  0  0  0  0
  1 20  1  0  0  0  0
  2  3  2  0  0  0  0
  2 21  1  0  0  0  0
  3  4  1  0  0  0  0
  3 22  1  0  0  0  0
  4  5  1  0  0  0  0
  4 23  1  0  0  0  0
  5  6  2  0  0  0  0
  5  7  1  0  0  0  0
  7  8  1  0  0  0  0
  7 24  1  0  0  0  0
  7 25  1  0  0  0  0
  8  9  1  0  0  0  0
  8 26  1  0  0  0  0
  8 27  1  0  0  0  0
  9 10  1  0  0  0  0
  9 28  1  0  0  0  0
 10 11  2  0  0  0  0
 10 12  1  0  0  0  0
 12 13  1  6  0  0  0
 12 14  1  0  0  0  0
 12 19  1  0  0  0  0
 14 15  1  0  0  0  0
 14 17  1  0  0  0  0
 14 18  1  0  0  0  0
 15 16  1  0  0  0  0
 15 29  1  0  0  0  0
 15 30  1  0  0  0  0
 16 31  1  0  0  0  0
 17 32  1  0  0  0  0
 17 33  1  0  0  0  0
 17 34  1  0  0  0  0
 18 35  1  0  0  0  0
 18 36  1  0  0  0  0
 18 37  1  0  0  0  0
 19 38  1  0  0  0  0
M  END
$$$$
