PCR
 OpenBabel04121316173D

 16 16  0  0  0  0  0  0  0  0999 V2000
    0.9379    0.0534    0.1105 C   0  0  0  0  0  0  0  0  0  0  0  0
    2.4374    0.0789    0.0891 C   0  0  0  0  0  0  0  0  0  0  0  0
    3.1347    1.2954    0.0701 C   0  0  0  0  0  0  0  0  0  0  0  0
    4.5193    1.3099   -0.1111 C   0  0  0  0  0  0  0  0  0  0  0  0
    5.2128    0.1093   -0.1921 C   0  0  0  0  0  0  0  0  0  0  0  0
    4.5484   -1.1064   -0.0683 C   0  0  0  0  0  0  0  0  0  0  0  0
    3.1571   -1.1203    0.0362 C   0  0  0  0  0  0  0  0  0  0  0  0
    6.5580    0.0770   -0.4112 O   0  0  0  0  0  0  0  0  0  0  0  0
    0.5196    1.0632    0.1712 H   0  0  0  0  0  0  0  0  0  0  0  0
    0.5731   -0.5198    0.9677 H   0  0  0  0  0  0  0  0  0  0  0  0
    0.5661   -0.4034   -0.8136 H   0  0  0  0  0  0  0  0  0  0  0  0
    2.6008    2.2359    0.1742 H   0  0  0  0  0  0  0  0  0  0  0  0
    5.0324    2.2641   -0.1918 H   0  0  0  0  0  0  0  0  0  0  0  0
    5.1077   -2.0355   -0.0805 H   0  0  0  0  0  0  0  0  0  0  0  0
    2.6364   -2.0759    0.0589 H   0  0  0  0  0  0  0  0  0  0  0  0
    6.8517    0.9767   -0.6324 H   0  0  0  0  0  0  0  0  0  0  0  0
  1  2  1  0  0  0  0
  1  9  1  0  0  0  0
  1 10  1  0  0  0  0
  1 11  1  0  0  0  0
  2  3  2  0  0  0  0
  2  7  1  0  0  0  0
  3  4  1  0  0  0  0
  3 12  1  0  0  0  0
  4  5  2  0  0  0  0
  4 13  1  0  0  0  0
  5  6  1  0  0  0  0
  5  8  1  0  0  0  0
  6  7  2  0  0  0  0
  6 14  1  0  0  0  0
  7 15  1  0  0  0  0
  8 16  1  0  0  0  0
M  END
$$$$
