PCZ
 OpenBabel04121316173D

 41 42  0  0  1  0  0  0  0  0999 V2000
   12.4364    0.5455   -0.1473 C   0  0  0  0  0  0  0  0  0  0  0  0
   11.4160    0.2805   -1.0891 O   0  0  0  0  0  0  0  0  0  0  0  0
   11.6960    0.8971   -2.3132 N   0  0  0  0  0  0  0  0  0  0  0  0
   10.8367    0.5292   -3.2249 C   0  0  0  0  0  0  0  0  0  0  0  0
   11.0442    1.0873   -4.5628 C   0  0  0  0  0  0  0  0  0  0  0  0
   11.1035    0.3105   -5.7056 C   0  0  0  0  0  0  0  0  0  0  0  0
   11.4183    1.2804   -7.0721 S   0  0  0  0  0  0  0  0  0  0  0  0
   11.4201    2.6756   -6.0731 C   0  0  0  0  0  0  0  0  0  0  0  0
   11.1992    2.4561   -4.7999 N   0  0  0  0  0  0  0  0  0  0  0  0
   11.6094    3.8805   -6.6201 N   0  0  0  0  0  0  0  0  0  0  0  0
    9.6794   -0.4817   -2.9628 C   0  0  0  0  0  0  0  0  0  0  0  0
    9.5518   -1.0906   -1.9092 O   0  0  0  0  0  0  0  0  0  0  0  0
    8.7179   -0.6110   -3.9667 N   0  0  0  0  0  0  0  0  0  0  0  0
    7.4316   -1.2446   -3.6140 C   0  0  1  0  0  0  0  0  0  0  0  0
    7.6645   -2.2804   -3.3270 H   0  0  0  0  0  0  0  0  0  0  0  0
    6.6677   -0.5536   -2.4183 C   0  0  1  0  0  0  0  0  0  0  0  0
    6.9630   -1.1141   -1.5236 H   0  0  0  0  0  0  0  0  0  0  0  0
    7.2444    1.0915   -1.9413 S   0  0  0  0  0  0  0  0  0  0  0  0
    6.1944    2.0679   -2.9436 C   0  0  0  0  0  0  0  0  0  0  0  0
    4.7885    1.6136   -3.2021 C   0  0  0  0  0  0  0  0  0  0  0  0
    4.0276    2.6524   -3.5916 C   0  0  0  0  0  0  0  0  0  0  0  0
    4.4114    0.1693   -2.9455 C   0  0  0  0  0  0  0  0  0  0  0  0
    5.2372   -0.7334   -2.5419 N   0  0  0  0  0  0  0  0  0  0  0  0
    2.9627   -0.4185   -3.1799 C   0  0  0  0  0  0  0  0  0  0  0  0
    2.7507   -1.6184   -3.0141 O   0  0  0  0  0  0  0  0  0  0  0  0
    1.9586    0.3580   -3.5658 O   0  0  0  0  0  0  0  0  0  0  0  0
    6.5917   -1.3404   -4.8889 C   0  0  0  0  0  0  0  0  0  0  0  0
    5.5382   -1.9566   -5.0161 O   0  0  0  0  0  0  0  0  0  0  0  0
   12.1435    0.0735    0.7950 H   0  0  0  0  0  0  0  0  0  0  0  0
   12.5363    1.6214    0.0123 H   0  0  0  0  0  0  0  0  0  0  0  0
   13.3831    0.1089   -0.4770 H   0  0  0  0  0  0  0  0  0  0  0  0
   11.0055   -0.7611   -5.7970 H   0  0  0  0  0  0  0  0  0  0  0  0
   11.9185    3.9564   -7.5809 H   0  0  0  0  0  0  0  0  0  0  0  0
   11.7295    4.6956   -6.0319 H   0  0  0  0  0  0  0  0  0  0  0  0
    8.7491    0.0224   -4.7538 H   0  0  0  0  0  0  0  0  0  0  0  0
    6.6834    2.3662   -3.8802 H   0  0  0  0  0  0  0  0  0  0  0  0
    6.1266    2.9606   -2.3137 H   0  0  0  0  0  0  0  0  0  0  0  0
    4.5016    3.6326   -3.6821 H   0  0  0  0  0  0  0  0  0  0  0  0
    2.9856    2.7175   -3.8192 H   0  0  0  0  0  0  0  0  0  0  0  0
    2.1108    1.2999   -3.6484 H   0  0  0  0  0  0  0  0  0  0  0  0
    6.9566   -0.7597   -5.7497 H   0  0  0  0  0  0  0  0  0  0  0  0
  1  2  1  0  0  0  0
  1 29  1  0  0  0  0
  1 30  1  0  0  0  0
  1 31  1  0  0  0  0
  2  3  1  0  0  0  0
  3  4  2  0  0  0  0
  4  5  1  0  0  0  0
  4 11  1  0  0  0  0
  5  6  2  0  0  0  0
  5  9  1  0  0  0  0
  6  7  1  0  0  0  0
  6 32  1  0  0  0  0
  7  8  1  0  0  0  0
  8  9  2  0  0  0  0
  8 10  1  0  0  0  0
 10 33  1  0  0  0  0
 10 34  1  0  0  0  0
 11 12  2  0  0  0  0
 11 13  1  0  0  0  0
 13 14  1  0  0  0  0
 13 35  1  0  0  0  0
 14 15  1  1  0  0  0
 14 27  1  0  0  0  0
 16 18  1  0  0  0  0
 16 23  1  0  0  0  0
 16 17  1  1  0  0  0
 16 14  1  0  0  0  0
 18 19  1  0  0  0  0
 19 20  1  0  0  0  0
 19 36  1  0  0  0  0
 19 37  1  0  0  0  0
 20 21  2  0  0  0  0
 20 22  1  0  0  0  0
 21 38  1  0  0  0  0
 21 39  1  0  0  0  0
 22 23  2  0  0  0  0
 22 24  1  0  0  0  0
 24 25  2  0  0  0  0
 24 26  1  0  0  0  0
 26 40  1  0  0  0  0
 27 28  2  0  0  0  0
 27 41  1  0  0  0  0
M  END
$$$$
