PDG
 OpenBabel04121316173D

 44 44  0  0  1  0  0  0  0  0999 V2000
    4.7720   -6.2041   -0.5151 O   0  0  0  0  0  0  0  0  0  0  0  0
    4.3035   -5.1079   -1.1277 C   0  0  0  0  0  0  0  0  0  0  0  0
    3.2395   -5.1192   -1.7469 O   0  0  0  0  0  0  0  0  0  0  0  0
    5.3269   -4.0065   -1.1192 C   0  0  0  0  0  0  0  0  0  0  0  0
    4.8204   -2.9384   -2.0806 C   0  0  0  0  0  0  0  0  0  0  0  0
    5.2849   -1.4933   -2.0330 C   0  0  2  0  0  0  0  0  0  0  0  0
    4.7578   -0.9541   -1.2351 H   0  0  0  0  0  0  0  0  0  0  0  0
    4.8450   -0.8862   -3.4398 C   0  0  0  0  0  0  0  0  0  0  0  0
    5.5680   -0.4807   -4.3377 O   0  0  0  0  0  0  0  0  0  0  0  0
    3.5085   -0.8968   -3.6611 O   0  0  0  0  0  0  0  0  0  0  0  0
    6.7241   -1.3476   -1.7546 N   0  0  0  0  0  0  0  0  0  0  0  0
    7.5135   -1.9755   -2.8101 C   0  0  0  0  0  0  0  0  0  0  0  0
    8.9655   -1.7531   -2.5936 C   0  0  0  0  0  0  0  0  0  0  0  0
    9.5057   -0.4577   -2.5898 C   0  0  0  0  0  0  0  0  0  0  0  0
   10.8736   -0.3879   -2.3285 C   0  0  0  0  0  0  0  0  0  0  0  0
   11.6992   -1.4514   -2.1500 N   0  0  0  0  0  0  0  0  0  0  0  0
   11.1555   -2.6871   -2.2345 C   0  0  0  0  0  0  0  0  0  0  0  0
    9.7975   -2.8766   -2.4437 C   0  0  0  0  0  0  0  0  0  0  0  0
    9.2255   -4.1216   -2.5157 O   0  0  0  0  0  0  0  0  0  0  0  0
   12.0839   -3.8535   -2.0930 C   0  0  0  0  0  0  0  0  0  0  0  0
    8.7607    0.8689   -2.7688 C   0  0  0  0  0  0  0  0  0  0  0  0
    7.4083    0.9000   -3.1983 O   0  0  0  0  0  0  0  0  0  0  0  0
    6.3115    1.8781   -2.5529 P   0  0  0  0  0  0  0  0  0  0  0  0
    5.0616    1.3158   -1.9539 O   0  0  0  0  0  0  0  0  0  0  0  0
    7.1067    2.7417   -1.4762 O   0  0  0  0  0  0  0  0  0  0  0  0
    5.9248    2.9589   -3.6648 O   0  0  0  0  0  0  0  0  0  0  0  0
    4.3935   -6.9563   -1.0147 H   0  0  0  0  0  0  0  0  0  0  0  0
    6.2464   -4.4571   -1.5184 H   0  0  0  0  0  0  0  0  0  0  0  0
    5.5125   -3.6668   -0.0973 H   0  0  0  0  0  0  0  0  0  0  0  0
    3.7340   -2.8745   -1.9922 H   0  0  0  0  0  0  0  0  0  0  0  0
    5.0380   -3.3147   -3.0876 H   0  0  0  0  0  0  0  0  0  0  0  0
    2.9730   -1.1932   -2.9083 H   0  0  0  0  0  0  0  0  0  0  0  0
    6.9761   -1.7534   -0.8539 H   0  0  0  0  0  0  0  0  0  0  0  0
    7.3241   -1.5986   -3.8110 H   0  0  0  0  0  0  0  0  0  0  0  0
    7.2802   -3.0386   -2.8544 H   0  0  0  0  0  0  0  0  0  0  0  0
   11.3699    0.5761   -2.2404 H   0  0  0  0  0  0  0  0  0  0  0  0
    9.8995   -4.8180   -2.4772 H   0  0  0  0  0  0  0  0  0  0  0  0
   13.1120   -3.5226   -1.9281 H   0  0  0  0  0  0  0  0  0  0  0  0
   12.0605   -4.4608   -3.0045 H   0  0  0  0  0  0  0  0  0  0  0  0
   11.7789   -4.4723   -1.2427 H   0  0  0  0  0  0  0  0  0  0  0  0
    9.3092    1.4497   -3.5145 H   0  0  0  0  0  0  0  0  0  0  0  0
    8.8682    1.3630   -1.8033 H   0  0  0  0  0  0  0  0  0  0  0  0
    7.3548    2.1401   -0.7521 H   0  0  0  0  0  0  0  0  0  0  0  0
    4.9546    2.9345   -3.7977 H   0  0  0  0  0  0  0  0  0  0  0  0
  1  2  1  0  0  0  0
  1 27  1  0  0  0  0
  2  3  2  0  0  0  0
  2  4  1  0  0  0  0
  4  5  1  0  0  0  0
  4 28  1  0  0  0  0
  4 29  1  0  0  0  0
  5 30  1  0  0  0  0
  5 31  1  0  0  0  0
  6  8  1  0  0  0  0
  6 11  1  0  0  0  0
  6  7  1  1  0  0  0
  6  5  1  0  0  0  0
  8  9  2  0  0  0  0
  8 10  1  0  0  0  0
 10 32  1  0  0  0  0
 11 12  1  0  0  0  0
 11 33  1  0  0  0  0
 12 13  1  0  0  0  0
 12 34  1  0  0  0  0
 12 35  1  0  0  0  0
 13 14  2  0  0  0  0
 13 18  1  0  0  0  0
 14 15  1  0  0  0  0
 14 21  1  0  0  0  0
 15 16  2  0  0  0  0
 15 36  1  0  0  0  0
 16 17  1  0  0  0  0
 17 18  2  0  0  0  0
 17 20  1  0  0  0  0
 18 19  1  0  0  0  0
 19 37  1  0  0  0  0
 20 38  1  0  0  0  0
 20 39  1  0  0  0  0
 20 40  1  0  0  0  0
 21 22  1  0  0  0  0
 21 41  1  0  0  0  0
 21 42  1  0  0  0  0
 22 23  1  0  0  0  0
 23 24  2  0  0  0  0
 23 25  1  0  0  0  0
 23 26  1  0  0  0  0
 25 43  1  0  0  0  0
 26 44  1  0  0  0  0
M  END
$$$$
