PDX
 OpenBabel04121316173D

 32 32  0  0  1  0  0  0  0  0999 V2000
    1.0086   -0.1440    0.2162 O   0  0  0  0  0  0  0  0  0  0  0  0
    2.4180   -0.0452    0.0705 C   0  0  0  0  0  0  0  0  0  0  0  0
    2.8455    0.7486   -1.1926 C   0  0  1  0  0  0  0  0  0  0  0  0
    3.7191    0.2383   -1.6219 H   0  0  0  0  0  0  0  0  0  0  0  0
    1.8468    0.7685   -2.2339 O   0  0  0  0  0  0  0  0  0  0  0  0
    0.7062    1.5782   -1.9576 C   0  0  2  0  0  0  0  0  0  0  0  0
    0.1183    1.1609   -1.1436 H   0  0  0  0  0  0  0  0  0  0  0  0
   -0.1668    1.5266   -3.0785 O   0  0  0  0  0  0  0  0  0  0  0  0
    1.0489    3.0325   -1.5711 C   0  0  1  0  0  0  0  0  0  0  0  0
    0.1129    3.5137   -1.2651 H   0  0  0  0  0  0  0  0  0  0  0  0
    2.0703    3.0029   -0.4240 C   0  0  2  0  0  0  0  0  0  0  0  0
    2.4070    4.0102   -0.2485 H   0  0  0  0  0  0  0  0  0  0  0  0
    3.2977    2.1748   -0.8254 C   0  0  2  0  0  0  0  0  0  0  0  0
    4.0283    2.1389   -0.0120 H   0  0  0  0  0  0  0  0  0  0  0  0
    3.9857    2.7543   -1.9434 O   0  0  0  0  0  0  0  0  0  0  0  0
    1.5155    2.5888    0.8231 O   0  0  0  0  0  0  0  0  0  0  0  0
    1.8387    3.5795    2.0768 S   0  0  0  0  0  0  0  0  0  0  0  0
    3.2718    3.6104    2.2296 O   0  0  0  0  0  0  0  0  0  0  0  0
    1.0445    4.7751    1.8987 O   0  0  0  0  0  0  0  0  0  0  0  0
    1.2646    2.7649    3.3373 O   0  0  0  0  0  0  0  0  0  0  0  0
    1.5764    3.7670   -2.6944 O   0  0  0  0  0  0  0  0  0  0  0  0
    1.9434    5.3374   -2.4673 S   0  0  0  0  0  0  0  0  0  0  0  0
    0.7050    6.0334   -2.2024 O   0  0  0  0  0  0  0  0  0  0  0  0
    3.0830    5.4326   -1.5821 O   0  0  0  0  0  0  0  0  0  0  0  0
    2.4742    5.8214   -3.9013 O   0  0  0  0  0  0  0  0  0  0  0  0
    0.7906   -0.5179    1.0834 H   0  0  0  0  0  0  0  0  0  0  0  0
    2.8191   -1.0596    0.0333 H   0  0  0  0  0  0  0  0  0  0  0  0
    2.8225    0.4282    0.9727 H   0  0  0  0  0  0  0  0  0  0  0  0
   -0.4498    0.5944   -3.1042 H   0  0  0  0  0  0  0  0  0  0  0  0
    4.1744    3.6951   -1.7446 H   0  0  0  0  0  0  0  0  0  0  0  0
    1.8818    2.0379    3.5472 H   0  0  0  0  0  0  0  0  0  0  0  0
    1.7472    5.7843   -4.5459 H   0  0  0  0  0  0  0  0  0  0  0  0
  1  2  1  0  0  0  0
  1 26  1  0  0  0  0
  2  3  1  0  0  0  0
  2 27  1  0  0  0  0
  2 28  1  0  0  0  0
  3  4  1  6  0  0  0
  3  5  1  0  0  0  0
  3 13  1  0  0  0  0
  5  6  1  0  0  0  0
  6  7  1  1  0  0  0
  6  8  1  0  0  0  0
  6  9  1  0  0  0  0
  8 29  1  0  0  0  0
  9 10  1  1  0  0  0
  9 11  1  0  0  0  0
  9 21  1  0  0  0  0
 11 13  1  0  0  0  0
 11 16  1  0  0  0  0
 11 12  1  1  0  0  0
 13 14  1  1  0  0  0
 13 15  1  0  0  0  0
 15 30  1  0  0  0  0
 16 17  1  0  0  0  0
 17 18  2  0  0  0  0
 17 19  2  0  0  0  0
 17 20  1  0  0  0  0
 20 31  1  0  0  0  0
 21 22  1  0  0  0  0
 22 23  2  0  0  0  0
 22 24  2  0  0  0  0
 22 25  1  0  0  0  0
 25 32  1  0  0  0  0
M  END
$$$$
