PDZ
 OpenBabel04121316173D

 35 37  0  0  0  0  0  0  0  0999 V2000
    1.1675    0.7786   -0.9300 Cl  0  0  0  0  0  0  0  0  0  0  0  0
    2.6891    0.2460   -0.2732 C   0  0  0  0  0  0  0  0  0  0  0  0
    3.5288    1.3459   -0.0606 C   0  0  0  0  0  0  0  0  0  0  0  0
    4.8395    1.1842    0.3508 C   0  0  0  0  0  0  0  0  0  0  0  0
    5.4143   -0.0846    0.2885 C   0  0  0  0  0  0  0  0  0  0  0  0
    4.5511   -1.1757    0.0687 C   0  0  0  0  0  0  0  0  0  0  0  0
    3.1607   -1.0557   -0.0212 C   0  0  0  0  0  0  0  0  0  0  0  0
    2.5641   -2.3067    0.1404 O   0  0  0  0  0  0  0  0  0  0  0  0
    1.2334   -2.4814    0.3924 C   0  0  0  0  0  0  0  0  0  0  0  0
    0.6258   -3.7268    0.2717 C   0  0  0  0  0  0  0  0  0  0  0  0
   -0.7659   -3.7822    0.0929 C   0  0  0  0  0  0  0  0  0  0  0  0
   -1.5179   -2.6062    0.0547 C   0  0  0  0  0  0  0  0  0  0  0  0
   -0.9162   -1.4242    0.4320 C   0  0  0  0  0  0  0  0  0  0  0  0
    0.4273   -1.4338    0.7544 C   0  0  0  0  0  0  0  0  0  0  0  0
    5.0340   -2.3996   -0.1800 F   0  0  0  0  0  0  0  0  0  0  0  0
    6.9278   -0.1604    0.3620 C   0  0  0  0  0  0  0  0  0  0  0  0
    7.5499   -1.5432    0.2695 C   0  0  0  0  0  0  0  0  0  0  0  0
    8.7026   -1.7091   -0.6464 C   0  0  0  0  0  0  0  0  0  0  0  0
    9.0069   -2.9572   -1.0111 C   0  0  0  0  0  0  0  0  0  0  0  0
    8.2624   -4.0903   -0.4363 C   0  0  0  0  0  0  0  0  0  0  0  0
    8.4576   -5.2404   -0.8416 O   0  0  0  0  0  0  0  0  0  0  0  0
    7.4286   -3.7846    0.6042 N   0  0  0  0  0  0  0  0  0  0  0  0
    6.8554   -4.5336    0.9806 H   0  0  0  0  0  0  0  0  0  0  0  0
    7.0600   -2.5187    0.9713 N   0  0  0  0  0  0  0  0  0  0  0  0
    3.1542    2.3504   -0.2488 H   0  0  0  0  0  0  0  0  0  0  0  0
    5.4123    2.0700    0.6099 H   0  0  0  0  0  0  0  0  0  0  0  0
    1.2019   -4.6479    0.3386 H   0  0  0  0  0  0  0  0  0  0  0  0
   -1.2700   -4.7347   -0.0367 H   0  0  0  0  0  0  0  0  0  0  0  0
   -2.5759   -2.6086   -0.1831 H   0  0  0  0  0  0  0  0  0  0  0  0
   -1.4515   -0.4819    0.4768 H   0  0  0  0  0  0  0  0  0  0  0  0
    0.8791   -0.5567    1.1870 H   0  0  0  0  0  0  0  0  0  0  0  0
    7.2808    0.3142    1.2840 H   0  0  0  0  0  0  0  0  0  0  0  0
    7.3008    0.4421   -0.4804 H   0  0  0  0  0  0  0  0  0  0  0  0
    9.2693   -0.8451   -0.9617 H   0  0  0  0  0  0  0  0  0  0  0  0
    9.8201   -3.1959   -1.6813 H   0  0  0  0  0  0  0  0  0  0  0  0
  1  2  1  0  0  0  0
  2  3  2  0  0  0  0
  2  7  1  0  0  0  0
  3  4  1  0  0  0  0
  3 25  1  0  0  0  0
  4  5  2  0  0  0  0
  4 26  1  0  0  0  0
  5  6  1  0  0  0  0
  5 16  1  0  0  0  0
  6  7  2  0  0  0  0
  6 15  1  0  0  0  0
  7  8  1  0  0  0  0
  8  9  1  0  0  0  0
  9 10  2  0  0  0  0
  9 14  1  0  0  0  0
 10 11  1  0  0  0  0
 10 27  1  0  0  0  0
 11 12  2  0  0  0  0
 11 28  1  0  0  0  0
 12 13  1  0  0  0  0
 12 29  1  0  0  0  0
 13 14  2  0  0  0  0
 13 30  1  0  0  0  0
 14 31  1  0  0  0  0
 16 17  1  0  0  0  0
 16 32  1  0  0  0  0
 16 33  1  0  0  0  0
 17 18  1  0  0  0  0
 17 24  2  0  0  0  0
 18 19  2  0  0  0  0
 18 34  1  0  0  0  0
 19 20  1  0  0  0  0
 19 35  1  0  0  0  0
 20 21  2  0  0  0  0
 20 22  1  0  0  0  0
 22 23  1  0  0  0  0
 22 24  1  0  0  0  0
M  END
$$$$
