PE0
 OpenBabel04121316173D

 17 18  0  0  0  0  0  0  0  0999 V2000
    1.0531    0.0804    0.0307 N   0  0  0  0  0  0  0  0  0  0  0  0
    2.4025    0.1324    0.0334 C   0  0  0  0  0  0  0  0  0  0  0  0
    3.0323    1.2627    0.0362 N   0  0  0  0  0  0  0  0  0  0  0  0
    4.4382    1.2308    0.0380 C   0  0  0  0  0  0  0  0  0  0  0  0
    5.0580    2.4367    0.0387 N   0  0  0  0  0  0  0  0  0  0  0  0
    6.4166    2.4029    0.0407 C   0  0  0  0  0  0  0  0  0  0  0  0
    7.1419    1.2197    0.0413 C   0  0  0  0  0  0  0  0  0  0  0  0
    6.5450    0.0105    0.0407 N   0  0  0  0  0  0  0  0  0  0  0  0
    5.1832    0.0564    0.0393 C   0  0  0  0  0  0  0  0  0  0  0  0
    4.4214   -1.2034    0.0401 C   0  0  0  0  0  0  0  0  0  0  0  0
    4.9482   -2.3117    0.0478 O   0  0  0  0  0  0  0  0  0  0  0  0
    3.0525   -1.0679    0.0330 N   0  0  0  0  0  0  0  0  0  0  0  0
    2.5338   -1.9313    0.0317 H   0  0  0  0  0  0  0  0  0  0  0  0
    0.5419    0.9553    0.0355 H   0  0  0  0  0  0  0  0  0  0  0  0
    0.5191   -0.7755    0.0343 H   0  0  0  0  0  0  0  0  0  0  0  0
    6.9185    3.3651    0.0420 H   0  0  0  0  0  0  0  0  0  0  0  0
    8.2270    1.2149    0.0427 H   0  0  0  0  0  0  0  0  0  0  0  0
  1  2  1  0  0  0  0
  1 14  1  0  0  0  0
  1 15  1  0  0  0  0
  2  3  2  0  0  0  0
  2 12  1  0  0  0  0
  3  4  1  0  0  0  0
  4  5  2  0  0  0  0
  4  9  1  0  0  0  0
  5  6  1  0  0  0  0
  6  7  2  0  0  0  0
  6 16  1  0  0  0  0
  7  8  1  0  0  0  0
  7 17  1  0  0  0  0
  8  9  2  0  0  0  0
  9 10  1  0  0  0  0
 10 11  2  0  0  0  0
 10 12  1  0  0  0  0
 12 13  1  0  0  0  0
M  END
$$$$
