PE8
 OpenBabel04121316173D

 59 58  0  0  0  0  0  0  0  0999 V2000
    0.9206    0.0714    0.0432 O   0  0  0  0  0  0  0  0  0  0  0  0
    2.3423    0.0643    0.0536 C   0  0  0  0  0  0  0  0  0  0  0  0
    2.8428   -0.7440    1.2409 C   0  0  0  0  0  0  0  0  0  0  0  0
    4.2682   -0.7490    1.2483 O   0  0  0  0  0  0  0  0  0  0  0  0
    4.7626   -1.5019    2.3541 C   0  0  0  0  0  0  0  0  0  0  0  0
    6.2816   -1.4859    2.3307 C   0  0  0  0  0  0  0  0  0  0  0  0
    6.7698   -2.2390    3.4370 O   0  0  0  0  0  0  0  0  0  0  0  0
    8.1935   -2.2496    3.4525 C   0  0  0  0  0  0  0  0  0  0  0  0
    8.6676   -3.0613    4.6448 C   0  0  0  0  0  0  0  0  0  0  0  0
   10.0911   -3.0700    4.6578 O   0  0  0  0  0  0  0  0  0  0  0  0
   10.5808   -3.8222    5.7625 C   0  0  0  0  0  0  0  0  0  0  0  0
   12.0981   -3.8029    5.7341 C   0  0  0  0  0  0  0  0  0  0  0  0
   12.5874   -4.5548    6.8390 O   0  0  0  0  0  0  0  0  0  0  0  0
   14.0105   -4.5638    6.8519 C   0  0  0  0  0  0  0  0  0  0  0  0
   14.4837   -5.3752    8.0438 C   0  0  0  0  0  0  0  0  0  0  0  0
   15.9069   -5.3841    8.0575 O   0  0  0  0  0  0  0  0  0  0  0  0
   16.3961   -6.1366    9.1622 C   0  0  0  0  0  0  0  0  0  0  0  0
   17.9138   -6.1173    9.1339 C   0  0  0  0  0  0  0  0  0  0  0  0
   18.4059   -6.8682   10.2390 O   0  0  0  0  0  0  0  0  0  0  0  0
   19.8301   -6.8767   10.2496 C   0  0  0  0  0  0  0  0  0  0  0  0
   20.3074   -7.6876   11.4419 C   0  0  0  0  0  0  0  0  0  0  0  0
   21.7329   -7.6930   11.4654 O   0  0  0  0  0  0  0  0  0  0  0  0
   22.2170   -8.4572   12.5641 C   0  0  0  0  0  0  0  0  0  0  0  0
   23.7396   -8.4498   12.5633 C   0  0  0  0  0  0  0  0  0  0  0  0
   24.2442   -9.2014   13.6615 O   0  0  0  0  0  0  0  0  0  0  0  0
    0.6473    0.5963   -0.7280 H   0  0  0  0  0  0  0  0  0  0  0  0
    2.7075    1.0953    0.1108 H   0  0  0  0  0  0  0  0  0  0  0  0
    2.7075   -0.3669   -0.8847 H   0  0  0  0  0  0  0  0  0  0  0  0
    2.4655   -1.7715    1.1757 H   0  0  0  0  0  0  0  0  0  0  0  0
    2.4655   -0.3067    2.1729 H   0  0  0  0  0  0  0  0  0  0  0  0
    4.4015   -2.5360    2.2989 H   0  0  0  0  0  0  0  0  0  0  0  0
    4.4015   -1.0713    3.2960 H   0  0  0  0  0  0  0  0  0  0  0  0
    6.6452   -0.4532    2.3889 H   0  0  0  0  0  0  0  0  0  0  0  0
    6.6452   -1.9188    1.3912 H   0  0  0  0  0  0  0  0  0  0  0  0
    8.5785   -1.2251    3.5224 H   0  0  0  0  0  0  0  0  0  0  0  0
    8.5784   -2.6903    2.5250 H   0  0  0  0  0  0  0  0  0  0  0  0
    8.2844   -4.0864    4.5754 H   0  0  0  0  0  0  0  0  0  0  0  0
    8.2843   -2.6210    5.5730 H   0  0  0  0  0  0  0  0  0  0  0  0
   10.2195   -4.8561    5.7061 H   0  0  0  0  0  0  0  0  0  0  0  0
   10.2195   -3.3908    6.7038 H   0  0  0  0  0  0  0  0  0  0  0  0
   12.4598   -2.7691    5.7906 H   0  0  0  0  0  0  0  0  0  0  0  0
   12.4598   -4.2346    4.7932 H   0  0  0  0  0  0  0  0  0  0  0  0
   14.3945   -3.5389    6.9214 H   0  0  0  0  0  0  0  0  0  0  0  0
   14.3943   -5.0043    5.9238 H   0  0  0  0  0  0  0  0  0  0  0  0
   14.0997   -6.4001    7.9741 H   0  0  0  0  0  0  0  0  0  0  0  0
   14.0994   -4.9348    8.9717 H   0  0  0  0  0  0  0  0  0  0  0  0
   16.0342   -7.1702    9.1051 H   0  0  0  0  0  0  0  0  0  0  0  0
   16.0342   -5.7051   10.1031 H   0  0  0  0  0  0  0  0  0  0  0  0
   18.2745   -5.0832    9.1892 H   0  0  0  0  0  0  0  0  0  0  0  0
   18.2746   -6.5490    8.1926 H   0  0  0  0  0  0  0  0  0  0  0  0
   20.2122   -5.8513   10.3179 H   0  0  0  0  0  0  0  0  0  0  0  0
   20.2114   -7.3176    9.3209 H   0  0  0  0  0  0  0  0  0  0  0  0
   19.9254   -8.7132   11.3703 H   0  0  0  0  0  0  0  0  0  0  0  0
   19.9176   -7.2498   12.3688 H   0  0  0  0  0  0  0  0  0  0  0  0
   21.8510   -9.4885   12.4974 H   0  0  0  0  0  0  0  0  0  0  0  0
   21.8462   -8.0309   13.5038 H   0  0  0  0  0  0  0  0  0  0  0  0
   24.1262   -7.4266   12.6221 H   0  0  0  0  0  0  0  0  0  0  0  0
   24.1231   -8.8842   11.6346 H   0  0  0  0  0  0  0  0  0  0  0  0
   23.9216   -8.7806   14.4745 H   0  0  0  0  0  0  0  0  0  0  0  0
  1  2  1  0  0  0  0
  1 26  1  0  0  0  0
  2  3  1  0  0  0  0
  2 27  1  0  0  0  0
  2 28  1  0  0  0  0
  3  4  1  0  0  0  0
  3 29  1  0  0  0  0
  3 30  1  0  0  0  0
  4  5  1  0  0  0  0
  5  6  1  0  0  0  0
  5 31  1  0  0  0  0
  5 32  1  0  0  0  0
  6  7  1  0  0  0  0
  6 33  1  0  0  0  0
  6 34  1  0  0  0  0
  7  8  1  0  0  0  0
  8  9  1  0  0  0  0
  8 35  1  0  0  0  0
  8 36  1  0  0  0  0
  9 10  1  0  0  0  0
  9 37  1  0  0  0  0
  9 38  1  0  0  0  0
 10 11  1  0  0  0  0
 11 12  1  0  0  0  0
 11 39  1  0  0  0  0
 11 40  1  0  0  0  0
 12 13  1  0  0  0  0
 12 41  1  0  0  0  0
 12 42  1  0  0  0  0
 13 14  1  0  0  0  0
 14 15  1  0  0  0  0
 14 43  1  0  0  0  0
 14 44  1  0  0  0  0
 15 16  1  0  0  0  0
 15 45  1  0  0  0  0
 15 46  1  0  0  0  0
 16 17  1  0  0  0  0
 17 18  1  0  0  0  0
 17 47  1  0  0  0  0
 17 48  1  0  0  0  0
 18 19  1  0  0  0  0
 18 49  1  0  0  0  0
 18 50  1  0  0  0  0
 19 20  1  0  0  0  0
 20 21  1  0  0  0  0
 20 51  1  0  0  0  0
 20 52  1  0  0  0  0
 21 22  1  0  0  0  0
 21 53  1  0  0  0  0
 21 54  1  0  0  0  0
 22 23  1  0  0  0  0
 23 24  1  0  0  0  0
 23 55  1  0  0  0  0
 23 56  1  0  0  0  0
 24 25  1  0  0  0  0
 24 57  1  0  0  0  0
 24 58  1  0  0  0  0
 25 59  1  0  0  0  0
M  END
$$$$
