PE9
 OpenBabel04121316173D

 18 17  0  0  0  0  0  0  0  0999 V2000
    0.9178   -0.0489    0.0388 C   0  0  0  0  0  0  0  0  0  0  0  0
    2.4373   -0.0524    0.0517 C   0  0  0  0  0  0  0  0  0  0  0  0
    2.9701   -0.4320    1.4309 C   0  0  0  0  0  0  0  0  0  0  0  0
    4.4950   -0.4400    1.4566 C   0  0  0  0  0  0  0  0  0  0  0  0
    5.0169   -0.8213    2.8348 C   0  0  0  0  0  0  0  0  0  0  0  0
    6.4375   -0.8122    2.8326 O   0  0  0  0  0  0  0  0  0  0  0  0
    0.5459    0.2241   -0.9531 H   0  0  0  0  0  0  0  0  0  0  0  0
    0.5233    0.6720    0.7622 H   0  0  0  0  0  0  0  0  0  0  0  0
    0.5234   -1.0385    0.2914 H   0  0  0  0  0  0  0  0  0  0  0  0
    2.8049    0.9410   -0.2309 H   0  0  0  0  0  0  0  0  0  0  0  0
    2.8048   -0.7612   -0.6994 H   0  0  0  0  0  0  0  0  0  0  0  0
    2.5933   -1.4237    1.7099 H   0  0  0  0  0  0  0  0  0  0  0  0
    2.5940    0.2775    2.1782 H   0  0  0  0  0  0  0  0  0  0  0  0
    4.8874    0.5457    1.1770 H   0  0  0  0  0  0  0  0  0  0  0  0
    4.8843   -1.1420    0.7088 H   0  0  0  0  0  0  0  0  0  0  0  0
    4.6755   -1.8200    3.1260 H   0  0  0  0  0  0  0  0  0  0  0  0
    4.6740   -0.1081    3.5907 H   0  0  0  0  0  0  0  0  0  0  0  0
    6.7322   -1.4574    2.1689 H   0  0  0  0  0  0  0  0  0  0  0  0
  1  2  1  0  0  0  0
  1  7  1  0  0  0  0
  1  8  1  0  0  0  0
  1  9  1  0  0  0  0
  2  3  1  0  0  0  0
  2 10  1  0  0  0  0
  2 11  1  0  0  0  0
  3  4  1  0  0  0  0
  3 12  1  0  0  0  0
  3 13  1  0  0  0  0
  4  5  1  0  0  0  0
  4 14  1  0  0  0  0
  4 15  1  0  0  0  0
  5  6  1  0  0  0  0
  5 16  1  0  0  0  0
  5 17  1  0  0  0  0
  6 18  1  0  0  0  0
M  END
$$$$
