PEO
 OpenBabel04121316173D

  4  3  0  0  0  0  0  0  0  0999 V2000
    0.8573    0.0059    0.0060 O   0  0  0  0  0  0  0  0  0  0  0  0
    2.3055   -0.0816    0.0918 O   0  0  0  0  0  0  0  0  0  0  0  0
    0.6642   -0.6771    0.6762 H   0  0  0  0  0  0  0  0  0  0  0  0
    2.4986    0.6014   -0.5784 H   0  0  0  0  0  0  0  0  0  0  0  0
  1  2  1  0  0  0  0
  1  3  1  0  0  0  0
  2  4  1  0  0  0  0
M  END
$$$$
