PEU
 OpenBabel04121316173D

195194  0  0  0  0  0  0  0  0999 V2000
    1.0396    0.0766    0.0035 C   0  0  0  0  0  0  0  0  0  0  0  0
    2.4600    0.0679   -0.0113 O   0  0  0  0  0  0  0  0  0  0  0  0
    2.9555   -0.6115   -1.1626 C   0  0  0  0  0  0  0  0  0  0  0  0
    4.4753   -0.5968   -1.1377 C   0  0  0  0  0  0  0  0  0  0  0  0
    4.9647   -1.2771   -2.2905 O   0  0  0  0  0  0  0  0  0  0  0  0
    6.3889   -1.2863   -2.3062 C   0  0  0  0  0  0  0  0  0  0  0  0
    6.8638   -2.0194   -3.5485 C   0  0  0  0  0  0  0  0  0  0  0  0
    8.2874   -2.0275   -3.5623 O   0  0  0  0  0  0  0  0  0  0  0  0
    8.7772   -2.7067   -4.7133 C   0  0  0  0  0  0  0  0  0  0  0  0
   10.2946   -2.6894   -4.6839 C   0  0  0  0  0  0  0  0  0  0  0  0
   10.7837   -3.3686   -5.8350 O   0  0  0  0  0  0  0  0  0  0  0  0
   12.2067   -3.3766   -5.8485 C   0  0  0  0  0  0  0  0  0  0  0  0
   12.6798   -4.1093   -7.0902 C   0  0  0  0  0  0  0  0  0  0  0  0
   14.1027   -4.1172   -7.1036 O   0  0  0  0  0  0  0  0  0  0  0  0
   14.5917   -4.7963   -8.2546 C   0  0  0  0  0  0  0  0  0  0  0  0
   16.1086   -4.7787   -8.2246 C   0  0  0  0  0  0  0  0  0  0  0  0
   16.5975   -5.4578   -9.3756 O   0  0  0  0  0  0  0  0  0  0  0  0
   18.0204   -5.4657   -9.3889 C   0  0  0  0  0  0  0  0  0  0  0  0
   18.4933   -6.1984  -10.6306 C   0  0  0  0  0  0  0  0  0  0  0  0
   19.9162   -6.2063  -10.6440 O   0  0  0  0  0  0  0  0  0  0  0  0
   20.4051   -6.8854  -11.7949 C   0  0  0  0  0  0  0  0  0  0  0  0
   21.9220   -6.8677  -11.7649 C   0  0  0  0  0  0  0  0  0  0  0  0
   22.4109   -7.5469  -12.9158 O   0  0  0  0  0  0  0  0  0  0  0  0
   23.8338   -7.5547  -12.9292 C   0  0  0  0  0  0  0  0  0  0  0  0
   24.3066   -8.2874  -14.1709 C   0  0  0  0  0  0  0  0  0  0  0  0
   25.7295   -8.2953  -14.1842 O   0  0  0  0  0  0  0  0  0  0  0  0
   26.2184   -8.9744  -15.3351 C   0  0  0  0  0  0  0  0  0  0  0  0
   27.7353   -8.9568  -15.3052 C   0  0  0  0  0  0  0  0  0  0  0  0
   28.2242   -9.6359  -16.4561 O   0  0  0  0  0  0  0  0  0  0  0  0
   29.6471   -9.6438  -16.4694 C   0  0  0  0  0  0  0  0  0  0  0  0
   30.1199  -10.3765  -17.7111 C   0  0  0  0  0  0  0  0  0  0  0  0
   31.5428  -10.3843  -17.7245 O   0  0  0  0  0  0  0  0  0  0  0  0
   32.0317  -11.0635  -18.8754 C   0  0  0  0  0  0  0  0  0  0  0  0
   33.5486  -11.0458  -18.8454 C   0  0  0  0  0  0  0  0  0  0  0  0
   34.0375  -11.7249  -19.9963 O   0  0  0  0  0  0  0  0  0  0  0  0
   35.4604  -11.7328  -20.0097 C   0  0  0  0  0  0  0  0  0  0  0  0
   35.9332  -12.4655  -21.2514 C   0  0  0  0  0  0  0  0  0  0  0  0
   37.3561  -12.4734  -21.2647 O   0  0  0  0  0  0  0  0  0  0  0  0
   37.8450  -13.1525  -22.4156 C   0  0  0  0  0  0  0  0  0  0  0  0
   39.3619  -13.1348  -22.3857 C   0  0  0  0  0  0  0  0  0  0  0  0
   39.8508  -13.8140  -23.5366 O   0  0  0  0  0  0  0  0  0  0  0  0
   41.2737  -13.8218  -23.5499 C   0  0  0  0  0  0  0  0  0  0  0  0
   41.7465  -14.5545  -24.7916 C   0  0  0  0  0  0  0  0  0  0  0  0
   43.1694  -14.5624  -24.8050 O   0  0  0  0  0  0  0  0  0  0  0  0
   43.6583  -15.2416  -25.9559 C   0  0  0  0  0  0  0  0  0  0  0  0
   45.1753  -15.2239  -25.9259 C   0  0  0  0  0  0  0  0  0  0  0  0
   45.6642  -15.9030  -27.0768 O   0  0  0  0  0  0  0  0  0  0  0  0
   47.0871  -15.9109  -27.0902 C   0  0  0  0  0  0  0  0  0  0  0  0
   47.5599  -16.6436  -28.3319 C   0  0  0  0  0  0  0  0  0  0  0  0
   48.9828  -16.6515  -28.3452 O   0  0  0  0  0  0  0  0  0  0  0  0
   49.4717  -17.3306  -29.4962 C   0  0  0  0  0  0  0  0  0  0  0  0
   50.9886  -17.3129  -29.4662 C   0  0  0  0  0  0  0  0  0  0  0  0
   51.4775  -17.9920  -30.6171 O   0  0  0  0  0  0  0  0  0  0  0  0
   52.9004  -17.9999  -30.6304 C   0  0  0  0  0  0  0  0  0  0  0  0
   53.3732  -18.7326  -31.8721 C   0  0  0  0  0  0  0  0  0  0  0  0
   54.7961  -18.7405  -31.8855 O   0  0  0  0  0  0  0  0  0  0  0  0
   55.2850  -19.4196  -33.0364 C   0  0  0  0  0  0  0  0  0  0  0  0
   56.8019  -19.4019  -33.0064 C   0  0  0  0  0  0  0  0  0  0  0  0
   57.2908  -20.0811  -34.1573 O   0  0  0  0  0  0  0  0  0  0  0  0
   58.7137  -20.0889  -34.1707 C   0  0  0  0  0  0  0  0  0  0  0  0
   59.1865  -20.8216  -35.4124 C   0  0  0  0  0  0  0  0  0  0  0  0
   60.6094  -20.8296  -35.4257 O   0  0  0  0  0  0  0  0  0  0  0  0
   61.0983  -21.5087  -36.5767 C   0  0  0  0  0  0  0  0  0  0  0  0
   62.6152  -21.4910  -36.5467 C   0  0  0  0  0  0  0  0  0  0  0  0
   63.1041  -22.1702  -37.6976 O   0  0  0  0  0  0  0  0  0  0  0  0
   64.5270  -22.1780  -37.7109 C   0  0  0  0  0  0  0  0  0  0  0  0
   64.9999  -22.9107  -38.9526 C   0  0  0  0  0  0  0  0  0  0  0  0
   66.4228  -22.9187  -38.9660 O   0  0  0  0  0  0  0  0  0  0  0  0
   66.9117  -23.5977  -40.1170 C   0  0  0  0  0  0  0  0  0  0  0  0
   68.4286  -23.5801  -40.0871 C   0  0  0  0  0  0  0  0  0  0  0  0
   68.9177  -24.2594  -41.2379 O   0  0  0  0  0  0  0  0  0  0  0  0
   70.3407  -24.2671  -41.2513 C   0  0  0  0  0  0  0  0  0  0  0  0
   70.8138  -24.9999  -42.4932 C   0  0  0  0  0  0  0  0  0  0  0  0
   72.2369  -25.0085  -42.5069 O   0  0  0  0  0  0  0  0  0  0  0  0
   72.7261  -25.6874  -43.6583 C   0  0  0  0  0  0  0  0  0  0  0  0
   74.2438  -25.6700  -43.6288 C   0  0  0  0  0  0  0  0  0  0  0  0
   74.7359  -26.3500  -44.7789 O   0  0  0  0  0  0  0  0  0  0  0  0
   76.1601  -26.3559  -44.7910 C   0  0  0  0  0  0  0  0  0  0  0  0
   76.6374  -27.0893  -46.0325 C   0  0  0  0  0  0  0  0  0  0  0  0
   78.0629  -27.1083  -46.0474 O   0  0  0  0  0  0  0  0  0  0  0  0
   78.5470  -27.7768  -47.2069 C   0  0  0  0  0  0  0  0  0  0  0  0
   80.0696  -27.7791  -47.1997 C   0  0  0  0  0  0  0  0  0  0  0  0
   80.5740  -28.4532  -48.3476 O   0  0  0  0  0  0  0  0  0  0  0  0
    0.7075    0.6056    0.9000 H   0  0  0  0  0  0  0  0  0  0  0  0
    0.6535   -0.9467    0.0350 H   0  0  0  0  0  0  0  0  0  0  0  0
    0.6535    0.5989   -0.8771 H   0  0  0  0  0  0  0  0  0  0  0  0
    2.5947   -0.1213   -2.0750 H   0  0  0  0  0  0  0  0  0  0  0  0
    2.5947   -1.6472   -1.1746 H   0  0  0  0  0  0  0  0  0  0  0  0
    4.8392   -1.0893   -0.2281 H   0  0  0  0  0  0  0  0  0  0  0  0
    4.8392    0.4375   -1.1291 H   0  0  0  0  0  0  0  0  0  0  0  0
    6.7738   -1.7860   -1.4091 H   0  0  0  0  0  0  0  0  0  0  0  0
    6.7738   -0.2595   -2.3099 H   0  0  0  0  0  0  0  0  0  0  0  0
    6.4807   -1.5202   -4.4465 H   0  0  0  0  0  0  0  0  0  0  0  0
    6.4807   -3.0468   -3.5457 H   0  0  0  0  0  0  0  0  0  0  0  0
    8.4160   -2.2155   -5.6248 H   0  0  0  0  0  0  0  0  0  0  0  0
    8.4160   -3.7421   -4.7240 H   0  0  0  0  0  0  0  0  0  0  0  0
   10.6564   -3.1809   -3.7728 H   0  0  0  0  0  0  0  0  0  0  0  0
   10.6564   -1.6542   -4.6737 H   0  0  0  0  0  0  0  0  0  0  0  0
   12.5908   -3.8761   -4.9509 H   0  0  0  0  0  0  0  0  0  0  0  0
   12.5908   -2.3494   -5.8518 H   0  0  0  0  0  0  0  0  0  0  0  0
   12.2959   -3.6098   -7.9879 H   0  0  0  0  0  0  0  0  0  0  0  0
   12.2959   -5.1365   -7.0870 H   0  0  0  0  0  0  0  0  0  0  0  0
   14.2302   -4.3049   -9.1658 H   0  0  0  0  0  0  0  0  0  0  0  0
   14.2302   -5.8316   -8.2650 H   0  0  0  0  0  0  0  0  0  0  0  0
   16.4702   -5.2701   -7.3134 H   0  0  0  0  0  0  0  0  0  0  0  0
   16.4702   -3.7434   -8.2143 H   0  0  0  0  0  0  0  0  0  0  0  0
   18.4044   -5.9652   -8.4913 H   0  0  0  0  0  0  0  0  0  0  0  0
   18.4044   -4.4385   -9.3922 H   0  0  0  0  0  0  0  0  0  0  0  0
   18.1093   -5.6989  -11.5282 H   0  0  0  0  0  0  0  0  0  0  0  0
   18.1093   -7.2256  -10.6273 H   0  0  0  0  0  0  0  0  0  0  0  0
   20.0435   -6.3940  -12.7061 H   0  0  0  0  0  0  0  0  0  0  0  0
   20.0435   -7.9207  -11.8053 H   0  0  0  0  0  0  0  0  0  0  0  0
   22.2835   -7.3592  -10.8536 H   0  0  0  0  0  0  0  0  0  0  0  0
   22.2835   -5.8325  -11.7545 H   0  0  0  0  0  0  0  0  0  0  0  0
   24.2177   -8.0542  -12.0316 H   0  0  0  0  0  0  0  0  0  0  0  0
   24.2177   -6.5275  -12.9324 H   0  0  0  0  0  0  0  0  0  0  0  0
   23.9226   -7.7879  -15.0685 H   0  0  0  0  0  0  0  0  0  0  0  0
   23.9226   -9.3146  -14.1676 H   0  0  0  0  0  0  0  0  0  0  0  0
   25.8569   -8.4830  -16.2464 H   0  0  0  0  0  0  0  0  0  0  0  0
   25.8569  -10.0097  -15.3455 H   0  0  0  0  0  0  0  0  0  0  0  0
   28.0968   -9.4482  -14.3939 H   0  0  0  0  0  0  0  0  0  0  0  0
   28.0968   -7.9215  -15.2948 H   0  0  0  0  0  0  0  0  0  0  0  0
   30.0311  -10.1433  -15.5718 H   0  0  0  0  0  0  0  0  0  0  0  0
   30.0311   -8.6166  -16.4727 H   0  0  0  0  0  0  0  0  0  0  0  0
   29.7360   -9.8770  -18.6087 H   0  0  0  0  0  0  0  0  0  0  0  0
   29.7360  -11.4037  -17.7078 H   0  0  0  0  0  0  0  0  0  0  0  0
   31.6702  -10.5720  -19.7866 H   0  0  0  0  0  0  0  0  0  0  0  0
   31.6702  -12.0988  -18.8858 H   0  0  0  0  0  0  0  0  0  0  0  0
   33.9102  -11.5372  -17.9341 H   0  0  0  0  0  0  0  0  0  0  0  0
   33.9102  -10.0105  -18.8350 H   0  0  0  0  0  0  0  0  0  0  0  0
   35.8444  -12.2323  -19.1121 H   0  0  0  0  0  0  0  0  0  0  0  0
   35.8444  -10.7056  -20.0129 H   0  0  0  0  0  0  0  0  0  0  0  0
   35.5493  -11.9660  -22.1490 H   0  0  0  0  0  0  0  0  0  0  0  0
   35.5493  -13.4927  -21.2481 H   0  0  0  0  0  0  0  0  0  0  0  0
   37.4835  -12.6611  -23.3269 H   0  0  0  0  0  0  0  0  0  0  0  0
   37.4835  -14.1878  -22.4260 H   0  0  0  0  0  0  0  0  0  0  0  0
   39.7235  -13.6263  -21.4744 H   0  0  0  0  0  0  0  0  0  0  0  0
   39.7235  -12.0996  -22.3753 H   0  0  0  0  0  0  0  0  0  0  0  0
   41.6577  -14.3213  -22.6523 H   0  0  0  0  0  0  0  0  0  0  0  0
   41.6577  -12.7946  -23.5532 H   0  0  0  0  0  0  0  0  0  0  0  0
   41.3626  -14.0550  -25.6892 H   0  0  0  0  0  0  0  0  0  0  0  0
   41.3626  -15.5818  -24.7884 H   0  0  0  0  0  0  0  0  0  0  0  0
   43.2968  -14.7501  -26.8672 H   0  0  0  0  0  0  0  0  0  0  0  0
   43.2968  -16.2768  -25.9663 H   0  0  0  0  0  0  0  0  0  0  0  0
   45.5368  -15.7153  -25.0147 H   0  0  0  0  0  0  0  0  0  0  0  0
   45.5368  -14.1886  -25.9155 H   0  0  0  0  0  0  0  0  0  0  0  0
   47.4710  -16.4104  -26.1926 H   0  0  0  0  0  0  0  0  0  0  0  0
   47.4710  -14.8837  -27.0935 H   0  0  0  0  0  0  0  0  0  0  0  0
   47.1759  -16.1441  -29.2295 H   0  0  0  0  0  0  0  0  0  0  0  0
   47.1759  -17.6708  -28.3286 H   0  0  0  0  0  0  0  0  0  0  0  0
   49.1101  -16.8391  -30.4074 H   0  0  0  0  0  0  0  0  0  0  0  0
   49.1101  -18.3659  -29.5065 H   0  0  0  0  0  0  0  0  0  0  0  0
   51.3501  -17.8043  -28.5549 H   0  0  0  0  0  0  0  0  0  0  0  0
   51.3501  -16.2776  -29.4558 H   0  0  0  0  0  0  0  0  0  0  0  0
   53.2843  -18.4994  -29.7328 H   0  0  0  0  0  0  0  0  0  0  0  0
   53.2843  -16.9727  -30.6337 H   0  0  0  0  0  0  0  0  0  0  0  0
   52.9892  -18.2331  -32.7697 H   0  0  0  0  0  0  0  0  0  0  0  0
   52.9892  -19.7598  -31.8689 H   0  0  0  0  0  0  0  0  0  0  0  0
   54.9234  -18.9282  -33.9477 H   0  0  0  0  0  0  0  0  0  0  0  0
   54.9234  -20.4549  -33.0468 H   0  0  0  0  0  0  0  0  0  0  0  0
   57.1634  -19.8934  -32.0952 H   0  0  0  0  0  0  0  0  0  0  0  0
   57.1634  -18.3667  -32.9961 H   0  0  0  0  0  0  0  0  0  0  0  0
   59.0977  -20.5884  -33.2731 H   0  0  0  0  0  0  0  0  0  0  0  0
   59.0976  -19.0617  -34.1740 H   0  0  0  0  0  0  0  0  0  0  0  0
   58.8026  -20.3221  -36.3100 H   0  0  0  0  0  0  0  0  0  0  0  0
   58.8025  -21.8488  -35.4091 H   0  0  0  0  0  0  0  0  0  0  0  0
   60.7368  -21.0172  -37.4879 H   0  0  0  0  0  0  0  0  0  0  0  0
   60.7368  -22.5439  -36.5871 H   0  0  0  0  0  0  0  0  0  0  0  0
   62.9767  -21.9824  -35.6354 H   0  0  0  0  0  0  0  0  0  0  0  0
   62.9767  -20.4557  -36.5363 H   0  0  0  0  0  0  0  0  0  0  0  0
   64.9110  -22.6774  -36.8133 H   0  0  0  0  0  0  0  0  0  0  0  0
   64.9110  -21.1507  -37.7142 H   0  0  0  0  0  0  0  0  0  0  0  0
   64.6159  -22.4112  -39.8502 H   0  0  0  0  0  0  0  0  0  0  0  0
   64.6158  -23.9379  -38.9494 H   0  0  0  0  0  0  0  0  0  0  0  0
   66.5501  -23.1062  -41.0282 H   0  0  0  0  0  0  0  0  0  0  0  0
   66.5501  -24.6330  -40.1274 H   0  0  0  0  0  0  0  0  0  0  0  0
   68.7901  -24.0714  -39.1757 H   0  0  0  0  0  0  0  0  0  0  0  0
   68.7901  -22.5448  -40.0767 H   0  0  0  0  0  0  0  0  0  0  0  0
   70.7246  -24.7665  -40.3537 H   0  0  0  0  0  0  0  0  0  0  0  0
   70.7244  -23.2398  -41.2546 H   0  0  0  0  0  0  0  0  0  0  0  0
   70.4298  -24.5002  -43.3907 H   0  0  0  0  0  0  0  0  0  0  0  0
   70.4294  -26.0269  -42.4899 H   0  0  0  0  0  0  0  0  0  0  0  0
   72.3642  -25.1955  -44.5692 H   0  0  0  0  0  0  0  0  0  0  0  0
   72.3642  -26.7225  -43.6686 H   0  0  0  0  0  0  0  0  0  0  0  0
   74.6045  -26.1605  -42.7167 H   0  0  0  0  0  0  0  0  0  0  0  0
   74.6046  -24.6345  -43.6184 H   0  0  0  0  0  0  0  0  0  0  0  0
   76.5422  -26.8545  -43.8924 H   0  0  0  0  0  0  0  0  0  0  0  0
   76.5414  -25.3279  -44.7944 H   0  0  0  0  0  0  0  0  0  0  0  0
   76.2554  -26.5877  -46.9300 H   0  0  0  0  0  0  0  0  0  0  0  0
   76.2475  -28.1145  -46.0312 H   0  0  0  0  0  0  0  0  0  0  0  0
   78.1810  -27.2772  -48.1115 H   0  0  0  0  0  0  0  0  0  0  0  0
   78.1761  -28.8086  -47.2214 H   0  0  0  0  0  0  0  0  0  0  0  0
   80.4561  -28.2683  -46.2991 H   0  0  0  0  0  0  0  0  0  0  0  0
   80.4531  -26.7540  -47.1973 H   0  0  0  0  0  0  0  0  0  0  0  0
   80.2517  -29.3671  -48.3131 H   0  0  0  0  0  0  0  0  0  0  0  0
  1  2  1  0  0  0  0
  1 84  1  0  0  0  0
  1 85  1  0  0  0  0
  1 86  1  0  0  0  0
  2  3  1  0  0  0  0
  3  4  1  0  0  0  0
  3 87  1  0  0  0  0
  3 88  1  0  0  0  0
  4  5  1  0  0  0  0
  4 89  1  0  0  0  0
  4 90  1  0  0  0  0
  5  6  1  0  0  0  0
  6  7  1  0  0  0  0
  6 91  1  0  0  0  0
  6 92  1  0  0  0  0
  7  8  1  0  0  0  0
  7 93  1  0  0  0  0
  7 94  1  0  0  0  0
  8  9  1  0  0  0  0
  9 10  1  0  0  0  0
  9 95  1  0  0  0  0
  9 96  1  0  0  0  0
 10 11  1  0  0  0  0
 10 97  1  0  0  0  0
 10 98  1  0  0  0  0
 11 12  1  0  0  0  0
 12 13  1  0  0  0  0
 12 99  1  0  0  0  0
 12100  1  0  0  0  0
 13 14  1  0  0  0  0
 13101  1  0  0  0  0
 13102  1  0  0  0  0
 14 15  1  0  0  0  0
 15 16  1  0  0  0  0
 15103  1  0  0  0  0
 15104  1  0  0  0  0
 16 17  1  0  0  0  0
 16105  1  0  0  0  0
 16106  1  0  0  0  0
 17 18  1  0  0  0  0
 18 19  1  0  0  0  0
 18107  1  0  0  0  0
 18108  1  0  0  0  0
 19 20  1  0  0  0  0
 19109  1  0  0  0  0
 19110  1  0  0  0  0
 20 21  1  0  0  0  0
 21 22  1  0  0  0  0
 21111  1  0  0  0  0
 21112  1  0  0  0  0
 22 23  1  0  0  0  0
 22113  1  0  0  0  0
 22114  1  0  0  0  0
 23 24  1  0  0  0  0
 24 25  1  0  0  0  0
 24115  1  0  0  0  0
 24116  1  0  0  0  0
 25 26  1  0  0  0  0
 25117  1  0  0  0  0
 25118  1  0  0  0  0
 26 27  1  0  0  0  0
 27 28  1  0  0  0  0
 27119  1  0  0  0  0
 27120  1  0  0  0  0
 28 29  1  0  0  0  0
 28121  1  0  0  0  0
 28122  1  0  0  0  0
 29 30  1  0  0  0  0
 30 31  1  0  0  0  0
 30123  1  0  0  0  0
 30124  1  0  0  0  0
 31 32  1  0  0  0  0
 31125  1  0  0  0  0
 31126  1  0  0  0  0
 32 33  1  0  0  0  0
 33 34  1  0  0  0  0
 33127  1  0  0  0  0
 33128  1  0  0  0  0
 34 35  1  0  0  0  0
 34129  1  0  0  0  0
 34130  1  0  0  0  0
 35 36  1  0  0  0  0
 36 37  1  0  0  0  0
 36131  1  0  0  0  0
 36132  1  0  0  0  0
 37 38  1  0  0  0  0
 37133  1  0  0  0  0
 37134  1  0  0  0  0
 38 39  1  0  0  0  0
 39 40  1  0  0  0  0
 39135  1  0  0  0  0
 39136  1  0  0  0  0
 40 41  1  0  0  0  0
 40137  1  0  0  0  0
 40138  1  0  0  0  0
 41 42  1  0  0  0  0
 42 43  1  0  0  0  0
 42139  1  0  0  0  0
 42140  1  0  0  0  0
 43 44  1  0  0  0  0
 43141  1  0  0  0  0
 43142  1  0  0  0  0
 44 45  1  0  0  0  0
 45 46  1  0  0  0  0
 45143  1  0  0  0  0
 45144  1  0  0  0  0
 46 47  1  0  0  0  0
 46145  1  0  0  0  0
 46146  1  0  0  0  0
 47 48  1  0  0  0  0
 48 49  1  0  0  0  0
 48147  1  0  0  0  0
 48148  1  0  0  0  0
 49 50  1  0  0  0  0
 49149  1  0  0  0  0
 49150  1  0  0  0  0
 50 51  1  0  0  0  0
 51 52  1  0  0  0  0
 51151  1  0  0  0  0
 51152  1  0  0  0  0
 52 53  1  0  0  0  0
 52153  1  0  0  0  0
 52154  1  0  0  0  0
 53 54  1  0  0  0  0
 54 55  1  0  0  0  0
 54155  1  0  0  0  0
 54156  1  0  0  0  0
 55 56  1  0  0  0  0
 55157  1  0  0  0  0
 55158  1  0  0  0  0
 56 57  1  0  0  0  0
 57 58  1  0  0  0  0
 57159  1  0  0  0  0
 57160  1  0  0  0  0
 58 59  1  0  0  0  0
 58161  1  0  0  0  0
 58162  1  0  0  0  0
 59 60  1  0  0  0  0
 60 61  1  0  0  0  0
 60163  1  0  0  0  0
 60164  1  0  0  0  0
 61 62  1  0  0  0  0
 61165  1  0  0  0  0
 61166  1  0  0  0  0
 62 63  1  0  0  0  0
 63 64  1  0  0  0  0
 63167  1  0  0  0  0
 63168  1  0  0  0  0
 64 65  1  0  0  0  0
 64169  1  0  0  0  0
 64170  1  0  0  0  0
 65 66  1  0  0  0  0
 66 67  1  0  0  0  0
 66171  1  0  0  0  0
 66172  1  0  0  0  0
 67 68  1  0  0  0  0
 67173  1  0  0  0  0
 67174  1  0  0  0  0
 68 69  1  0  0  0  0
 69 70  1  0  0  0  0
 69175  1  0  0  0  0
 69176  1  0  0  0  0
 70 71  1  0  0  0  0
 70177  1  0  0  0  0
 70178  1  0  0  0  0
 71 72  1  0  0  0  0
 72 73  1  0  0  0  0
 72179  1  0  0  0  0
 72180  1  0  0  0  0
 73 74  1  0  0  0  0
 73181  1  0  0  0  0
 73182  1  0  0  0  0
 74 75  1  0  0  0  0
 75 76  1  0  0  0  0
 75183  1  0  0  0  0
 75184  1  0  0  0  0
 76 77  1  0  0  0  0
 76185  1  0  0  0  0
 76186  1  0  0  0  0
 77 78  1  0  0  0  0
 78 79  1  0  0  0  0
 78187  1  0  0  0  0
 78188  1  0  0  0  0
 79 80  1  0  0  0  0
 79189  1  0  0  0  0
 79190  1  0  0  0  0
 80 81  1  0  0  0  0
 81 82  1  0  0  0  0
 81191  1  0  0  0  0
 81192  1  0  0  0  0
 82 83  1  0  0  0  0
 82193  1  0  0  0  0
 82194  1  0  0  0  0
 83195  1  0  0  0  0
M  END
$$$$
