PEY
 OpenBabel04121316173D

 24 26  0  0  0  0  0  0  0  0999 V2000
    2.8925   -1.5302   -0.0005 C   0  0  0  0  0  0  0  0  0  0  0  0
    3.5518   -0.3110    0.0002 C   0  0  0  0  0  0  0  0  0  0  0  0
    2.8166    0.8727    0.0004 C   0  0  0  0  0  0  0  0  0  0  0  0
    1.4117    0.8537   -0.0002 C   0  0  0  0  0  0  0  0  0  0  0  0
    0.7166   -0.3827   -0.0009 C   0  0  0  0  0  0  0  0  0  0  0  0
    1.4986   -1.5625   -0.0011 C   0  0  0  0  0  0  0  0  0  0  0  0
   -0.7172   -0.3816   -0.0009 C   0  0  0  0  0  0  0  0  0  0  0  0
   -1.5001   -1.5620   -0.0004 C   0  0  0  0  0  0  0  0  0  0  0  0
   -2.8940   -1.5280    0.0017 C   0  0  0  0  0  0  0  0  0  0  0  0
   -3.5523   -0.3088    0.0003 C   0  0  0  0  0  0  0  0  0  0  0  0
   -2.8164    0.8748   -0.0010 C   0  0  0  0  0  0  0  0  0  0  0  0
   -1.4113    0.8539   -0.0006 C   0  0  0  0  0  0  0  0  0  0  0  0
   -0.6960    2.0565    0.0001 C   0  0  0  0  0  0  0  0  0  0  0  0
    0.6970    2.0557    0.0002 C   0  0  0  0  0  0  0  0  0  0  0  0
    3.4520   -2.4612   -0.0004 H   0  0  0  0  0  0  0  0  0  0  0  0
    4.6372   -0.2807    0.0006 H   0  0  0  0  0  0  0  0  0  0  0  0
    3.3534    1.8191    0.0013 H   0  0  0  0  0  0  0  0  0  0  0  0
    1.0321   -2.5430   -0.0016 H   0  0  0  0  0  0  0  0  0  0  0  0
   -1.0344   -2.5424   -0.0013 H   0  0  0  0  0  0  0  0  0  0  0  0
   -3.4543   -2.4589    0.0043 H   0  0  0  0  0  0  0  0  0  0  0  0
   -4.6377   -0.2774    0.0002 H   0  0  0  0  0  0  0  0  0  0  0  0
   -3.3522    1.8213   -0.0019 H   0  0  0  0  0  0  0  0  0  0  0  0
   -1.2179    3.0111    0.0010 H   0  0  0  0  0  0  0  0  0  0  0  0
    1.2195    3.0105    0.0007 H   0  0  0  0  0  0  0  0  0  0  0  0
  1  2  2  0  0  0  0
  1  6  1  0  0  0  0
  1 15  1  0  0  0  0
  2  3  1  0  0  0  0
  2 16  1  0  0  0  0
  3  4  2  0  0  0  0
  3 17  1  0  0  0  0
  4  5  1  0  0  0  0
  4 14  1  0  0  0  0
  5  6  2  0  0  0  0
  5  7  1  0  0  0  0
  6 18  1  0  0  0  0
  7  8  2  0  0  0  0
  7 12  1  0  0  0  0
  8  9  1  0  0  0  0
  8 19  1  0  0  0  0
  9 10  2  0  0  0  0
  9 20  1  0  0  0  0
 10 11  1  0  0  0  0
 10 21  1  0  0  0  0
 11 12  2  0  0  0  0
 11 22  1  0  0  0  0
 12 13  1  0  0  0  0
 13 14  2  0  0  0  0
 13 23  1  0  0  0  0
 14 24  1  0  0  0  0
M  END
$$$$
