PF1
 OpenBabel04121316173D

 29 29  0  0  0  0  0  0  0  0999 V2000
    0.5889   -0.0789    0.3483 O   0  0  0  0  0  0  0  0  0  0  0  0
    1.9952   -0.0154    0.3261 C   0  0  0  0  0  0  0  0  0  0  0  0
    2.8162    0.8231    1.2883 C   0  0  0  0  0  0  0  0  0  0  0  0
    4.3002    0.8628    1.0741 N   0  0  0  0  0  0  0  0  0  0  0  0
    5.1056    0.1925    0.0055 C   0  0  0  0  0  0  0  0  0  0  0  0
    4.4010   -0.4608   -1.1427 C   0  0  0  0  0  0  0  0  0  0  0  0
    4.2930   -1.8401   -1.1755 C   0  0  0  0  0  0  0  0  0  0  0  0
    3.4120   -2.5009   -1.9414 N   0  0  0  0  0  0  0  0  0  0  0  0
    2.6323   -1.7512   -2.7361 C   0  0  0  0  0  0  0  0  0  0  0  0
    2.6903   -0.4003   -2.8174 N   0  0  0  0  0  0  0  0  0  0  0  0
    3.6026    0.2302   -2.0461 C   0  0  0  0  0  0  0  0  0  0  0  0
    3.5457    1.6385   -1.9924 N   0  0  0  0  0  0  0  0  0  0  0  0
    1.6425   -2.4919   -3.5850 C   0  0  0  0  0  0  0  0  0  0  0  0
    5.0641    1.5240    2.0384 C   0  0  0  0  0  0  0  0  0  0  0  0
    6.2756    1.5733    2.0664 O   0  0  0  0  0  0  0  0  0  0  0  0
    0.3890   -0.4083   -0.5606 H   0  0  0  0  0  0  0  0  0  0  0  0
    2.0992    0.5347   -0.5803 H   0  0  0  0  0  0  0  0  0  0  0  0
    2.3681   -1.0370    0.2912 H   0  0  0  0  0  0  0  0  0  0  0  0
    2.6130    0.5297    2.3228 H   0  0  0  0  0  0  0  0  0  0  0  0
    2.4857    1.8684    1.2049 H   0  0  0  0  0  0  0  0  0  0  0  0
    5.7330   -0.5504    0.5174 H   0  0  0  0  0  0  0  0  0  0  0  0
    5.8093    0.9329   -0.3976 H   0  0  0  0  0  0  0  0  0  0  0  0
    4.8487   -2.4707   -0.4857 H   0  0  0  0  0  0  0  0  0  0  0  0
    2.6378    1.9452   -2.3413 H   0  0  0  0  0  0  0  0  0  0  0  0
    3.7138    2.0116   -1.0601 H   0  0  0  0  0  0  0  0  0  0  0  0
    1.8260   -3.5720   -3.5329 H   0  0  0  0  0  0  0  0  0  0  0  0
    1.7573   -2.1789   -4.6244 H   0  0  0  0  0  0  0  0  0  0  0  0
    0.6116   -2.3127   -3.2617 H   0  0  0  0  0  0  0  0  0  0  0  0
    4.4386    2.0296    2.7989 H   0  0  0  0  0  0  0  0  0  0  0  0
  1  2  1  0  0  0  0
  1 16  1  0  0  0  0
  2  3  1  0  0  0  0
  2 17  1  0  0  0  0
  2 18  1  0  0  0  0
  3  4  1  0  0  0  0
  3 19  1  0  0  0  0
  3 20  1  0  0  0  0
  4  5  1  0  0  0  0
  4 14  1  0  0  0  0
  5  6  1  0  0  0  0
  5 21  1  0  0  0  0
  5 22  1  0  0  0  0
  6  7  2  0  0  0  0
  6 11  1  0  0  0  0
  7  8  1  0  0  0  0
  7 23  1  0  0  0  0
  8  9  2  0  0  0  0
  9 10  1  0  0  0  0
  9 13  1  0  0  0  0
 10 11  2  0  0  0  0
 11 12  1  0  0  0  0
 12 24  1  0  0  0  0
 12 25  1  0  0  0  0
 13 26  1  0  0  0  0
 13 27  1  0  0  0  0
 13 28  1  0  0  0  0
 14 15  2  0  0  0  0
 14 29  1  0  0  0  0
M  END
$$$$
