PF2
 OpenBabel04121316173D

 50 53  0  0  1  0  0  0  0  0999 V2000
    1.0238   -0.0364    0.0388 O   0  0  0  0  0  0  0  0  0  0  0  0
    2.2657   -0.0088    0.0044 C   0  0  0  0  0  0  0  0  0  0  0  0
    2.9980   -1.1704    0.2734 N   0  0  0  0  0  0  0  0  0  0  0  0
    4.4299   -1.3554    0.4660 C   0  0  0  0  0  0  0  0  0  0  0  0
    4.7229   -2.7349   -0.0298 C   0  0  0  0  0  0  0  0  0  0  0  0
    3.4972   -3.4990    0.4041 C   0  0  0  0  0  0  0  0  0  0  0  0
    2.3692   -2.4609    0.5711 C   0  0  0  0  0  0  0  0  0  0  0  0
    3.7612   -4.1322    1.5703 F   0  0  0  0  0  0  0  0  0  0  0  0
    3.2036   -4.4365   -0.5200 F   0  0  0  0  0  0  0  0  0  0  0  0
    3.0316    1.2853   -0.4571 C   0  0  1  0  0  0  0  0  0  0  0  0
    3.1320    1.2180   -1.5468 H   0  0  0  0  0  0  0  0  0  0  0  0
    2.3503    2.5778   -0.1567 N   0  0  0  0  0  0  0  0  0  0  0  0
    3.4358    3.5688    0.0256 C   0  0  0  0  0  0  0  0  0  0  0  0
    4.6012    2.8282    0.6732 C   0  0  2  0  0  0  0  0  0  0  0  0
    5.5427    3.1840    0.2320 H   0  0  0  0  0  0  0  0  0  0  0  0
    4.3789    1.4223    0.2057 C   0  0  0  0  0  0  0  0  0  0  0  0
    4.7134    2.9260    2.1438 N   0  0  0  0  0  0  0  0  0  0  0  0
    5.9797    2.3020    2.6270 C   0  0  0  0  0  0  0  0  0  0  0  0
    6.1446    2.4476    4.1486 C   0  0  0  0  0  0  0  0  0  0  0  0
    4.9854    1.8959    4.8241 N   0  0  0  0  0  0  0  0  0  0  0  0
    3.7000    2.4542    4.4293 C   0  0  0  0  0  0  0  0  0  0  0  0
    3.5565    2.3542    2.8933 C   0  0  0  0  0  0  0  0  0  0  0  0
    5.1064    0.9128    5.7608 C   0  0  0  0  0  0  0  0  0  0  0  0
    4.1605    0.8067    6.7056 N   0  0  0  0  0  0  0  0  0  0  0  0
    4.2482   -0.2278    7.5614 C   0  0  0  0  0  0  0  0  0  0  0  0
    5.1874   -1.2185    7.4592 C   0  0  0  0  0  0  0  0  0  0  0  0
    6.1694   -0.9783    6.5359 C   0  0  0  0  0  0  0  0  0  0  0  0
    6.1572    0.0738    5.6931 N   0  0  0  0  0  0  0  0  0  0  0  0
    4.6414   -1.2538    1.5406 H   0  0  0  0  0  0  0  0  0  0  0  0
    5.0597   -0.7001   -0.1152 H   0  0  0  0  0  0  0  0  0  0  0  0
    5.6649   -3.0952    0.3928 H   0  0  0  0  0  0  0  0  0  0  0  0
    4.8145   -2.7020   -1.1213 H   0  0  0  0  0  0  0  0  0  0  0  0
    2.0322   -2.4394    1.6149 H   0  0  0  0  0  0  0  0  0  0  0  0
    1.5180   -2.6410   -0.0884 H   0  0  0  0  0  0  0  0  0  0  0  0
    1.8278    2.4885    0.7142 H   0  0  0  0  0  0  0  0  0  0  0  0
    3.1369    4.4459    0.6076 H   0  0  0  0  0  0  0  0  0  0  0  0
    3.7542    3.9330   -0.9611 H   0  0  0  0  0  0  0  0  0  0  0  0
    4.4172    0.7867    1.0795 H   0  0  0  0  0  0  0  0  0  0  0  0
    5.1763    1.1463   -0.4868 H   0  0  0  0  0  0  0  0  0  0  0  0
    6.8372    2.7848    2.1431 H   0  0  0  0  0  0  0  0  0  0  0  0
    6.0280    1.2343    2.3721 H   0  0  0  0  0  0  0  0  0  0  0  0
    6.2014    3.5148    4.3936 H   0  0  0  0  0  0  0  0  0  0  0  0
    7.0911    1.9992    4.4666 H   0  0  0  0  0  0  0  0  0  0  0  0
    3.6519    3.5091    4.7175 H   0  0  0  0  0  0  0  0  0  0  0  0
    2.8433    1.9398    4.8811 H   0  0  0  0  0  0  0  0  0  0  0  0
    2.6374    2.8716    2.6061 H   0  0  0  0  0  0  0  0  0  0  0  0
    3.4075    1.2896    2.6726 H   0  0  0  0  0  0  0  0  0  0  0  0
    3.5248   -0.2209    8.3702 H   0  0  0  0  0  0  0  0  0  0  0  0
    5.1749   -2.0982    8.0856 H   0  0  0  0  0  0  0  0  0  0  0  0
    7.0302   -1.6353    6.4536 H   0  0  0  0  0  0  0  0  0  0  0  0
  1  2  2  0  0  0  0
  2  3  1  0  0  0  0
  2 10  1  0  0  0  0
  3  4  1  0  0  0  0
  3  7  1  0  0  0  0
  4  5  1  0  0  0  0
  4 29  1  0  0  0  0
  4 30  1  0  0  0  0
  5  6  1  0  0  0  0
  5 31  1  0  0  0  0
  5 32  1  0  0  0  0
  6  7  1  0  0  0  0
  6  8  1  0  0  0  0
  6  9  1  0  0  0  0
  7 33  1  0  0  0  0
  7 34  1  0  0  0  0
 10 11  1  6  0  0  0
 10 12  1  0  0  0  0
 10 16  1  0  0  0  0
 12 13  1  0  0  0  0
 12 35  1  0  0  0  0
 13 14  1  0  0  0  0
 13 36  1  0  0  0  0
 13 37  1  0  0  0  0
 14 16  1  0  0  0  0
 14 17  1  0  0  0  0
 14 15  1  6  0  0  0
 16 38  1  0  0  0  0
 16 39  1  0  0  0  0
 17 18  1  0  0  0  0
 17 22  1  0  0  0  0
 18 19  1  0  0  0  0
 18 40  1  0  0  0  0
 18 41  1  0  0  0  0
 19 20  1  0  0  0  0
 19 42  1  0  0  0  0
 19 43  1  0  0  0  0
 20 21  1  0  0  0  0
 20 23  1  0  0  0  0
 21 22  1  0  0  0  0
 21 44  1  0  0  0  0
 21 45  1  0  0  0  0
 22 46  1  0  0  0  0
 22 47  1  0  0  0  0
 23 24  2  0  0  0  0
 23 28  1  0  0  0  0
 24 25  1  0  0  0  0
 25 26  2  0  0  0  0
 25 48  1  0  0  0  0
 26 27  1  0  0  0  0
 26 49  1  0  0  0  0
 27 28  2  0  0  0  0
 27 50  1  0  0  0  0
M  END
$$$$
