PF6
 OpenBabel04121316173D

 50 54  0  0  0  0  0  0  0  0999 V2000
   -1.3461    0.3011    0.8082 N   0  0  0  0  0  0  0  0  0  0  0  0
   -0.6939    1.3938    0.3666 C   0  0  0  0  0  0  0  0  0  0  0  0
    0.6811    1.4484    0.1759 C   0  0  0  0  0  0  0  0  0  0  0  0
    1.4599    0.3276    0.5031 C   0  0  0  0  0  0  0  0  0  0  0  0
    0.8188   -0.7120    1.1858 C   0  0  0  0  0  0  0  0  0  0  0  0
   -0.5703   -0.7301    1.2034 C   0  0  0  0  0  0  0  0  0  0  0  0
    2.8755    0.2540   -0.0454 C   0  0  0  0  0  0  0  0  0  0  0  0
    3.3860   -1.1599   -0.1979 C   0  0  0  0  0  0  0  0  0  0  0  0
    4.7216   -1.4977   -0.0623 C   0  0  0  0  0  0  0  0  0  0  0  0
    4.7894   -2.8521   -0.1232 N   0  0  0  0  0  0  0  0  0  0  0  0
    5.6043   -3.4445   -0.0061 H   0  0  0  0  0  0  0  0  0  0  0  0
    3.6191   -3.4365   -0.3906 N   0  0  0  0  0  0  0  0  0  0  0  0
    2.7618   -2.4192   -0.5769 C   0  0  0  0  0  0  0  0  0  0  0  0
    1.3795   -2.6914   -1.0119 C   0  0  0  0  0  0  0  0  0  0  0  0
    0.7105   -3.8770   -0.6603 C   0  0  0  0  0  0  0  0  0  0  0  0
   -0.6693   -4.0126   -0.8788 C   0  0  0  0  0  0  0  0  0  0  0  0
   -1.4077   -2.9102   -1.3017 C   0  0  0  0  0  0  0  0  0  0  0  0
   -0.7420   -1.7499   -1.6629 C   0  0  0  0  0  0  0  0  0  0  0  0
    0.6418   -1.6775   -1.6210 C   0  0  0  0  0  0  0  0  0  0  0  0
   -2.7619   -3.0120   -1.2348 O   0  0  0  0  0  0  0  0  0  0  0  0
   -3.4912   -1.7872   -1.3825 C   0  0  0  0  0  0  0  0  0  0  0  0
   -4.9069   -2.0850   -1.7772 C   0  0  0  0  0  0  0  0  0  0  0  0
   -5.7527   -1.0306   -2.0927 C   0  0  0  0  0  0  0  0  0  0  0  0
   -7.0328   -1.3361   -2.5270 C   0  0  0  0  0  0  0  0  0  0  0  0
   -7.3883   -2.6780   -2.6751 C   0  0  0  0  0  0  0  0  0  0  0  0
   -6.4745   -3.6789   -2.3233 C   0  0  0  0  0  0  0  0  0  0  0  0
   -5.2582   -3.3860   -1.8578 N   0  0  0  0  0  0  0  0  0  0  0  0
   -6.8015   -5.0090   -2.4866 C   0  0  0  0  0  0  0  0  0  0  0  0
   -7.9795   -5.3586   -3.1465 C   0  0  0  0  0  0  0  0  0  0  0  0
   -8.8576   -4.3636   -3.5617 C   0  0  0  0  0  0  0  0  0  0  0  0
   -8.6229   -3.0337   -3.2304 C   0  0  0  0  0  0  0  0  0  0  0  0
   -1.3322    2.2337    0.1120 H   0  0  0  0  0  0  0  0  0  0  0  0
    1.1213    2.3273   -0.2843 H   0  0  0  0  0  0  0  0  0  0  0  0
    1.3399   -1.6186    1.4777 H   0  0  0  0  0  0  0  0  0  0  0  0
   -1.0925   -1.6715    1.3774 H   0  0  0  0  0  0  0  0  0  0  0  0
    3.5321    0.8325    0.6140 H   0  0  0  0  0  0  0  0  0  0  0  0
    2.9165    0.7183   -1.0420 H   0  0  0  0  0  0  0  0  0  0  0  0
    5.6055   -0.8951    0.0945 H   0  0  0  0  0  0  0  0  0  0  0  0
    1.2384   -4.6677   -0.1312 H   0  0  0  0  0  0  0  0  0  0  0  0
   -1.1792   -4.9367   -0.6150 H   0  0  0  0  0  0  0  0  0  0  0  0
   -1.2592   -0.8072   -1.8019 H   0  0  0  0  0  0  0  0  0  0  0  0
    1.0775   -0.7121   -1.8485 H   0  0  0  0  0  0  0  0  0  0  0  0
   -3.1062   -1.1665   -2.1991 H   0  0  0  0  0  0  0  0  0  0  0  0
   -3.4916   -1.2342   -0.4369 H   0  0  0  0  0  0  0  0  0  0  0  0
   -5.4193   -0.0004   -2.0321 H   0  0  0  0  0  0  0  0  0  0  0  0
   -7.7112   -0.5363   -2.7984 H   0  0  0  0  0  0  0  0  0  0  0  0
   -6.1128   -5.7762   -2.1456 H   0  0  0  0  0  0  0  0  0  0  0  0
   -8.1961   -6.4038   -3.3390 H   0  0  0  0  0  0  0  0  0  0  0  0
   -9.7289   -4.6181   -4.1585 H   0  0  0  0  0  0  0  0  0  0  0  0
   -9.3655   -2.2756   -3.4432 H   0  0  0  0  0  0  0  0  0  0  0  0
  1  2  2  0  0  0  0
  1  6  1  0  0  0  0
  2  3  1  0  0  0  0
  2 32  1  0  0  0  0
  3  4  2  0  0  0  0
  3 33  1  0  0  0  0
  4  5  1  0  0  0  0
  4  7  1  0  0  0  0
  5  6  2  0  0  0  0
  5 34  1  0  0  0  0
  6 35  1  0  0  0  0
  7  8  1  0  0  0  0
  7 36  1  0  0  0  0
  7 37  1  0  0  0  0
  8  9  2  0  0  0  0
  8 13  1  0  0  0  0
  9 10  1  0  0  0  0
  9 38  1  0  0  0  0
 10 11  1  0  0  0  0
 10 12  1  0  0  0  0
 12 13  2  0  0  0  0
 13 14  1  0  0  0  0
 14 15  2  0  0  0  0
 14 19  1  0  0  0  0
 15 16  1  0  0  0  0
 15 39  1  0  0  0  0
 16 17  2  0  0  0  0
 16 40  1  0  0  0  0
 17 18  1  0  0  0  0
 17 20  1  0  0  0  0
 18 19  2  0  0  0  0
 18 41  1  0  0  0  0
 19 42  1  0  0  0  0
 20 21  1  0  0  0  0
 21 22  1  0  0  0  0
 21 43  1  0  0  0  0
 21 44  1  0  0  0  0
 22 23  2  0  0  0  0
 22 27  1  0  0  0  0
 23 24  1  0  0  0  0
 23 45  1  0  0  0  0
 24 25  2  0  0  0  0
 24 46  1  0  0  0  0
 25 26  1  0  0  0  0
 25 31  1  0  0  0  0
 26 27  2  0  0  0  0
 26 28  1  0  0  0  0
 28 29  2  0  0  0  0
 28 47  1  0  0  0  0
 29 30  1  0  0  0  0
 29 48  1  0  0  0  0
 30 31  2  0  0  0  0
 30 49  1  0  0  0  0
 31 50  1  0  0  0  0
M  END
$$$$
