PF9
 OpenBabel04121316173D

 50 54  0  0  0  0  0  0  0  0999 V2000
    0.9242   -0.0340    0.0132 C   0  0  0  0  0  0  0  0  0  0  0  0
    2.3674   -0.0520    0.0306 N   0  0  0  0  0  0  0  0  0  0  0  0
    3.0433    1.0992   -0.0141 N   0  0  0  0  0  0  0  0  0  0  0  0
    4.3345    0.7313   -0.0020 C   0  0  0  0  0  0  0  0  0  0  0  0
    4.4706   -0.7070    0.1930 C   0  0  0  0  0  0  0  0  0  0  0  0
    3.1657   -1.1565    0.0892 C   0  0  0  0  0  0  0  0  0  0  0  0
    5.6470   -1.6014    0.2881 C   0  0  0  0  0  0  0  0  0  0  0  0
    6.9274   -1.1144    0.5455 C   0  0  0  0  0  0  0  0  0  0  0  0
    8.0233   -1.8094    0.0665 C   0  0  0  0  0  0  0  0  0  0  0  0
    7.9673   -3.1127   -0.2142 N   0  0  0  0  0  0  0  0  0  0  0  0
    6.7550   -3.6836   -0.0672 C   0  0  0  0  0  0  0  0  0  0  0  0
    5.5706   -2.9690    0.0669 C   0  0  0  0  0  0  0  0  0  0  0  0
    5.3779    1.7413   -0.1849 C   0  0  0  0  0  0  0  0  0  0  0  0
    5.2195    3.0837    0.1490 C   0  0  0  0  0  0  0  0  0  0  0  0
    6.2987    3.9544   -0.0244 C   0  0  0  0  0  0  0  0  0  0  0  0
    7.5704    3.4385   -0.2682 C   0  0  0  0  0  0  0  0  0  0  0  0
    7.7323    2.0873   -0.4540 C   0  0  0  0  0  0  0  0  0  0  0  0
    6.6024    1.3520   -0.7072 C   0  0  0  0  0  0  0  0  0  0  0  0
    8.5892    4.3225   -0.3993 O   0  0  0  0  0  0  0  0  0  0  0  0
    9.8556    3.7379   -0.7137 C   0  0  0  0  0  0  0  0  0  0  0  0
   10.8325    4.8208   -1.0465 C   0  0  0  0  0  0  0  0  0  0  0  0
   12.0582    4.4766   -1.5903 C   0  0  0  0  0  0  0  0  0  0  0  0
   12.9376    5.4984   -1.9038 C   0  0  0  0  0  0  0  0  0  0  0  0
   12.5311    6.8232   -1.7059 C   0  0  0  0  0  0  0  0  0  0  0  0
   11.2829    7.0791   -1.1305 C   0  0  0  0  0  0  0  0  0  0  0  0
   10.4565    6.0936   -0.7766 N   0  0  0  0  0  0  0  0  0  0  0  0
   10.8645    8.3884   -0.9507 C   0  0  0  0  0  0  0  0  0  0  0  0
   11.6105    9.4375   -1.4875 C   0  0  0  0  0  0  0  0  0  0  0  0
   12.8160    9.1743   -2.1258 C   0  0  0  0  0  0  0  0  0  0  0  0
   13.3348    7.8827   -2.1375 C   0  0  0  0  0  0  0  0  0  0  0  0
    0.5683    1.0003    0.0137 H   0  0  0  0  0  0  0  0  0  0  0  0
    0.5662   -0.5475    0.9088 H   0  0  0  0  0  0  0  0  0  0  0  0
    0.5802   -0.5459   -0.8885 H   0  0  0  0  0  0  0  0  0  0  0  0
    2.7343   -2.1458    0.0619 H   0  0  0  0  0  0  0  0  0  0  0  0
    7.0929   -0.1426    0.9888 H   0  0  0  0  0  0  0  0  0  0  0  0
    8.9721   -1.3103   -0.1199 H   0  0  0  0  0  0  0  0  0  0  0  0
    6.7620   -4.7667   -0.0504 H   0  0  0  0  0  0  0  0  0  0  0  0
    4.6252   -3.4909    0.0252 H   0  0  0  0  0  0  0  0  0  0  0  0
    4.2587    3.4619    0.4859 H   0  0  0  0  0  0  0  0  0  0  0  0
    6.1563    5.0284    0.0359 H   0  0  0  0  0  0  0  0  0  0  0  0
    8.6954    1.5927   -0.5026 H   0  0  0  0  0  0  0  0  0  0  0  0
    6.7240    0.4010   -1.2072 H   0  0  0  0  0  0  0  0  0  0  0  0
    9.7934    3.0690   -1.5869 H   0  0  0  0  0  0  0  0  0  0  0  0
   10.2311    3.1947    0.1611 H   0  0  0  0  0  0  0  0  0  0  0  0
   12.3202    3.4419   -1.7869 H   0  0  0  0  0  0  0  0  0  0  0  0
   13.8958    5.2629   -2.3479 H   0  0  0  0  0  0  0  0  0  0  0  0
    9.9288    8.5855   -0.4387 H   0  0  0  0  0  0  0  0  0  0  0  0
   11.2381   10.4550   -1.4120 H   0  0  0  0  0  0  0  0  0  0  0  0
   13.3569    9.9706   -2.6286 H   0  0  0  0  0  0  0  0  0  0  0  0
   14.3285    7.6975   -2.5236 H   0  0  0  0  0  0  0  0  0  0  0  0
  1  2  1  0  0  0  0
  1 31  1  0  0  0  0
  1 32  1  0  0  0  0
  1 33  1  0  0  0  0
  2  3  1  0  0  0  0
  2  6  1  0  0  0  0
  3  4  2  0  0  0  0
  4  5  1  0  0  0  0
  4 13  1  0  0  0  0
  5  6  2  0  0  0  0
  5  7  1  0  0  0  0
  6 34  1  0  0  0  0
  7  8  2  0  0  0  0
  7 12  1  0  0  0  0
  8  9  1  0  0  0  0
  8 35  1  0  0  0  0
  9 10  2  0  0  0  0
  9 36  1  0  0  0  0
 10 11  1  0  0  0  0
 11 12  2  0  0  0  0
 11 37  1  0  0  0  0
 12 38  1  0  0  0  0
 13 14  2  0  0  0  0
 13 18  1  0  0  0  0
 14 15  1  0  0  0  0
 14 39  1  0  0  0  0
 15 16  2  0  0  0  0
 15 40  1  0  0  0  0
 16 17  1  0  0  0  0
 16 19  1  0  0  0  0
 17 18  2  0  0  0  0
 17 41  1  0  0  0  0
 18 42  1  0  0  0  0
 19 20  1  0  0  0  0
 20 21  1  0  0  0  0
 20 43  1  0  0  0  0
 20 44  1  0  0  0  0
 21 22  2  0  0  0  0
 21 26  1  0  0  0  0
 22 23  1  0  0  0  0
 22 45  1  0  0  0  0
 23 24  2  0  0  0  0
 23 46  1  0  0  0  0
 24 25  1  0  0  0  0
 24 30  1  0  0  0  0
 25 26  2  0  0  0  0
 25 27  1  0  0  0  0
 27 28  2  0  0  0  0
 27 47  1  0  0  0  0
 28 29  1  0  0  0  0
 28 48  1  0  0  0  0
 29 30  2  0  0  0  0
 29 49  1  0  0  0  0
 30 50  1  0  0  0  0
M  END
$$$$
