PFA
 OpenBabel04121316173D

 48 50  0  0  0  0  0  0  0  0999 V2000
    1.3226    0.6690   -0.1128 C   0  0  0  0  0  0  0  0  0  0  0  0
    2.6746    0.1698   -0.0582 C   0  0  0  0  0  0  0  0  0  0  0  0
    3.4298    1.3369   -0.0365 C   0  0  0  0  0  0  0  0  0  0  0  0
    4.7686    1.3133   -0.0423 C   0  0  0  0  0  0  0  0  0  0  0  0
    5.3326    0.0465   -0.0423 C   0  0  0  0  0  0  0  0  0  0  0  0
    4.5710   -1.1654   -0.0468 C   0  0  0  0  0  0  0  0  0  0  0  0
    3.1712   -1.1414   -0.0559 C   0  0  0  0  0  0  0  0  0  0  0  0
    2.4992   -2.3865   -0.0520 O   0  0  0  0  0  0  0  0  0  0  0  0
    1.1213   -2.5440   -0.1469 C   0  0  0  0  0  0  0  0  0  0  0  0
    0.4551   -3.7446   -0.2736 C   0  0  0  0  0  0  0  0  0  0  0  0
   -0.9700   -3.7291   -0.3223 C   0  0  0  0  0  0  0  0  0  0  0  0
   -1.6774   -2.5151   -0.4674 C   0  0  0  0  0  0  0  0  0  0  0  0
   -1.0438   -1.3133   -0.2604 C   0  0  0  0  0  0  0  0  0  0  0  0
    0.2554   -1.5355    0.2088 C   0  0  0  0  0  0  0  0  0  0  0  0
   -1.7759    0.0493   -0.4817 C   0  0  0  0  0  0  0  0  0  0  0  0
   -2.8854    0.2630    0.5340 C   0  0  0  0  0  0  0  0  0  0  0  0
   -1.1038    1.4405   -0.5029 C   0  0  0  0  0  0  0  0  0  0  0  0
   -3.0126   -2.4726   -0.7247 O   0  0  0  0  0  0  0  0  0  0  0  0
    5.3630   -2.4339   -0.0439 C   0  0  0  0  0  0  0  0  0  0  0  0
    5.4222    2.5638   -0.0517 N   0  0  0  0  0  0  0  0  0  0  0  0
    4.5699    3.6786   -0.0535 N   0  0  0  0  0  0  0  0  0  0  0  0
    5.1006    4.8546   -0.0599 C   0  0  0  0  0  0  0  0  0  0  0  0
    6.5740    5.0424   -0.0620 C   0  0  0  0  0  0  0  0  0  0  0  0
    7.0379    6.1852   -0.0618 O   0  0  0  0  0  0  0  0  0  0  0  0
    7.3080    3.9095   -0.0639 N   0  0  0  0  0  0  0  0  0  0  0  0
    8.3110    3.9440   -0.0680 H   0  0  0  0  0  0  0  0  0  0  0  0
    6.7950    2.6543   -0.0644 C   0  0  0  0  0  0  0  0  0  0  0  0
    7.5947    1.7237   -0.0746 O   0  0  0  0  0  0  0  0  0  0  0  0
    1.2215    1.7480   -0.2367 H   0  0  0  0  0  0  0  0  0  0  0  0
    0.8733    0.5657    0.8763 H   0  0  0  0  0  0  0  0  0  0  0  0
    0.9185    0.2211   -1.0212 H   0  0  0  0  0  0  0  0  0  0  0  0
    2.9178    2.3001   -0.0382 H   0  0  0  0  0  0  0  0  0  0  0  0
    6.4068   -0.0537   -0.0364 H   0  0  0  0  0  0  0  0  0  0  0  0
    0.9919   -4.6884   -0.2221 H   0  0  0  0  0  0  0  0  0  0  0  0
   -1.5219   -4.6570   -0.2171 H   0  0  0  0  0  0  0  0  0  0  0  0
    0.6131   -1.0853    1.1244 H   0  0  0  0  0  0  0  0  0  0  0  0
   -2.1917   -0.0148   -1.4984 H   0  0  0  0  0  0  0  0  0  0  0  0
   -2.4593    0.2964    1.5417 H   0  0  0  0  0  0  0  0  0  0  0  0
   -3.6443   -0.5109    0.4860 H   0  0  0  0  0  0  0  0  0  0  0  0
   -3.3873    1.2218    0.3491 H   0  0  0  0  0  0  0  0  0  0  0  0
   -0.6896    1.6541    0.4907 H   0  0  0  0  0  0  0  0  0  0  0  0
   -1.7538    2.3020   -0.6771 H   0  0  0  0  0  0  0  0  0  0  0  0
   -0.4014    1.5295   -1.3366 H   0  0  0  0  0  0  0  0  0  0  0  0
   -3.3760   -3.3669   -0.7128 H   0  0  0  0  0  0  0  0  0  0  0  0
    6.4381   -2.2145   -0.0391 H   0  0  0  0  0  0  0  0  0  0  0  0
    5.1488   -3.0093   -0.9462 H   0  0  0  0  0  0  0  0  0  0  0  0
    5.1399   -3.0065    0.8577 H   0  0  0  0  0  0  0  0  0  0  0  0
    4.4903    5.7727   -0.0629 H   0  0  0  0  0  0  0  0  0  0  0  0
  1  2  1  0  0  0  0
  1 29  1  0  0  0  0
  1 30  1  0  0  0  0
  1 31  1  0  0  0  0
  2  3  2  0  0  0  0
  2  7  1  0  0  0  0
  3  4  1  0  0  0  0
  3 32  1  0  0  0  0
  4  5  2  0  0  0  0
  4 20  1  0  0  0  0
  5  6  1  0  0  0  0
  5 33  1  0  0  0  0
  6  7  2  0  0  0  0
  6 19  1  0  0  0  0
  7  8  1  0  0  0  0
  8  9  1  0  0  0  0
  9 10  2  0  0  0  0
  9 14  1  0  0  0  0
 10 11  1  0  0  0  0
 10 34  1  0  0  0  0
 11 12  2  0  0  0  0
 11 35  1  0  0  0  0
 12 13  1  0  0  0  0
 12 18  1  0  0  0  0
 13 14  2  0  0  0  0
 13 15  1  0  0  0  0
 14 36  1  0  0  0  0
 15 16  1  0  0  0  0
 15 17  1  0  0  0  0
 15 37  1  0  0  0  0
 16 38  1  0  0  0  0
 16 39  1  0  0  0  0
 16 40  1  0  0  0  0
 17 41  1  0  0  0  0
 17 42  1  0  0  0  0
 17 43  1  0  0  0  0
 18 44  1  0  0  0  0
 19 45  1  0  0  0  0
 19 46  1  0  0  0  0
 19 47  1  0  0  0  0
 20 21  1  0  0  0  0
 20 27  1  0  0  0  0
 21 22  2  0  0  0  0
 22 23  1  0  0  0  0
 22 48  1  0  0  0  0
 23 24  2  0  0  0  0
 23 25  1  0  0  0  0
 25 26  1  0  0  0  0
 25 27  1  0  0  0  0
 27 28  2  0  0  0  0
M  END
$$$$
