PFD
 OpenBabel04121316173D

 48 50  0  0  0  0  0  0  0  0999 V2000
    0.8950   -0.0160    0.0445 C   0  0  0  0  0  0  0  0  0  0  0  0
    2.4028   -0.0030    0.0320 C   0  0  0  0  0  0  0  0  0  0  0  0
    2.8809   -0.7096    1.1752 O   0  0  0  0  0  0  0  0  0  0  0  0
    4.3003   -0.7150    1.1437 C   0  0  0  0  0  0  0  0  0  0  0  0
    4.8270   -1.4951    2.3282 C   0  0  0  0  0  0  0  0  0  0  0  0
    6.3893   -1.4936    2.3805 C   0  0  0  0  0  0  0  0  0  0  0  0
    6.7870   -1.1143    1.0698 O   0  0  0  0  0  0  0  0  0  0  0  0
    8.1099   -1.0362    0.8269 C   0  0  0  0  0  0  0  0  0  0  0  0
    8.7564    0.1903    0.6819 C   0  0  0  0  0  0  0  0  0  0  0  0
   10.0942    0.2266    0.2563 C   0  0  0  0  0  0  0  0  0  0  0  0
   10.8164   -0.9602    0.1794 C   0  0  0  0  0  0  0  0  0  0  0  0
   10.1739   -2.0925    0.6522 C   0  0  0  0  0  0  0  0  0  0  0  0
    8.8092   -2.1946    0.6686 C   0  0  0  0  0  0  0  0  0  0  0  0
   12.1075   -0.9318   -0.3111 O   0  0  0  0  0  0  0  0  0  0  0  0
   12.7827   -2.0853   -0.6885 C   0  0  0  0  0  0  0  0  0  0  0  0
   14.0574   -1.9390   -1.2384 C   0  0  0  0  0  0  0  0  0  0  0  0
   14.7546   -3.0768   -1.6897 C   0  0  0  0  0  0  0  0  0  0  0  0
   14.2706   -4.3551   -1.4198 C   0  0  0  0  0  0  0  0  0  0  0  0
   13.0804   -4.5197   -0.7694 C   0  0  0  0  0  0  0  0  0  0  0  0
   12.3006   -3.3950   -0.5951 C   0  0  0  0  0  0  0  0  0  0  0  0
   14.9010   -5.4425   -1.8744 F   0  0  0  0  0  0  0  0  0  0  0  0
    6.7356   -0.4511    3.4670 C   0  0  0  0  0  0  0  0  0  0  0  0
    7.2853    0.6391    3.2761 O   0  0  0  0  0  0  0  0  0  0  0  0
    6.3349   -0.8115    4.7242 N   0  0  0  0  0  0  0  0  0  0  0  0
    6.6761   -2.0651    5.1341 C   0  0  0  0  0  0  0  0  0  0  0  0
    7.3107   -2.2746    6.1573 O   0  0  0  0  0  0  0  0  0  0  0  0
    6.3305   -3.0608    4.2732 N   0  0  0  0  0  0  0  0  0  0  0  0
    6.7085   -2.9061    2.9666 C   0  0  0  0  0  0  0  0  0  0  0  0
    7.1909   -3.8653    2.3687 O   0  0  0  0  0  0  0  0  0  0  0  0
    0.5061    0.5303   -0.8181 H   0  0  0  0  0  0  0  0  0  0  0  0
    0.5161    0.4434    0.9623 H   0  0  0  0  0  0  0  0  0  0  0  0
    0.5204   -1.0439    0.0165 H   0  0  0  0  0  0  0  0  0  0  0  0
    2.7716    1.0281    0.0659 H   0  0  0  0  0  0  0  0  0  0  0  0
    2.7733   -0.4855   -0.8800 H   0  0  0  0  0  0  0  0  0  0  0  0
    4.6689    0.3167    1.1854 H   0  0  0  0  0  0  0  0  0  0  0  0
    4.6245   -1.1918    0.2115 H   0  0  0  0  0  0  0  0  0  0  0  0
    4.4346   -2.5196    2.2771 H   0  0  0  0  0  0  0  0  0  0  0  0
    4.3819   -1.0843    3.2437 H   0  0  0  0  0  0  0  0  0  0  0  0
    8.2272    1.1123    0.9036 H   0  0  0  0  0  0  0  0  0  0  0  0
   10.5656    1.1820    0.0467 H   0  0  0  0  0  0  0  0  0  0  0  0
   10.6951   -2.9529    1.0392 H   0  0  0  0  0  0  0  0  0  0  0  0
    8.3496   -3.1739    0.6691 H   0  0  0  0  0  0  0  0  0  0  0  0
   14.4953   -0.9533   -1.3781 H   0  0  0  0  0  0  0  0  0  0  0  0
   15.6713   -2.9829   -2.2597 H   0  0  0  0  0  0  0  0  0  0  0  0
   12.6816   -5.4916   -0.5034 H   0  0  0  0  0  0  0  0  0  0  0  0
   11.2660   -3.6549   -0.4686 H   0  0  0  0  0  0  0  0  0  0  0  0
    6.4797   -0.0890    5.4149 H   0  0  0  0  0  0  0  0  0  0  0  0
    6.4965   -3.9948    4.6248 H   0  0  0  0  0  0  0  0  0  0  0  0
  1  2  1  0  0  0  0
  1 30  1  0  0  0  0
  1 31  1  0  0  0  0
  1 32  1  0  0  0  0
  2  3  1  0  0  0  0
  2 33  1  0  0  0  0
  2 34  1  0  0  0  0
  3  4  1  0  0  0  0
  4  5  1  0  0  0  0
  4 35  1  0  0  0  0
  4 36  1  0  0  0  0
  5  6  1  0  0  0  0
  5 37  1  0  0  0  0
  5 38  1  0  0  0  0
  6  7  1  0  0  0  0
  6 22  1  0  0  0  0
  6 28  1  0  0  0  0
  7  8  1  0  0  0  0
  8  9  2  0  0  0  0
  8 13  1  0  0  0  0
  9 10  1  0  0  0  0
  9 39  1  0  0  0  0
 10 11  2  0  0  0  0
 10 40  1  0  0  0  0
 11 12  1  0  0  0  0
 11 14  1  0  0  0  0
 12 13  2  0  0  0  0
 12 41  1  0  0  0  0
 13 42  1  0  0  0  0
 14 15  1  0  0  0  0
 15 16  2  0  0  0  0
 15 20  1  0  0  0  0
 16 17  1  0  0  0  0
 16 43  1  0  0  0  0
 17 18  2  0  0  0  0
 17 44  1  0  0  0  0
 18 19  1  0  0  0  0
 18 21  1  0  0  0  0
 19 20  2  0  0  0  0
 19 45  1  0  0  0  0
 20 46  1  0  0  0  0
 22 23  2  0  0  0  0
 22 24  1  0  0  0  0
 24 25  1  0  0  0  0
 24 47  1  0  0  0  0
 25 26  2  0  0  0  0
 25 27  1  0  0  0  0
 27 28  1  0  0  0  0
 27 48  1  0  0  0  0
 28 29  2  0  0  0  0
M  END
$$$$
