PFE
 OpenBabel04121316173D

 52 55  0  0  0  0  0  0  0  0999 V2000
    0.8913   -0.0236    0.0158 C   0  0  0  0  0  0  0  0  0  0  0  0
    2.4046   -0.0420   -0.0049 C   0  0  0  0  0  0  0  0  0  0  0  0
    2.8546    0.9497    0.9119 O   0  0  0  0  0  0  0  0  0  0  0  0
    4.2130    1.0295    1.0506 C   0  0  0  0  0  0  0  0  0  0  0  0
    4.7073    2.3237    1.0474 C   0  0  0  0  0  0  0  0  0  0  0  0
    6.0365    2.5613    1.4482 C   0  0  0  0  0  0  0  0  0  0  0  0
    6.5662    3.8237    1.6852 C   0  0  0  0  0  0  0  0  0  0  0  0
    7.8227    3.9351    2.1481 N   0  0  0  0  0  0  0  0  0  0  0  0
    8.5753    2.8601    2.3120 C   0  0  0  0  0  0  0  0  0  0  0  0
    8.1751    1.6189    2.0857 N   0  0  0  0  0  0  0  0  0  0  0  0
    6.9066    1.4931    1.6861 C   0  0  0  0  0  0  0  0  0  0  0  0
    6.4266    0.2081    1.5602 C   0  0  0  0  0  0  0  0  0  0  0  0
    5.0698   -0.0343    1.3339 C   0  0  0  0  0  0  0  0  0  0  0  0
    4.5061   -1.2685    1.4467 O   0  0  0  0  0  0  0  0  0  0  0  0
    5.3636   -2.3660    1.7116 C   0  0  0  0  0  0  0  0  0  0  0  0
    4.4901   -3.5992    1.7413 C   0  0  0  0  0  0  0  0  0  0  0  0
    5.7794    4.9884    1.5841 N   0  0  0  0  0  0  0  0  0  0  0  0
    6.2154    6.3260    1.6287 C   0  0  0  0  0  0  0  0  0  0  0  0
    5.2852    7.3654    1.5615 C   0  0  0  0  0  0  0  0  0  0  0  0
    5.7085    8.6903    1.6623 C   0  0  0  0  0  0  0  0  0  0  0  0
    7.0704    8.9891    1.7285 C   0  0  0  0  0  0  0  0  0  0  0  0
    8.0196    7.9719    1.7958 C   0  0  0  0  0  0  0  0  0  0  0  0
    7.5582    6.6667    1.8256 C   0  0  0  0  0  0  0  0  0  0  0  0
    9.4613    8.2015    1.7970 C   0  0  0  0  0  0  0  0  0  0  0  0
   10.0146    9.4612    1.7511 C   0  0  0  0  0  0  0  0  0  0  0  0
   11.7130    9.3741    1.6885 S   0  0  0  0  0  0  0  0  0  0  0  0
   11.6169    7.6559    1.7190 C   0  0  0  0  0  0  0  0  0  0  0  0
   10.3967    7.1610    1.7982 N   0  0  0  0  0  0  0  0  0  0  0  0
   12.9070    6.8942    1.6965 C   0  0  0  0  0  0  0  0  0  0  0  0
   12.6670    5.4910    1.7428 O   0  0  0  0  0  0  0  0  0  0  0  0
    0.4949   -0.7778   -0.6680 H   0  0  0  0  0  0  0  0  0  0  0  0
    0.5094    0.9619   -0.2644 H   0  0  0  0  0  0  0  0  0  0  0  0
    0.5257   -0.2369    1.0269 H   0  0  0  0  0  0  0  0  0  0  0  0
    2.7826    0.1842   -1.0073 H   0  0  0  0  0  0  0  0  0  0  0  0
    2.7040   -1.0500    0.2779 H   0  0  0  0  0  0  0  0  0  0  0  0
    4.0287    3.1263    0.7883 H   0  0  0  0  0  0  0  0  0  0  0  0
    9.5845    3.0288    2.6700 H   0  0  0  0  0  0  0  0  0  0  0  0
    7.1345   -0.5946    1.7236 H   0  0  0  0  0  0  0  0  0  0  0  0
    5.8549   -2.2386    2.6827 H   0  0  0  0  0  0  0  0  0  0  0  0
    6.1059   -2.4641    0.9118 H   0  0  0  0  0  0  0  0  0  0  0  0
    3.7188   -3.5023    2.5128 H   0  0  0  0  0  0  0  0  0  0  0  0
    5.0910   -4.4883    1.9393 H   0  0  0  0  0  0  0  0  0  0  0  0
    3.9689   -3.7189    0.7854 H   0  0  0  0  0  0  0  0  0  0  0  0
    4.8971    4.8796    1.1062 H   0  0  0  0  0  0  0  0  0  0  0  0
    4.2251    7.1590    1.4397 H   0  0  0  0  0  0  0  0  0  0  0  0
    4.9840    9.4984    1.6783 H   0  0  0  0  0  0  0  0  0  0  0  0
    7.3677   10.0300    1.7249 H   0  0  0  0  0  0  0  0  0  0  0  0
    8.3186    5.9162    1.9764 H   0  0  0  0  0  0  0  0  0  0  0  0
    9.5151   10.4146    1.7379 H   0  0  0  0  0  0  0  0  0  0  0  0
   13.5123    7.1637    2.5673 H   0  0  0  0  0  0  0  0  0  0  0  0
   13.4680    7.1213    0.7846 H   0  0  0  0  0  0  0  0  0  0  0  0
   11.9736    5.3585    2.4135 H   0  0  0  0  0  0  0  0  0  0  0  0
  1  2  1  0  0  0  0
  1 31  1  0  0  0  0
  1 32  1  0  0  0  0
  1 33  1  0  0  0  0
  2  3  1  0  0  0  0
  2 34  1  0  0  0  0
  2 35  1  0  0  0  0
  3  4  1  0  0  0  0
  4  5  2  0  0  0  0
  4 13  1  0  0  0  0
  5  6  1  0  0  0  0
  5 36  1  0  0  0  0
  6  7  2  0  0  0  0
  6 11  1  0  0  0  0
  7  8  1  0  0  0  0
  7 17  1  0  0  0  0
  8  9  2  0  0  0  0
  9 10  1  0  0  0  0
  9 37  1  0  0  0  0
 10 11  2  0  0  0  0
 11 12  1  0  0  0  0
 12 13  2  0  0  0  0
 12 38  1  0  0  0  0
 13 14  1  0  0  0  0
 14 15  1  0  0  0  0
 15 16  1  0  0  0  0
 15 39  1  0  0  0  0
 15 40  1  0  0  0  0
 16 41  1  0  0  0  0
 16 42  1  0  0  0  0
 16 43  1  0  0  0  0
 17 18  1  0  0  0  0
 17 44  1  0  0  0  0
 18 19  2  0  0  0  0
 18 23  1  0  0  0  0
 19 20  1  0  0  0  0
 19 45  1  0  0  0  0
 20 21  2  0  0  0  0
 20 46  1  0  0  0  0
 21 22  1  0  0  0  0
 21 47  1  0  0  0  0
 22 23  2  0  0  0  0
 22 24  1  0  0  0  0
 23 48  1  0  0  0  0
 24 25  2  0  0  0  0
 24 28  1  0  0  0  0
 25 26  1  0  0  0  0
 25 49  1  0  0  0  0
 26 27  1  0  0  0  0
 27 28  2  0  0  0  0
 27 29  1  0  0  0  0
 29 30  1  0  0  0  0
 29 50  1  0  0  0  0
 29 51  1  0  0  0  0
 30 52  1  0  0  0  0
M  END
$$$$
