PFH
 OpenBabel04121316173D

 53 57  0  0  1  0  0  0  0  0999 V2000
    0.9255   -0.1174    0.4604 C   0  0  0  0  0  0  0  0  0  0  0  0
    2.3198   -0.0869    0.1222 O   0  0  0  0  0  0  0  0  0  0  0  0
    2.9286    1.0083    0.6675 C   0  0  0  0  0  0  0  0  0  0  0  0
    3.8125    0.7391    1.7124 C   0  0  0  0  0  0  0  0  0  0  0  0
    4.2447    1.7619    2.5819 C   0  0  0  0  0  0  0  0  0  0  0  0
    3.9644    3.0881    2.2462 C   0  0  0  0  0  0  0  0  0  0  0  0
    3.2580    3.3435    1.0566 C   0  0  0  0  0  0  0  0  0  0  0  0
    2.6870    2.3170    0.2764 C   0  0  0  0  0  0  0  0  0  0  0  0
    1.8883    2.7336   -0.7595 O   0  0  0  0  0  0  0  0  0  0  0  0
    1.5226    1.8165   -1.7951 C   0  0  0  0  0  0  0  0  0  0  0  0
    4.3292    4.1041    3.0442 N   0  0  0  0  0  0  0  0  0  0  0  0
    4.9510    3.7742    4.1888 C   0  0  0  0  0  0  0  0  0  0  0  0
    5.2957    2.5447    4.5908 N   0  0  0  0  0  0  0  0  0  0  0  0
    4.9377    1.5241    3.7914 C   0  0  0  0  0  0  0  0  0  0  0  0
    5.2655    0.2663    4.2143 N   0  0  0  0  0  0  0  0  0  0  0  0
    6.6392   -0.1870    4.3148 C   0  0  0  0  0  0  0  0  0  0  0  0
    6.5521   -1.6178    3.8034 C   0  0  0  0  0  0  0  0  0  0  0  0
    5.1638   -2.0821    4.2339 C   0  0  2  0  0  0  0  0  0  0  0  0
    4.7657   -2.5751    3.3514 H   0  0  0  0  0  0  0  0  0  0  0  0
    4.3422   -0.8123    4.5260 C   0  0  0  0  0  0  0  0  0  0  0  0
    5.2720   -2.9133    5.3877 O   0  0  0  0  0  0  0  0  0  0  0  0
    4.5116   -4.0498    5.3989 C   0  0  0  0  0  0  0  0  0  0  0  0
    3.7361   -4.5027    4.3270 C   0  0  0  0  0  0  0  0  0  0  0  0
    3.0300   -5.6891    4.4034 C   0  0  0  0  0  0  0  0  0  0  0  0
    3.1047   -6.4664    5.5419 C   0  0  0  0  0  0  0  0  0  0  0  0
    3.8606   -6.0220    6.6605 C   0  0  0  0  0  0  0  0  0  0  0  0
    4.5558   -4.8053    6.5723 C   0  0  0  0  0  0  0  0  0  0  0  0
    3.9118   -6.8413    7.7910 C   0  0  0  0  0  0  0  0  0  0  0  0
    3.3898   -8.1346    7.7420 C   0  0  0  0  0  0  0  0  0  0  0  0
    2.7338   -8.5873    6.5965 C   0  0  0  0  0  0  0  0  0  0  0  0
    2.4926   -7.7123    5.5503 C   0  0  0  0  0  0  0  0  0  0  0  0
    0.4508   -0.7907   -0.2603 H   0  0  0  0  0  0  0  0  0  0  0  0
    0.4297    0.8592    0.3910 H   0  0  0  0  0  0  0  0  0  0  0  0
    0.7615   -0.4873    1.4725 H   0  0  0  0  0  0  0  0  0  0  0  0
    4.1032   -0.2868    1.8954 H   0  0  0  0  0  0  0  0  0  0  0  0
    3.1130    4.3789    0.7551 H   0  0  0  0  0  0  0  0  0  0  0  0
    1.0364    2.3851   -2.5914 H   0  0  0  0  0  0  0  0  0  0  0  0
    0.7423    1.1126   -1.5075 H   0  0  0  0  0  0  0  0  0  0  0  0
    2.3814    1.2737   -2.1980 H   0  0  0  0  0  0  0  0  0  0  0  0
    5.1904    4.5915    4.8646 H   0  0  0  0  0  0  0  0  0  0  0  0
    6.9624   -0.1881    5.3606 H   0  0  0  0  0  0  0  0  0  0  0  0
    7.3418    0.3935    3.7106 H   0  0  0  0  0  0  0  0  0  0  0  0
    7.3581   -2.2619    4.1670 H   0  0  0  0  0  0  0  0  0  0  0  0
    6.5897   -1.6207    2.7047 H   0  0  0  0  0  0  0  0  0  0  0  0
    4.0343   -0.7677    5.5772 H   0  0  0  0  0  0  0  0  0  0  0  0
    3.4300   -0.8074    3.9211 H   0  0  0  0  0  0  0  0  0  0  0  0
    3.6564   -3.9971    3.3776 H   0  0  0  0  0  0  0  0  0  0  0  0
    2.4717   -6.0153    3.5274 H   0  0  0  0  0  0  0  0  0  0  0  0
    5.1738   -4.4703    7.4069 H   0  0  0  0  0  0  0  0  0  0  0  0
    4.4003   -6.4973    8.7018 H   0  0  0  0  0  0  0  0  0  0  0  0
    3.5016   -8.7987    8.5924 H   0  0  0  0  0  0  0  0  0  0  0  0
    2.4165   -9.6211    6.5123 H   0  0  0  0  0  0  0  0  0  0  0  0
    1.8698   -8.0262    4.7136 H   0  0  0  0  0  0  0  0  0  0  0  0
  1  2  1  0  0  0  0
  1 32  1  0  0  0  0
  1 33  1  0  0  0  0
  1 34  1  0  0  0  0
  2  3  1  0  0  0  0
  3  4  2  0  0  0  0
  3  8  1  0  0  0  0
  4  5  1  0  0  0  0
  4 35  1  0  0  0  0
  5  6  2  0  0  0  0
  5 14  1  0  0  0  0
  6  7  1  0  0  0  0
  6 11  1  0  0  0  0
  7  8  2  0  0  0  0
  7 36  1  0  0  0  0
  8  9  1  0  0  0  0
  9 10  1  0  0  0  0
 10 37  1  0  0  0  0
 10 38  1  0  0  0  0
 10 39  1  0  0  0  0
 11 12  2  0  0  0  0
 12 13  1  0  0  0  0
 12 40  1  0  0  0  0
 13 14  2  0  0  0  0
 14 15  1  0  0  0  0
 15 16  1  0  0  0  0
 15 20  1  0  0  0  0
 16 17  1  0  0  0  0
 16 41  1  0  0  0  0
 16 42  1  0  0  0  0
 17 18  1  0  0  0  0
 17 43  1  0  0  0  0
 17 44  1  0  0  0  0
 18 20  1  0  0  0  0
 18 21  1  0  0  0  0
 18 19  1  6  0  0  0
 20 45  1  0  0  0  0
 20 46  1  0  0  0  0
 21 22  1  0  0  0  0
 22 23  2  0  0  0  0
 22 27  1  0  0  0  0
 23 24  1  0  0  0  0
 23 47  1  0  0  0  0
 24 25  2  0  0  0  0
 24 48  1  0  0  0  0
 25 26  1  0  0  0  0
 25 31  1  0  0  0  0
 26 27  2  0  0  0  0
 26 28  1  0  0  0  0
 27 49  1  0  0  0  0
 28 29  2  0  0  0  0
 28 50  1  0  0  0  0
 29 30  1  0  0  0  0
 29 51  1  0  0  0  0
 30 31  2  0  0  0  0
 30 52  1  0  0  0  0
 31 53  1  0  0  0  0
M  END
$$$$
