PFJ
 OpenBabel04121316173D

 51 55  0  0  1  0  0  0  0  0999 V2000
    1.0329   -0.0120   -0.1153 C   0  0  0  0  0  0  0  0  0  0  0  0
    2.4439   -0.1137    0.0233 O   0  0  0  0  0  0  0  0  0  0  0  0
    3.0509   -0.5366   -1.1268 C   0  0  0  0  0  0  0  0  0  0  0  0
    2.8650   -1.8635   -1.4771 C   0  0  0  0  0  0  0  0  0  0  0  0
    3.6121   -2.5423   -2.4614 C   0  0  0  0  0  0  0  0  0  0  0  0
    4.5065   -1.7560   -3.2017 C   0  0  0  0  0  0  0  0  0  0  0  0
    4.6148   -0.3794   -2.9133 C   0  0  0  0  0  0  0  0  0  0  0  0
    3.9555    0.2296   -1.8301 C   0  0  0  0  0  0  0  0  0  0  0  0
    4.2883    1.5318   -1.5579 O   0  0  0  0  0  0  0  0  0  0  0  0
    3.7280    2.0925   -0.3667 C   0  0  0  0  0  0  0  0  0  0  0  0
    5.2838   -2.2980   -4.1433 N   0  0  0  0  0  0  0  0  0  0  0  0
    5.2211   -3.6322   -4.2836 C   0  0  0  0  0  0  0  0  0  0  0  0
    4.4370   -4.4838   -3.6068 N   0  0  0  0  0  0  0  0  0  0  0  0
    3.5891   -3.9525   -2.7144 C   0  0  0  0  0  0  0  0  0  0  0  0
    2.6893   -4.8358   -2.1616 N   0  0  0  0  0  0  0  0  0  0  0  0
    2.9835   -6.1525   -1.6246 C   0  0  0  0  0  0  0  0  0  0  0  0
    1.5880   -6.8163   -1.6626 C   0  0  0  0  0  0  0  0  0  0  0  0
    0.6005   -5.6913   -1.3001 C   0  0  2  0  0  0  0  0  0  0  0  0
   -0.2980   -5.7443   -1.9275 H   0  0  0  0  0  0  0  0  0  0  0  0
    1.4318   -4.4409   -1.6065 C   0  0  0  0  0  0  0  0  0  0  0  0
    0.1803   -5.8267    0.0812 O   0  0  0  0  0  0  0  0  0  0  0  0
   -0.2801   -4.7313    0.7743 C   0  0  0  0  0  0  0  0  0  0  0  0
   -0.4535   -3.4656    0.2378 C   0  0  0  0  0  0  0  0  0  0  0  0
   -0.6035   -2.3498    0.9705 N   0  0  0  0  0  0  0  0  0  0  0  0
   -0.7912   -2.5240    2.2582 C   0  0  0  0  0  0  0  0  0  0  0  0
   -0.8057   -3.8200    2.8360 C   0  0  0  0  0  0  0  0  0  0  0  0
   -0.4747   -4.9169    2.0968 N   0  0  0  0  0  0  0  0  0  0  0  0
   -1.2399   -3.9005    4.1476 C   0  0  0  0  0  0  0  0  0  0  0  0
   -1.7661   -2.7790    4.8065 C   0  0  0  0  0  0  0  0  0  0  0  0
   -1.7407   -1.5282    4.1960 C   0  0  0  0  0  0  0  0  0  0  0  0
   -1.1250   -1.3960    2.9704 C   0  0  0  0  0  0  0  0  0  0  0  0
    0.6364    0.3762    0.8264 H   0  0  0  0  0  0  0  0  0  0  0  0
    0.6004   -0.9838   -0.3127 H   0  0  0  0  0  0  0  0  0  0  0  0
    0.7507    0.6592   -0.9293 H   0  0  0  0  0  0  0  0  0  0  0  0
    2.1549   -2.3580   -0.8544 H   0  0  0  0  0  0  0  0  0  0  0  0
    5.2819    0.2281   -3.5228 H   0  0  0  0  0  0  0  0  0  0  0  0
    4.1101    3.1052   -0.2302 H   0  0  0  0  0  0  0  0  0  0  0  0
    4.0188    1.5214    0.5252 H   0  0  0  0  0  0  0  0  0  0  0  0
    2.6394    2.1824   -0.4567 H   0  0  0  0  0  0  0  0  0  0  0  0
    5.8756   -4.0724   -5.0289 H   0  0  0  0  0  0  0  0  0  0  0  0
    3.3056   -6.0616   -0.5763 H   0  0  0  0  0  0  0  0  0  0  0  0
    3.7341   -6.7138   -2.1823 H   0  0  0  0  0  0  0  0  0  0  0  0
    1.5138   -7.6822   -1.0005 H   0  0  0  0  0  0  0  0  0  0  0  0
    1.3929   -7.1355   -2.6941 H   0  0  0  0  0  0  0  0  0  0  0  0
    1.6701   -4.0162   -0.6381 H   0  0  0  0  0  0  0  0  0  0  0  0
    0.8998   -3.7687   -2.2876 H   0  0  0  0  0  0  0  0  0  0  0  0
   -0.4226   -3.2409   -0.8128 H   0  0  0  0  0  0  0  0  0  0  0  0
   -1.2494   -4.8702    4.6404 H   0  0  0  0  0  0  0  0  0  0  0  0
   -2.2075   -2.8809    5.7919 H   0  0  0  0  0  0  0  0  0  0  0  0
   -2.2241   -0.6660    4.6461 H   0  0  0  0  0  0  0  0  0  0  0  0
   -1.0011   -0.4161    2.5128 H   0  0  0  0  0  0  0  0  0  0  0  0
  1  2  1  0  0  0  0
  1 32  1  0  0  0  0
  1 33  1  0  0  0  0
  1 34  1  0  0  0  0
  2  3  1  0  0  0  0
  3  4  2  0  0  0  0
  3  8  1  0  0  0  0
  4  5  1  0  0  0  0
  4 35  1  0  0  0  0
  5  6  2  0  0  0  0
  5 14  1  0  0  0  0
  6  7  1  0  0  0  0
  6 11  1  0  0  0  0
  7  8  2  0  0  0  0
  7 36  1  0  0  0  0
  8  9  1  0  0  0  0
  9 10  1  0  0  0  0
 10 37  1  0  0  0  0
 10 38  1  0  0  0  0
 10 39  1  0  0  0  0
 11 12  2  0  0  0  0
 12 13  1  0  0  0  0
 12 40  1  0  0  0  0
 13 14  2  0  0  0  0
 14 15  1  0  0  0  0
 15 16  1  0  0  0  0
 15 20  1  0  0  0  0
 16 17  1  0  0  0  0
 16 41  1  0  0  0  0
 16 42  1  0  0  0  0
 17 18  1  0  0  0  0
 17 43  1  0  0  0  0
 17 44  1  0  0  0  0
 18 20  1  0  0  0  0
 18 21  1  0  0  0  0
 18 19  1  6  0  0  0
 20 45  1  0  0  0  0
 20 46  1  0  0  0  0
 21 22  1  0  0  0  0
 22 23  2  0  0  0  0
 22 27  1  0  0  0  0
 23 24  1  0  0  0  0
 23 47  1  0  0  0  0
 24 25  2  0  0  0  0
 25 26  1  0  0  0  0
 25 31  1  0  0  0  0
 26 27  2  0  0  0  0
 26 28  1  0  0  0  0
 28 29  2  0  0  0  0
 28 48  1  0  0  0  0
 29 30  1  0  0  0  0
 29 49  1  0  0  0  0
 30 31  2  0  0  0  0
 30 50  1  0  0  0  0
 31 51  1  0  0  0  0
M  END
$$$$
