PFT
 OpenBabel04121316173D

 32 34  0  0  0  0  0  0  0  0999 V2000
    0.9651   -0.1961    0.1720 O   0  0  0  0  0  0  0  0  0  0  0  0
    2.3224   -0.1434    0.0983 C   0  0  0  0  0  0  0  0  0  0  0  0
    2.9659    1.0764    0.0446 C   0  0  0  0  0  0  0  0  0  0  0  0
    4.3513    1.1096   -0.0302 C   0  0  0  0  0  0  0  0  0  0  0  0
    5.1134   -0.0407   -0.2144 C   0  0  0  0  0  0  0  0  0  0  0  0
    4.4343   -1.2774   -0.1397 C   0  0  0  0  0  0  0  0  0  0  0  0
    3.0515   -1.3247    0.0791 C   0  0  0  0  0  0  0  0  0  0  0  0
    5.0458   -2.4988   -0.2832 O   0  0  0  0  0  0  0  0  0  0  0  0
    6.5793    0.0392   -0.4803 C   0  0  0  0  0  0  0  0  0  0  0  0
    7.1580   -1.0530   -0.6298 O   0  0  0  0  0  0  0  0  0  0  0  0
    7.2969    1.2324   -0.5725 N   0  0  0  0  0  0  0  0  0  0  0  0
    8.7372    1.0961   -0.7252 C   0  0  0  0  0  0  0  0  0  0  0  0
    9.2453    2.4906   -0.8058 C   0  0  0  0  0  0  0  0  0  0  0  0
    8.2047    3.4136   -0.7187 C   0  0  0  0  0  0  0  0  0  0  0  0
    6.9104    2.6709   -0.5700 C   0  0  0  0  0  0  0  0  0  0  0  0
    8.4756    4.7751   -0.7333 C   0  0  0  0  0  0  0  0  0  0  0  0
    9.8128    5.1829   -0.8526 C   0  0  0  0  0  0  0  0  0  0  0  0
   10.8481    4.2402   -0.9549 C   0  0  0  0  0  0  0  0  0  0  0  0
   10.5638    2.8803   -0.9287 C   0  0  0  0  0  0  0  0  0  0  0  0
    0.6184    0.7034    0.0426 H   0  0  0  0  0  0  0  0  0  0  0  0
    2.4319    2.0196    0.0760 H   0  0  0  0  0  0  0  0  0  0  0  0
    4.7852    2.0814    0.0674 H   0  0  0  0  0  0  0  0  0  0  0  0
    2.5438   -2.2763    0.2086 H   0  0  0  0  0  0  0  0  0  0  0  0
    5.9882   -2.3433   -0.5147 H   0  0  0  0  0  0  0  0  0  0  0  0
    8.9628    0.5445   -1.6416 H   0  0  0  0  0  0  0  0  0  0  0  0
    9.1380    0.5886    0.1570 H   0  0  0  0  0  0  0  0  0  0  0  0
    6.2274    2.8680   -1.4042 H   0  0  0  0  0  0  0  0  0  0  0  0
    6.4724    2.9398    0.3953 H   0  0  0  0  0  0  0  0  0  0  0  0
    7.6921    5.5225   -0.6447 H   0  0  0  0  0  0  0  0  0  0  0  0
   10.0642    6.2414   -0.8641 H   0  0  0  0  0  0  0  0  0  0  0  0
   11.8808    4.5651   -1.0505 H   0  0  0  0  0  0  0  0  0  0  0  0
   11.3489    2.1357   -0.9962 H   0  0  0  0  0  0  0  0  0  0  0  0
  1  2  1  0  0  0  0
  1 20  1  0  0  0  0
  2  3  2  0  0  0  0
  2  7  1  0  0  0  0
  3  4  1  0  0  0  0
  3 21  1  0  0  0  0
  4  5  2  0  0  0  0
  4 22  1  0  0  0  0
  5  6  1  0  0  0  0
  5  9  1  0  0  0  0
  6  7  2  0  0  0  0
  6  8  1  0  0  0  0
  7 23  1  0  0  0  0
  8 24  1  0  0  0  0
  9 10  2  0  0  0  0
  9 11  1  0  0  0  0
 11 12  1  0  0  0  0
 11 15  1  0  0  0  0
 12 13  1  0  0  0  0
 12 25  1  0  0  0  0
 12 26  1  0  0  0  0
 13 14  2  0  0  0  0
 13 19  1  0  0  0  0
 14 15  1  0  0  0  0
 14 16  1  0  0  0  0
 15 27  1  0  0  0  0
 15 28  1  0  0  0  0
 16 17  2  0  0  0  0
 16 29  1  0  0  0  0
 17 18  1  0  0  0  0
 17 30  1  0  0  0  0
 18 19  2  0  0  0  0
 18 31  1  0  0  0  0
 19 32  1  0  0  0  0
M  END
$$$$
