PFU
 OpenBabel04121316173D

 36 37  0  0  1  0  0  0  0  0999 V2000
    2.8458    0.1974   -1.4957 O   0  0  0  0  0  0  0  0  0  0  0  0
    2.3568    0.0318   -0.1516 C   0  0  2  0  0  0  0  0  0  0  0  0
    1.2647    0.0606   -0.2021 H   0  0  0  0  0  0  0  0  0  0  0  0
    2.9006    1.1373    0.7340 C   0  0  2  0  0  0  0  0  0  0  0  0
    2.2619    1.2089    1.6212 H   0  0  0  0  0  0  0  0  0  0  0  0
    2.9515    2.4112    0.1111 O   0  0  0  0  0  0  0  0  0  0  0  0
    4.2817    0.6098    1.0845 C   0  0  2  0  0  0  0  0  0  0  0  0
    4.9976    0.7731    0.2692 H   0  0  0  0  0  0  0  0  0  0  0  0
    4.1510   -0.8142    1.1965 O   0  0  0  0  0  0  0  0  0  0  0  0
    2.9230   -1.2295    0.5217 C   0  0  1  0  0  0  0  0  0  0  0  0
    3.2263   -1.9775   -0.2201 H   0  0  0  0  0  0  0  0  0  0  0  0
    1.9479   -1.8730    1.4631 C   0  0  0  0  0  0  0  0  0  0  0  0
    0.6837   -2.1595    1.1023 N   0  0  0  0  0  0  0  0  0  0  0  0
    0.1370   -2.6910    2.2149 N   0  0  0  0  0  0  0  0  0  0  0  0
   -0.8390   -2.9627    2.1742 H   0  0  0  0  0  0  0  0  0  0  0  0
    1.0003   -2.7827    3.2727 C   0  0  0  0  0  0  0  0  0  0  0  0
    2.1782   -2.2663    2.7896 C   0  0  0  0  0  0  0  0  0  0  0  0
    3.3141   -2.1585    3.4987 O   0  0  0  0  0  0  0  0  0  0  0  0
    0.7582   -3.2846    4.5861 C   0  0  0  0  0  0  0  0  0  0  0  0
    1.6417   -3.3070    5.4522 O   0  0  0  0  0  0  0  0  0  0  0  0
   -0.4827   -3.7441    4.8810 N   0  0  0  0  0  0  0  0  0  0  0  0
    4.8756    1.2588    2.3300 C   0  0  0  0  0  0  0  0  0  0  0  0
    3.8546    1.6359    3.2592 O   0  0  0  0  0  0  0  0  0  0  0  0
    4.4781    2.4380    4.6595 P   0  0  0  0  0  0  0  0  0  0  0  0
    5.0537    3.5756    3.8233 O   0  0  0  0  0  0  0  0  0  0  0  0
    2.9598    2.7987    5.1035 O   0  0  0  0  0  0  0  0  0  0  0  0
    5.1016    3.2401    6.0598 O   0  0  0  0  0  0  0  0  0  0  0  0
    3.7989    0.0087   -1.5040 H   0  0  0  0  0  0  0  0  0  0  0  0
    3.3543    2.2921   -0.7675 H   0  0  0  0  0  0  0  0  0  0  0  0
    3.1854   -2.5275    4.3956 H   0  0  0  0  0  0  0  0  0  0  0  0
   -1.2692   -3.7663    4.2523 H   0  0  0  0  0  0  0  0  0  0  0  0
   -0.6176   -4.0900    5.8230 H   0  0  0  0  0  0  0  0  0  0  0  0
    5.5934    0.6054    2.8368 H   0  0  0  0  0  0  0  0  0  0  0  0
    5.3977    2.1650    2.0051 H   0  0  0  0  0  0  0  0  0  0  0  0
    2.3593    2.6286    4.3556 H   0  0  0  0  0  0  0  0  0  0  0  0
    6.0321    3.4600    5.8767 H   0  0  0  0  0  0  0  0  0  0  0  0
  1 28  1  0  0  0  0
  2  4  1  0  0  0  0
  2 10  1  0  0  0  0
  2  3  1  1  0  0  0
  2  1  1  0  0  0  0
  4  7  1  0  0  0  0
  4  6  1  0  0  0  0
  4  5  1  1  0  0  0
  6 29  1  0  0  0  0
  7  9  1  0  0  0  0
  7 22  1  0  0  0  0
  7  8  1  6  0  0  0
  9 10  1  0  0  0  0
 10 12  1  0  0  0  0
 10 11  1  6  0  0  0
 12 13  2  0  0  0  0
 12 17  1  0  0  0  0
 13 14  1  0  0  0  0
 14 15  1  0  0  0  0
 14 16  1  0  0  0  0
 16 17  2  0  0  0  0
 16 19  1  0  0  0  0
 17 18  1  0  0  0  0
 18 30  1  0  0  0  0
 19 20  2  0  0  0  0
 19 21  1  0  0  0  0
 21 31  1  0  0  0  0
 21 32  1  0  0  0  0
 22 23  1  0  0  0  0
 22 33  1  0  0  0  0
 22 34  1  0  0  0  0
 23 24  1  0  0  0  0
 24 25  2  0  0  0  0
 24 26  1  0  0  0  0
 24 27  1  0  0  0  0
 26 35  1  0  0  0  0
 27 36  1  0  0  0  0
M  END
$$$$
