PG0
 OpenBabel04121316173D

 20 19  0  0  0  0  0  0  0  0999 V2000
    0.8906   -0.0598   -0.0214 C   0  0  0  0  0  0  0  0  0  0  0  0
    2.3116   -0.0515   -0.0027 O   0  0  0  0  0  0  0  0  0  0  0  0
    2.8050    0.5705    1.1826 C   0  0  0  0  0  0  0  0  0  0  0  0
    4.3263    0.5583    1.1607 C   0  0  0  0  0  0  0  0  0  0  0  0
    4.8228    1.1714    2.3505 O   0  0  0  0  0  0  0  0  0  0  0  0
    6.2470    1.1892    2.3558 C   0  0  0  0  0  0  0  0  0  0  0  0
    6.7517    1.8508    3.6319 C   0  0  0  0  0  0  0  0  0  0  0  0
    8.1746    1.8695    3.6589 O   0  0  0  0  0  0  0  0  0  0  0  0
    0.5596   -0.5428   -0.9441 H   0  0  0  0  0  0  0  0  0  0  0  0
    0.5039    0.9636   -0.0019 H   0  0  0  0  0  0  0  0  0  0  0  0
    0.5026   -0.6261    0.8307 H   0  0  0  0  0  0  0  0  0  0  0  0
    2.4424    0.0341    2.0676 H   0  0  0  0  0  0  0  0  0  0  0  0
    2.4430    1.6037    1.2444 H   0  0  0  0  0  0  0  0  0  0  0  0
    4.6896    1.0988    0.2783 H   0  0  0  0  0  0  0  0  0  0  0  0
    4.6888   -0.4746    1.0932 H   0  0  0  0  0  0  0  0  0  0  0  0
    6.6214    1.7365    1.4827 H   0  0  0  0  0  0  0  0  0  0  0  0
    6.6305    0.1636    2.2968 H   0  0  0  0  0  0  0  0  0  0  0  0
    6.3844    1.3230    4.5188 H   0  0  0  0  0  0  0  0  0  0  0  0
    6.3870    2.8809    3.6984 H   0  0  0  0  0  0  0  0  0  0  0  0
    8.4785    0.9472    3.6338 H   0  0  0  0  0  0  0  0  0  0  0  0
  1  2  1  0  0  0  0
  1  9  1  0  0  0  0
  1 10  1  0  0  0  0
  1 11  1  0  0  0  0
  2  3  1  0  0  0  0
  3  4  1  0  0  0  0
  3 12  1  0  0  0  0
  3 13  1  0  0  0  0
  4  5  1  0  0  0  0
  4 14  1  0  0  0  0
  4 15  1  0  0  0  0
  5  6  1  0  0  0  0
  6  7  1  0  0  0  0
  6 16  1  0  0  0  0
  6 17  1  0  0  0  0
  7  8  1  0  0  0  0
  7 18  1  0  0  0  0
  7 19  1  0  0  0  0
  8 20  1  0  0  0  0
M  END
$$$$
