PG6
 OpenBabel04121316173D

 44 43  0  0  0  0  0  0  0  0999 V2000
    0.9883   -0.0670   -0.0534 C   0  0  0  0  0  0  0  0  0  0  0  0
    2.4088   -0.0769   -0.0681 O   0  0  0  0  0  0  0  0  0  0  0  0
    2.9054   -0.8189   -1.1799 C   0  0  0  0  0  0  0  0  0  0  0  0
    4.4263   -0.8018   -1.1542 C   0  0  0  0  0  0  0  0  0  0  0  0
    4.9165   -1.5448   -2.2676 O   0  0  0  0  0  0  0  0  0  0  0  0
    6.3410   -1.5557   -2.2839 C   0  0  0  0  0  0  0  0  0  0  0  0
    6.8144   -2.3574   -3.4852 C   0  0  0  0  0  0  0  0  0  0  0  0
    8.2384   -2.3670   -3.4995 O   0  0  0  0  0  0  0  0  0  0  0  0
    8.7295   -3.1090   -4.6112 C   0  0  0  0  0  0  0  0  0  0  0  0
   10.2484   -3.0890   -4.5813 C   0  0  0  0  0  0  0  0  0  0  0  0
   10.7395   -3.8310   -5.6931 O   0  0  0  0  0  0  0  0  0  0  0  0
   12.1636   -3.8405   -5.7074 C   0  0  0  0  0  0  0  0  0  0  0  0
   12.6369   -4.6423   -6.9086 C   0  0  0  0  0  0  0  0  0  0  0  0
   14.0614   -4.6532   -6.9250 O   0  0  0  0  0  0  0  0  0  0  0  0
   14.5517   -5.3962   -8.0383 C   0  0  0  0  0  0  0  0  0  0  0  0
   16.0725   -5.3791   -8.0127 C   0  0  0  0  0  0  0  0  0  0  0  0
   16.5692   -6.1211   -9.1245 O   0  0  0  0  0  0  0  0  0  0  0  0
   17.9897   -6.1309   -9.1392 C   0  0  0  0  0  0  0  0  0  0  0  0
    0.6573    0.5113    0.8132 H   0  0  0  0  0  0  0  0  0  0  0  0
    0.6012   -1.0864    0.0356 H   0  0  0  0  0  0  0  0  0  0  0  0
    0.6012    0.4063   -0.9606 H   0  0  0  0  0  0  0  0  0  0  0  0
    2.5455   -0.3802   -2.1182 H   0  0  0  0  0  0  0  0  0  0  0  0
    2.5455   -1.8537   -1.1348 H   0  0  0  0  0  0  0  0  0  0  0  0
    4.7893   -1.2428   -0.2185 H   0  0  0  0  0  0  0  0  0  0  0  0
    4.7893    0.2316   -1.2025 H   0  0  0  0  0  0  0  0  0  0  0  0
    6.7267   -2.0052   -1.3613 H   0  0  0  0  0  0  0  0  0  0  0  0
    6.7267   -0.5312   -2.3450 H   0  0  0  0  0  0  0  0  0  0  0  0
    6.4304   -1.9084   -4.4087 H   0  0  0  0  0  0  0  0  0  0  0  0
    6.4304   -3.3826   -3.4248 H   0  0  0  0  0  0  0  0  0  0  0  0
    8.3691   -2.6692   -5.5486 H   0  0  0  0  0  0  0  0  0  0  0  0
    8.3691   -4.1433   -4.5648 H   0  0  0  0  0  0  0  0  0  0  0  0
   10.6089   -3.5288   -3.6439 H   0  0  0  0  0  0  0  0  0  0  0  0
   10.6089   -2.0547   -4.6278 H   0  0  0  0  0  0  0  0  0  0  0  0
   12.5475   -4.2896   -4.7838 H   0  0  0  0  0  0  0  0  0  0  0  0
   12.5475   -2.8154   -5.7677 H   0  0  0  0  0  0  0  0  0  0  0  0
   12.2513   -4.1928   -7.8313 H   0  0  0  0  0  0  0  0  0  0  0  0
   12.2513   -5.6668   -6.8475 H   0  0  0  0  0  0  0  0  0  0  0  0
   14.1887   -4.9552   -8.9741 H   0  0  0  0  0  0  0  0  0  0  0  0
   14.1887   -6.4296   -7.9901 H   0  0  0  0  0  0  0  0  0  0  0  0
   16.4324   -5.8178   -7.0743 H   0  0  0  0  0  0  0  0  0  0  0  0
   16.4324   -4.3443   -8.0577 H   0  0  0  0  0  0  0  0  0  0  0  0
   18.3206   -6.7093  -10.0057 H   0  0  0  0  0  0  0  0  0  0  0  0
   18.3768   -6.6042   -8.2319 H   0  0  0  0  0  0  0  0  0  0  0  0
   18.3768   -5.1115   -9.2282 H   0  0  0  0  0  0  0  0  0  0  0  0
  1  2  1  0  0  0  0
  1 19  1  0  0  0  0
  1 20  1  0  0  0  0
  1 21  1  0  0  0  0
  2  3  1  0  0  0  0
  3  4  1  0  0  0  0
  3 22  1  0  0  0  0
  3 23  1  0  0  0  0
  4  5  1  0  0  0  0
  4 24  1  0  0  0  0
  4 25  1  0  0  0  0
  5  6  1  0  0  0  0
  6  7  1  0  0  0  0
  6 26  1  0  0  0  0
  6 27  1  0  0  0  0
  7  8  1  0  0  0  0
  7 28  1  0  0  0  0
  7 29  1  0  0  0  0
  8  9  1  0  0  0  0
  9 10  1  0  0  0  0
  9 30  1  0  0  0  0
  9 31  1  0  0  0  0
 10 11  1  0  0  0  0
 10 32  1  0  0  0  0
 10 33  1  0  0  0  0
 11 12  1  0  0  0  0
 12 13  1  0  0  0  0
 12 34  1  0  0  0  0
 12 35  1  0  0  0  0
 13 14  1  0  0  0  0
 13 36  1  0  0  0  0
 13 37  1  0  0  0  0
 14 15  1  0  0  0  0
 15 16  1  0  0  0  0
 15 38  1  0  0  0  0
 15 39  1  0  0  0  0
 16 17  1  0  0  0  0
 16 40  1  0  0  0  0
 16 41  1  0  0  0  0
 17 18  1  0  0  0  0
 18 42  1  0  0  0  0
 18 43  1  0  0  0  0
 18 44  1  0  0  0  0
M  END
$$$$
