PGE
 OpenBabel04121316173D

 24 23  0  0  0  0  0  0  0  0999 V2000
    1.0120    0.0614   -0.0428 O   0  0  0  0  0  0  0  0  0  0  0  0
    2.4339    0.0692   -0.0526 C   0  0  0  0  0  0  0  0  0  0  0  0
    2.9349    1.0450   -1.1073 C   0  0  0  0  0  0  0  0  0  0  0  0
    4.3612    1.0539   -1.1153 O   0  0  0  0  0  0  0  0  0  0  0  0
    4.8541    1.9628   -2.0994 C   0  0  0  0  0  0  0  0  0  0  0  0
    6.3747    1.9468   -2.0811 C   0  0  0  0  0  0  0  0  0  0  0  0
    6.8702    2.8621   -3.0576 O   0  0  0  0  0  0  0  0  0  0  0  0
    8.2941    2.8614   -3.0767 C   0  0  0  0  0  0  0  0  0  0  0  0
    8.7981    3.8418   -4.1280 C   0  0  0  0  0  0  0  0  0  0  0  0
   10.2211    3.8605   -4.1542 O   0  0  0  0  0  0  0  0  0  0  0  0
    0.7379   -0.5733    0.6406 H   0  0  0  0  0  0  0  0  0  0  0  0
    2.7981   -0.9422   -0.2621 H   0  0  0  0  0  0  0  0  0  0  0  0
    2.7989    0.3562    0.9394 H   0  0  0  0  0  0  0  0  0  0  0  0
    2.5563    2.0509   -0.8905 H   0  0  0  0  0  0  0  0  0  0  0  0
    2.5573    0.7500   -2.0935 H   0  0  0  0  0  0  0  0  0  0  0  0
    4.4910    2.9763   -1.8907 H   0  0  0  0  0  0  0  0  0  0  0  0
    4.4918    1.6745   -3.0935 H   0  0  0  0  0  0  0  0  0  0  0  0
    6.7378    0.9343   -2.2947 H   0  0  0  0  0  0  0  0  0  0  0  0
    6.7369    2.2297   -1.0855 H   0  0  0  0  0  0  0  0  0  0  0  0
    8.6683    1.8554   -3.2996 H   0  0  0  0  0  0  0  0  0  0  0  0
    8.6777    3.1497   -2.0907 H   0  0  0  0  0  0  0  0  0  0  0  0
    8.4309    4.8542   -3.9281 H   0  0  0  0  0  0  0  0  0  0  0  0
    8.4334    3.5588   -5.1206 H   0  0  0  0  0  0  0  0  0  0  0  0
   10.5247    4.1486   -3.2779 H   0  0  0  0  0  0  0  0  0  0  0  0
  1  2  1  0  0  0  0
  1 11  1  0  0  0  0
  2  3  1  0  0  0  0
  2 12  1  0  0  0  0
  2 13  1  0  0  0  0
  3  4  1  0  0  0  0
  3 14  1  0  0  0  0
  3 15  1  0  0  0  0
  4  5  1  0  0  0  0
  5  6  1  0  0  0  0
  5 16  1  0  0  0  0
  5 17  1  0  0  0  0
  6  7  1  0  0  0  0
  6 18  1  0  0  0  0
  6 19  1  0  0  0  0
  7  8  1  0  0  0  0
  8  9  1  0  0  0  0
  8 20  1  0  0  0  0
  8 21  1  0  0  0  0
  9 10  1  0  0  0  0
  9 22  1  0  0  0  0
  9 23  1  0  0  0  0
 10 24  1  0  0  0  0
M  END
$$$$
