PGP
 OpenBabel04121316173D

 43 45  0  0  1  0  0  0  0  0999 V2000
    2.7919    0.0073   -1.3202 O   0  0  0  0  0  0  0  0  0  0  0  0
    2.3976   -0.0643    0.0742 C   0  0  2  0  0  0  0  0  0  0  0  0
    1.3113    0.0254    0.0492 H   0  0  0  0  0  0  0  0  0  0  0  0
    2.9764    1.0515    0.9553 C   0  0  2  0  0  0  0  0  0  0  0  0
    2.2983    1.1511    1.8124 H   0  0  0  0  0  0  0  0  0  0  0  0
    2.9757    2.3346    0.2832 O   0  0  0  0  0  0  0  0  0  0  0  0
    4.5401    2.6686   -0.3756 P   0  0  0  0  0  0  0  0  0  0  0  0
    5.1355    3.0253    0.9564 O   0  0  0  0  0  0  0  0  0  0  0  0
    4.6919    1.2051   -0.9958 O   0  0  0  0  0  0  0  0  0  0  0  0
    6.1044    3.0027   -1.0345 O   0  0  0  0  0  0  0  0  0  0  0  0
    4.3341    0.4180    1.4299 C   0  0  2  0  0  0  0  0  0  0  0  0
    5.1679    0.4044    0.7362 H   0  0  0  0  0  0  0  0  0  0  0  0
    4.0567   -0.9814    1.5953 O   0  0  0  0  0  0  0  0  0  0  0  0
    2.9291   -1.3359    0.7542 C   0  0  1  0  0  0  0  0  0  0  0  0
    3.2758   -2.0846    0.0305 H   0  0  0  0  0  0  0  0  0  0  0  0
    1.9392   -1.9765    1.5886 N   0  0  0  0  0  0  0  0  0  0  0  0
    2.1211   -2.3443    2.8970 C   0  0  0  0  0  0  0  0  0  0  0  0
    1.0231   -2.8378    3.4245 N   0  0  0  0  0  0  0  0  0  0  0  0
    0.1149   -2.8073    2.3991 C   0  0  0  0  0  0  0  0  0  0  0  0
    0.6548   -2.2965    1.2445 C   0  0  0  0  0  0  0  0  0  0  0  0
    0.0445   -2.1059    0.0444 N   0  0  0  0  0  0  0  0  0  0  0  0
   -1.2161   -2.4572    0.0397 C   0  0  0  0  0  0  0  0  0  0  0  0
   -1.9770   -2.3165   -1.0709 N   0  0  0  0  0  0  0  0  0  0  0  0
   -1.8608   -2.9864    1.1386 N   0  0  0  0  0  0  0  0  0  0  0  0
   -2.8282   -3.2512    1.0852 H   0  0  0  0  0  0  0  0  0  0  0  0
   -1.2737   -3.2125    2.3809 C   0  0  0  0  0  0  0  0  0  0  0  0
   -1.8877   -3.6926    3.3104 O   0  0  0  0  0  0  0  0  0  0  0  0
    4.9604    1.0377    2.6626 C   0  0  0  0  0  0  0  0  0  0  0  0
    3.9093    1.5821    3.4087 O   0  0  0  0  0  0  0  0  0  0  0  0
    4.5328    2.3842    4.8089 P   0  0  0  0  0  0  0  0  0  0  0  0
    4.1314    3.7430    4.2495 O   0  0  0  0  0  0  0  0  0  0  0  0
    3.3027    1.7883    5.6840 O   0  0  0  0  0  0  0  0  0  0  0  0
    5.1564    3.1863    6.2092 O   0  0  0  0  0  0  0  0  0  0  0  0
    3.5406   -0.6151   -1.4641 H   0  0  0  0  0  0  0  0  0  0  0  0
    3.8440    1.0968   -1.4870 H   0  0  0  0  0  0  0  0  0  0  0  0
    6.3868    3.8514   -0.6442 H   0  0  0  0  0  0  0  0  0  0  0  0
    3.0666   -2.2189    3.4123 H   0  0  0  0  0  0  0  0  0  0  0  0
   -1.5544   -1.9348   -1.9079 H   0  0  0  0  0  0  0  0  0  0  0  0
   -2.9439   -2.6013   -1.1236 H   0  0  0  0  0  0  0  0  0  0  0  0
    5.5486    0.3213    3.2376 H   0  0  0  0  0  0  0  0  0  0  0  0
    5.6662    1.8477    2.4771 H   0  0  0  0  0  0  0  0  0  0  0  0
    2.6769    1.3152    5.1083 H   0  0  0  0  0  0  0  0  0  0  0  0
    5.5839    4.0018    5.8879 H   0  0  0  0  0  0  0  0  0  0  0  0
  1 34  1  0  0  0  0
  2  4  1  0  0  0  0
  2 14  1  0  0  0  0
  2  3  1  1  0  0  0
  2  1  1  0  0  0  0
  4 11  1  0  0  0  0
  4  6  1  0  0  0  0
  4  5  1  1  0  0  0
  6  7  1  0  0  0  0
  7  8  2  0  0  0  0
  7  9  1  0  0  0  0
  7 10  1  0  0  0  0
  9 35  1  0  0  0  0
 10 36  1  0  0  0  0
 11 13  1  0  0  0  0
 11 28  1  0  0  0  0
 11 12  1  6  0  0  0
 13 14  1  0  0  0  0
 14 16  1  0  0  0  0
 14 15  1  6  0  0  0
 16 17  1  0  0  0  0
 16 20  1  0  0  0  0
 17 18  2  0  0  0  0
 17 37  1  0  0  0  0
 18 19  1  0  0  0  0
 19 20  2  0  0  0  0
 19 26  1  0  0  0  0
 20 21  1  0  0  0  0
 21 22  2  0  0  0  0
 22 23  1  0  0  0  0
 22 24  1  0  0  0  0
 23 38  1  0  0  0  0
 23 39  1  0  0  0  0
 24 25  1  0  0  0  0
 24 26  1  0  0  0  0
 26 27  2  0  0  0  0
 28 29  1  0  0  0  0
 28 40  1  0  0  0  0
 28 41  1  0  0  0  0
 29 30  1  0  0  0  0
 30 31  2  0  0  0  0
 30 32  1  0  0  0  0
 30 33  1  0  0  0  0
 32 42  1  0  0  0  0
 33 43  1  0  0  0  0
M  END
$$$$
