PGR
 OpenBabel04121316173D

 13 12  0  0  1  0  0  0  0  0999 V2000
    2.7965    2.2656    2.0436 O   0  0  0  0  0  0  0  0  0  0  0  0
    2.3809    0.9430    2.3545 C   0  0  0  0  0  0  0  0  0  0  0  0
    2.9391   -0.0942    1.3764 C   0  0  2  0  0  0  0  0  0  0  0  0
    2.5660    0.1062    0.3650 H   0  0  0  0  0  0  0  0  0  0  0  0
    2.4611   -1.3788    1.7845 O   0  0  0  0  0  0  0  0  0  0  0  0
    4.4628   -0.1109    1.3477 C   0  0  0  0  0  0  0  0  0  0  0  0
    2.4092    2.8372    2.7287 H   0  0  0  0  0  0  0  0  0  0  0  0
    1.2859    0.9109    2.3386 H   0  0  0  0  0  0  0  0  0  0  0  0
    2.6978    0.7061    3.3760 H   0  0  0  0  0  0  0  0  0  0  0  0
    2.8455   -2.0406    1.1872 H   0  0  0  0  0  0  0  0  0  0  0  0
    4.8268   -0.9229    0.7082 H   0  0  0  0  0  0  0  0  0  0  0  0
    4.8686   -0.2951    2.3482 H   0  0  0  0  0  0  0  0  0  0  0  0
    4.8704    0.8322    0.9712 H   0  0  0  0  0  0  0  0  0  0  0  0
  1  2  1  0  0  0  0
  1  7  1  0  0  0  0
  2  8  1  0  0  0  0
  2  9  1  0  0  0  0
  3  5  1  0  0  0  0
  3  6  1  0  0  0  0
  3  4  1  6  0  0  0
  3  2  1  0  0  0  0
  5 10  1  0  0  0  0
  6 11  1  0  0  0  0
  6 12  1  0  0  0  0
  6 13  1  0  0  0  0
M  END
$$$$
