PH3
 OpenBabel04121316173D

 20 20  0  0  0  0  0  0  0  0999 V2000
    1.0552   -0.0239   -0.0210 O   0  0  0  0  0  0  0  0  0  0  0  0
    2.4485   -0.0688   -0.0394 N   0  0  0  0  0  0  0  0  0  0  0  0
    3.0465   -0.3500    1.1583 C   0  0  0  0  0  0  0  0  0  0  0  0
    2.3605   -0.6413    2.2137 N   0  0  0  0  0  0  0  0  0  0  0  0
    4.4111   -0.2821    1.1514 N   0  0  0  0  0  0  0  0  0  0  0  0
    5.1735   -0.6198    2.2785 C   0  0  0  0  0  0  0  0  0  0  0  0
    5.8606    0.3744    2.9815 C   0  0  0  0  0  0  0  0  0  0  0  0
    6.6745    0.0385    4.0653 C   0  0  0  0  0  0  0  0  0  0  0  0
    6.7571   -1.2889    4.4815 C   0  0  0  0  0  0  0  0  0  0  0  0
    6.0252   -2.2789    3.8315 C   0  0  0  0  0  0  0  0  0  0  0  0
    5.2773   -1.9509    2.7001 C   0  0  0  0  0  0  0  0  0  0  0  0
    7.7886   -1.7114    5.7917 Cl  0  0  0  0  0  0  0  0  0  0  0  0
    0.8021    0.2174   -0.9308 H   0  0  0  0  0  0  0  0  0  0  0  0
    2.9553    0.2281   -0.8622 H   0  0  0  0  0  0  0  0  0  0  0  0
    1.3774   -0.5902    1.9227 H   0  0  0  0  0  0  0  0  0  0  0  0
    4.9299   -0.0694    0.3163 H   0  0  0  0  0  0  0  0  0  0  0  0
    5.7191    1.4196    2.7190 H   0  0  0  0  0  0  0  0  0  0  0  0
    7.2231    0.8159    4.5884 H   0  0  0  0  0  0  0  0  0  0  0  0
    6.0237   -3.3007    4.1993 H   0  0  0  0  0  0  0  0  0  0  0  0
    4.7393   -2.7306    2.1661 H   0  0  0  0  0  0  0  0  0  0  0  0
  1  2  1  0  0  0  0
  1 13  1  0  0  0  0
  2  3  1  0  0  0  0
  2 14  1  0  0  0  0
  3  4  2  0  0  0  0
  3  5  1  0  0  0  0
  4 15  1  0  0  0  0
  5  6  1  0  0  0  0
  5 16  1  0  0  0  0
  6  7  2  0  0  0  0
  6 11  1  0  0  0  0
  7  8  1  0  0  0  0
  7 17  1  0  0  0  0
  8  9  2  0  0  0  0
  8 18  1  0  0  0  0
  9 10  1  0  0  0  0
  9 12  1  0  0  0  0
 10 11  2  0  0  0  0
 10 19  1  0  0  0  0
 11 20  1  0  0  0  0
M  END
$$$$
