PH9
 OpenBabel04121316173D

 60 64  0  0  1  0  0  0  0  0999 V2000
    3.0467   -2.4854   -1.3090 O   0  0  0  0  0  0  0  0  0  0  0  0
    2.6260   -1.3739   -1.9608 C   0  0  0  0  0  0  0  0  0  0  0  0
    2.1793   -1.4758   -3.1038 O   0  0  0  0  0  0  0  0  0  0  0  0
    2.9686   -0.0826   -1.1808 C   0  0  2  0  0  0  0  0  0  0  0  0
    2.4088   -0.1084   -0.2415 H   0  0  0  0  0  0  0  0  0  0  0  0
    2.5545    1.1323   -1.8969 N   0  0  0  0  0  0  0  0  0  0  0  0
    1.2453    1.3504   -2.2604 C   0  0  0  0  0  0  0  0  0  0  0  0
    0.3442    0.6333   -1.8290 O   0  0  0  0  0  0  0  0  0  0  0  0
    0.9828    2.4961   -3.2743 C   0  0  1  0  0  0  0  0  0  0  0  0
   -0.0273    1.9181   -4.2995 C   0  0  0  0  0  0  0  0  0  0  0  0
   -0.3005    2.9105   -5.4301 C   0  0  1  0  0  0  0  0  0  0  0  0
   -0.9856    2.4552   -6.1538 H   0  0  0  0  0  0  0  0  0  0  0  0
   -0.9433    4.1591   -4.8205 C   0  0  0  0  0  0  0  0  0  0  0  0
    0.0344    4.8139   -3.8257 C   0  0  1  0  0  0  0  0  0  0  0  0
   -0.4245    5.7381   -3.4545 H   0  0  0  0  0  0  0  0  0  0  0  0
    0.3361    3.7857   -2.6791 C   0  0  0  0  0  0  0  0  0  0  0  0
    1.3687    5.1787   -4.5025 C   0  0  0  0  0  0  0  0  0  0  0  0
    1.9931    3.9247   -5.1191 C   0  0  1  0  0  0  0  0  0  0  0  0
    2.9339    4.1842   -5.6170 H   0  0  0  0  0  0  0  0  0  0  0  0
    2.2808    2.9343   -3.9949 C   0  0  0  0  0  0  0  0  0  0  0  0
    1.0203    3.2853   -6.1178 C   0  0  0  0  0  0  0  0  0  0  0  0
    4.5034   -0.0384   -0.8970 C   0  0  0  0  0  0  0  0  0  0  0  0
    5.2980   -0.0364   -2.1906 C   0  0  0  0  0  0  0  0  0  0  0  0
    5.7175    1.1352   -2.8352 C   0  0  0  0  0  0  0  0  0  0  0  0
    6.2103    1.0839   -4.1517 C   0  0  0  0  0  0  0  0  0  0  0  0
    6.2858   -0.1391   -4.8231 C   0  0  0  0  0  0  0  0  0  0  0  0
    5.7220   -1.2516   -4.2136 C   0  0  0  0  0  0  0  0  0  0  0  0
    5.4041   -1.2406   -2.8716 C   0  0  0  0  0  0  0  0  0  0  0  0
    6.9875   -0.1947   -6.0162 O   0  0  0  0  0  0  0  0  0  0  0  0
    7.2131   -1.4237   -6.6210 C   0  0  0  0  0  0  0  0  0  0  0  0
    6.9797   -1.4415   -8.0036 C   0  0  0  0  0  0  0  0  0  0  0  0
    6.8607   -2.6562   -8.6850 C   0  0  0  0  0  0  0  0  0  0  0  0
    6.9932   -3.8567   -7.9943 C   0  0  0  0  0  0  0  0  0  0  0  0
    7.3939   -3.8423   -6.6631 C   0  0  0  0  0  0  0  0  0  0  0  0
    7.5932   -2.6292   -5.9981 C   0  0  0  0  0  0  0  0  0  0  0  0
    8.4154   -2.7911   -4.2766 Br  0  0  0  0  0  0  0  0  0  0  0  0
    3.1047   -3.1681   -2.0116 H   0  0  0  0  0  0  0  0  0  0  0  0
    3.2892    1.6446   -2.3560 H   0  0  0  0  0  0  0  0  0  0  0  0
   -0.9754    1.6857   -3.7915 H   0  0  0  0  0  0  0  0  0  0  0  0
    0.3378    0.9703   -4.7121 H   0  0  0  0  0  0  0  0  0  0  0  0
   -1.8614    3.8842   -4.2831 H   0  0  0  0  0  0  0  0  0  0  0  0
   -1.2481    4.8475   -5.6181 H   0  0  0  0  0  0  0  0  0  0  0  0
   -0.5895    3.5374   -2.1442 H   0  0  0  0  0  0  0  0  0  0  0  0
    1.0069    4.2363   -1.9365 H   0  0  0  0  0  0  0  0  0  0  0  0
    2.0426    5.6002   -3.7435 H   0  0  0  0  0  0  0  0  0  0  0  0
    1.2495    5.9513   -5.2712 H   0  0  0  0  0  0  0  0  0  0  0  0
    2.9524    3.4210   -3.2718 H   0  0  0  0  0  0  0  0  0  0  0  0
    2.8181    2.0692   -4.4000 H   0  0  0  0  0  0  0  0  0  0  0  0
    1.4766    2.3861   -6.5486 H   0  0  0  0  0  0  0  0  0  0  0  0
    0.8272    3.9812   -6.9414 H   0  0  0  0  0  0  0  0  0  0  0  0
    4.8055   -0.9099   -0.2990 H   0  0  0  0  0  0  0  0  0  0  0  0
    4.7632    0.8480   -0.3098 H   0  0  0  0  0  0  0  0  0  0  0  0
    5.6517    2.0933   -2.3250 H   0  0  0  0  0  0  0  0  0  0  0  0
    6.5045    2.0032   -4.6526 H   0  0  0  0  0  0  0  0  0  0  0  0
    5.6047   -2.1984   -4.7229 H   0  0  0  0  0  0  0  0  0  0  0  0
    5.1725   -2.1896   -2.3996 H   0  0  0  0  0  0  0  0  0  0  0  0
    6.8724   -0.5102   -8.5556 H   0  0  0  0  0  0  0  0  0  0  0  0
    6.6384   -2.6693   -9.7492 H   0  0  0  0  0  0  0  0  0  0  0  0
    6.8353   -4.8055   -8.4989 H   0  0  0  0  0  0  0  0  0  0  0  0
    7.5563   -4.7833   -6.1439 H   0  0  0  0  0  0  0  0  0  0  0  0
  1  2  1  0  0  0  0
  1 37  1  0  0  0  0
  2  3  2  0  0  0  0
  4  6  1  0  0  0  0
  4 22  1  0  0  0  0
  4  5  1  1  0  0  0
  4  2  1  0  0  0  0
  6  7  1  0  0  0  0
  6 38  1  0  0  0  0
  7  8  2  0  0  0  0
  9 10  1  0  0  0  0
  9 16  1  0  0  0  0
  9 20  1  0  0  0  0
  9  7  1  1  0  0  0
 10 11  1  0  0  0  0
 10 39  1  0  0  0  0
 10 40  1  0  0  0  0
 11 13  1  0  0  0  0
 11 21  1  0  0  0  0
 11 12  1  6  0  0  0
 13 14  1  0  0  0  0
 13 41  1  0  0  0  0
 13 42  1  0  0  0  0
 14 16  1  0  0  0  0
 14 17  1  0  0  0  0
 14 15  1  1  0  0  0
 16 43  1  0  0  0  0
 16 44  1  0  0  0  0
 17 18  1  0  0  0  0
 17 45  1  0  0  0  0
 17 46  1  0  0  0  0
 18 20  1  0  0  0  0
 18 21  1  0  0  0  0
 18 19  1  6  0  0  0
 20 47  1  0  0  0  0
 20 48  1  0  0  0  0
 21 49  1  0  0  0  0
 21 50  1  0  0  0  0
 22 23  1  0  0  0  0
 22 51  1  0  0  0  0
 22 52  1  0  0  0  0
 23 24  2  0  0  0  0
 23 28  1  0  0  0  0
 24 25  1  0  0  0  0
 24 53  1  0  0  0  0
 25 26  2  0  0  0  0
 25 54  1  0  0  0  0
 26 27  1  0  0  0  0
 26 29  1  0  0  0  0
 27 28  2  0  0  0  0
 27 55  1  0  0  0  0
 28 56  1  0  0  0  0
 29 30  1  0  0  0  0
 30 31  2  0  0  0  0
 30 35  1  0  0  0  0
 31 32  1  0  0  0  0
 31 57  1  0  0  0  0
 32 33  2  0  0  0  0
 32 58  1  0  0  0  0
 33 34  1  0  0  0  0
 33 59  1  0  0  0  0
 34 35  2  0  0  0  0
 34 60  1  0  0  0  0
 35 36  1  0  0  0  0
M  END
$$$$
