PHJ
 OpenBabel04121316173D

 19 19  0  0  0  0  0  0  0  0999 V2000
    1.0265   -0.1616    0.0599 N   0  0  0  0  0  0  0  0  0  0  0  0
    2.4988   -0.1276   -0.0338 O   0  0  0  0  0  0  0  0  0  0  0  0
    3.0046    0.8944    0.7459 C   0  0  0  0  0  0  0  0  0  0  0  0
    2.2828    1.6955    1.3453 O   0  0  0  0  0  0  0  0  0  0  0  0
    4.3856    0.9019    0.7701 N   0  0  0  0  0  0  0  0  0  0  0  0
    5.0987    1.9201    1.4330 C   0  0  0  0  0  0  0  0  0  0  0  0
    4.6302    3.2377    1.3732 C   0  0  0  0  0  0  0  0  0  0  0  0
    5.3434    4.2789    1.9512 C   0  0  0  0  0  0  0  0  0  0  0  0
    6.4739    3.9958    2.7043 C   0  0  0  0  0  0  0  0  0  0  0  0
    6.8972    2.6728    2.8533 C   0  0  0  0  0  0  0  0  0  0  0  0
    6.2619    1.6398    2.1504 C   0  0  0  0  0  0  0  0  0  0  0  0
    0.7768   -0.8566   -0.6365 H   0  0  0  0  0  0  0  0  0  0  0  0
    0.7796    0.7535   -0.3305 H   0  0  0  0  0  0  0  0  0  0  0  0
    4.8747    0.0844    0.4303 H   0  0  0  0  0  0  0  0  0  0  0  0
    3.7092    3.4796    0.8503 H   0  0  0  0  0  0  0  0  0  0  0  0
    4.9932    5.2983    1.8219 H   0  0  0  0  0  0  0  0  0  0  0  0
    7.0123    4.8078    3.1842 H   0  0  0  0  0  0  0  0  0  0  0  0
    7.7170    2.4522    3.5328 H   0  0  0  0  0  0  0  0  0  0  0  0
    6.6418    0.6264    2.2464 H   0  0  0  0  0  0  0  0  0  0  0  0
  1  2  1  0  0  0  0
  1 12  1  0  0  0  0
  1 13  1  0  0  0  0
  2  3  1  0  0  0  0
  3  4  2  0  0  0  0
  3  5  1  0  0  0  0
  5  6  1  0  0  0  0
  5 14  1  0  0  0  0
  6  7  2  0  0  0  0
  6 11  1  0  0  0  0
  7  8  1  0  0  0  0
  7 15  1  0  0  0  0
  8  9  2  0  0  0  0
  8 16  1  0  0  0  0
  9 10  1  0  0  0  0
  9 17  1  0  0  0  0
 10 11  2  0  0  0  0
 10 18  1  0  0  0  0
 11 19  1  0  0  0  0
M  END
$$$$
