PHS
 OpenBabel04121316173D

  7  6  0  0  0  0  0  0  0  0999 V2000
    0.9198   -0.0488    0.0344 O   0  0  0  0  0  0  0  0  0  0  0  0
    2.6498   -0.0488    0.0344 P   0  0  0  0  0  0  0  0  0  0  0  0
    2.6679   -1.1767    1.0617 O   0  0  0  0  0  0  0  0  0  0  0  0
    4.3798   -0.0488    0.0344 O   0  0  0  0  0  0  0  0  0  0  0  0
    0.6269   -0.1102    0.9663 H   0  0  0  0  0  0  0  0  0  0  0  0
    2.6507   -0.3840   -1.3345 H   0  0  0  0  0  0  0  0  0  0  0  0
    4.6200   -0.8578    0.5356 H   0  0  0  0  0  0  0  0  0  0  0  0
  1  2  1  0  0  0  0
  1  5  1  0  0  0  0
  2  3  2  0  0  0  0
  2  4  1  0  0  0  0
  2  6  1  0  0  0  0
  4  7  1  0  0  0  0
M  END
$$$$
