PI5
 OpenBabel04121316173D

102105  0  0  1  0  0  0  0  0999 V2000
   -0.7250   -2.1993    3.0194 C   0  0  0  0  0  0  0  0  0  0  0  0
   -1.0043   -3.0183    4.1024 C   0  0  0  0  0  0  0  0  0  0  0  0
   -0.4436   -1.5808    5.5196 C   0  0  1  0  0  0  0  0  0  0  0  0
    0.4588   -2.6767    5.3488 H   0  0  0  0  0  0  0  0  0  0  0  0
   -0.2426    0.8073    5.4174 C   0  0  2  0  0  0  0  0  0  0  0  0
   -1.2137   -0.4910    5.9050 H   0  0  0  0  0  0  0  0  0  0  0  0
   -1.1597   -0.3982    4.9117 N   0  0  0  0  0  0  0  0  0  0  0  0
   -1.9698    0.7145    5.4252 C   0  0  0  0  0  0  0  0  0  0  0  0
   -2.4365    0.5876    6.5693 O   0  0  0  0  0  0  0  0  0  0  0  0
   -1.5441    1.8571    4.5615 C   0  0  1  0  0  0  0  0  0  0  0  0
   -0.2644    1.8941    4.3506 H   0  0  0  0  0  0  0  0  0  0  0  0
   -1.7252    1.4011    3.3172 N   0  0  0  0  0  0  0  0  0  0  0  0
   -1.0085    0.4639    2.6361 C   0  0  0  0  0  0  0  0  0  0  0  0
   -1.5696    0.1805    1.3114 C   0  0  2  0  0  0  0  0  0  0  0  0
   -1.2143    0.9795    0.7092 H   0  0  0  0  0  0  0  0  0  0  0  0
   -3.0789    0.1518    1.3490 C   0  0  1  0  0  0  0  0  0  0  0  0
   -3.4552    0.0050    0.3375 H   0  0  0  0  0  0  0  0  0  0  0  0
   -3.4950   -0.9616    2.1902 N   0  0  0  0  0  0  0  0  0  0  0  0
   -3.2789   -2.2435    1.8255 C   0  0  0  0  0  0  0  0  0  0  0  0
   -2.6385   -2.5034    0.8089 O   0  0  0  0  0  0  0  0  0  0  0  0
   -3.8038   -3.3530    2.7154 C   0  0  1  0  0  0  0  0  0  0  0  0
   -3.5174   -3.1764    3.7333 H   0  0  0  0  0  0  0  0  0  0  0  0
   -5.2737   -3.3502    2.6752 N   0  0  0  0  0  0  0  0  0  0  0  0
   -6.1455   -4.5065    2.7578 C   0  0  0  0  0  0  0  0  0  0  0  0
   -7.2721   -4.1461    1.8464 C   0  0  0  0  0  0  0  0  0  0  0  0
   -7.4420   -2.6842    2.1036 C   0  0  0  0  0  0  0  0  0  0  0  0
   -6.1249   -2.2674    2.7284 C   0  0  0  0  0  0  0  0  0  0  0  0
   -5.9678   -1.2463    3.3771 O   0  0  0  0  0  0  0  0  0  0  0  0
   -3.2466   -4.6808    2.1615 C   0  0  0  0  0  0  0  0  0  0  0  0
   -1.7659   -4.7374    2.0701 C   0  0  0  0  0  0  0  0  0  0  0  0
   -3.6516   -5.8201    3.0484 C   0  0  0  0  0  0  0  0  0  0  0  0
   -3.6410    1.4688    1.8625 C   0  0  0  0  0  0  0  0  0  0  0  0
   -5.0933    1.5072    1.8753 C   0  0  0  0  0  0  0  0  0  0  0  0
   -5.8324    0.3873    1.8456 C   0  0  0  0  0  0  0  0  0  0  0  0
   -7.1749    0.2886    1.6485 C   0  0  0  0  0  0  0  0  0  0  0  0
   -7.8668    1.4157    1.6050 C   0  0  0  0  0  0  0  0  0  0  0  0
   -7.1825    2.5870    1.8261 C   0  0  0  0  0  0  0  0  0  0  0  0
   -5.7965    2.6459    1.8375 C   0  0  0  0  0  0  0  0  0  0  0  0
   -9.1834    1.4091    1.3164 O   0  0  0  0  0  0  0  0  0  0  0  0
   -0.9919   -0.9667    0.7587 O   0  0  0  0  0  0  0  0  0  0  0  0
   -2.1281    2.9453    5.3380 C   0  0  0  0  0  0  0  0  0  0  0  0
   -1.9018    4.1672    4.5175 C   0  0  0  0  0  0  0  0  0  0  0  0
   -1.4026    4.1314    3.1959 C   0  0  0  0  0  0  0  0  0  0  0  0
   -0.8265    5.0943    2.4748 C   0  0  0  0  0  0  0  0  0  0  0  0
   -1.1037    6.2988    2.9590 C   0  0  0  0  0  0  0  0  0  0  0  0
   -0.4114    7.2325    2.2790 O   0  0  0  0  0  0  0  0  0  0  0  0
   -0.5409    8.3208    3.2288 C   0  0  0  0  0  0  0  0  0  0  0  0
    0.4367    9.2263    2.1682 C   0  0  0  0  0  0  0  0  0  0  0  0
    0.4911    7.9086    3.7461 C   0  0  0  0  0  0  0  0  0  0  0  0
    0.3497    5.5762    4.4652 N   0  0  0  0  0  0  0  0  0  0  0  0
    0.0975    3.3665    4.9731 C   0  0  0  0  0  0  0  0  0  0  0  0
    0.0105    2.5414    6.2176 O   0  0  0  0  0  0  0  0  0  0  0  0
   -1.6793    6.4460    4.3080 C   0  0  0  0  0  0  0  0  0  0  0  0
   -1.8386    5.3546    5.1508 C   0  0  0  0  0  0  0  0  0  0  0  0
   -0.9067   -3.6786    6.0906 C   0  0  0  0  0  0  0  0  0  0  0  0
   -1.1136   -2.2750    2.0805 H   0  0  0  0  0  0  0  0  0  0  0  0
    0.2891   -1.9092    3.0506 H   0  0  0  0  0  0  0  0  0  0  0  0
   -1.4430   -1.6204    3.4800 H   0  0  0  0  0  0  0  0  0  0  0  0
   -0.3637   -3.9749    3.6568 H   0  0  0  0  0  0  0  0  0  0  0  0
   -2.0446   -3.4538    4.0183 H   0  0  0  0  0  0  0  0  0  0  0  0
   -0.3603   -0.7073    4.2926 H   0  0  0  0  0  0  0  0  0  0  0  0
   -1.5159    2.1151    2.7764 H   0  0  0  0  0  0  0  0  0  0  0  0
   -1.3564   -0.2473    3.2155 H   0  0  0  0  0  0  0  0  0  0  0  0
    0.0427    0.5122    2.7420 H   0  0  0  0  0  0  0  0  0  0  0  0
   -4.0842   -0.7493    3.0069 H   0  0  0  0  0  0  0  0  0  0  0  0
   -6.4756   -4.7083    3.7886 H   0  0  0  0  0  0  0  0  0  0  0  0
   -5.8049   -5.4383    2.3584 H   0  0  0  0  0  0  0  0  0  0  0  0
   -8.1765   -4.6987    2.0675 H   0  0  0  0  0  0  0  0  0  0  0  0
   -7.0347   -4.3597    0.7966 H   0  0  0  0  0  0  0  0  0  0  0  0
   -8.2396   -2.4864    2.8170 H   0  0  0  0  0  0  0  0  0  0  0  0
   -7.7033   -2.1858    1.1703 H   0  0  0  0  0  0  0  0  0  0  0  0
   -3.5967   -4.8164    1.1502 H   0  0  0  0  0  0  0  0  0  0  0  0
   -1.5286   -4.7903    3.0881 H   0  0  0  0  0  0  0  0  0  0  0  0
   -1.3161   -3.9187    1.5356 H   0  0  0  0  0  0  0  0  0  0  0  0
   -1.3334   -5.6500    1.7486 H   0  0  0  0  0  0  0  0  0  0  0  0
   -3.3503   -5.6823    4.0719 H   0  0  0  0  0  0  0  0  0  0  0  0
   -3.3539   -6.7706    2.6522 H   0  0  0  0  0  0  0  0  0  0  0  0
   -4.6777   -5.9204    3.1706 H   0  0  0  0  0  0  0  0  0  0  0  0
   -3.2408    2.2913    1.2750 H   0  0  0  0  0  0  0  0  0  0  0  0
   -3.4044    1.6325    2.8895 H   0  0  0  0  0  0  0  0  0  0  0  0
   -5.2805   -0.4885    1.9420 H   0  0  0  0  0  0  0  0  0  0  0  0
   -7.6890   -0.6128    1.5192 H   0  0  0  0  0  0  0  0  0  0  0  0
   -7.7408    3.4811    1.9851 H   0  0  0  0  0  0  0  0  0  0  0  0
   -5.2574    3.5677    1.7909 H   0  0  0  0  0  0  0  0  0  0  0  0
   -9.5720    0.5292    1.1594 H   0  0  0  0  0  0  0  0  0  0  0  0
   -1.4453   -1.2133   -0.0637 H   0  0  0  0  0  0  0  0  0  0  0  0
   -1.7239    3.0381    6.3938 H   0  0  0  0  0  0  0  0  0  0  0  0
   -3.1337    2.7128    5.3971 H   0  0  0  0  0  0  0  0  0  0  0  0
   -1.5132    3.3773    2.5325 H   0  0  0  0  0  0  0  0  0  0  0  0
   -0.3024    4.9631    1.5690 H   0  0  0  0  0  0  0  0  0  0  0  0
   -0.2853    8.3514    4.8535 H   0  0  0  0  0  0  0  0  0  0  0  0
   -1.4738    8.8925    3.2197 H   0  0  0  0  0  0  0  0  0  0  0  0
   -0.1491    9.5888    1.2222 H   0  0  0  0  0  0  0  0  0  0  0  0
    1.4855    9.2842    1.9885 H   0  0  0  0  0  0  0  0  0  0  0  0
    0.7679    9.6043    3.8750 H   0  0  0  0  0  0  0  0  0  0  0  0
   -0.0716    9.6221    3.4792 H   0  0  0  0  0  0  0  0  0  0  0  0
    0.7863    6.8262    3.7802 H   0  0  0  0  0  0  0  0  0  0  0  0
   -1.6726    7.4089    4.7642 H   0  0  0  0  0  0  0  0  0  0  0  0
   -1.9538    5.4180    6.2071 H   0  0  0  0  0  0  0  0  0  0  0  0
   -0.4451   -5.0558    5.6552 H   0  0  0  0  0  0  0  0  0  0  0  0
   -1.9964   -4.4374    6.1055 H   0  0  0  0  0  0  0  0  0  0  0  0
   -0.5898   -4.1689    7.1273 H   0  0  0  0  0  0  0  0  0  0  0  0
  1  2  1  0  0  0  0
  1 56  1  0  0  0  0
  1 57  1  0  0  0  0
  1 58  1  0  0  0  0
  2  3  1  0  0  0  0
  2 59  1  0  0  0  0
  2 60  1  0  0  0  0
  3  4  1  6  0  0  0
  3  5  1  0  0  0  0
  3 55  1  0  0  0  0
  5  6  1  1  0  0  0
  5  7  1  0  0  0  0
  5 51  1  0  0  0  0
  7  8  1  0  0  0  0
  7 61  1  0  0  0  0
  8  9  2  0  0  0  0
  8 10  1  0  0  0  0
 10 11  1  1  0  0  0
 10 12  1  0  0  0  0
 10 41  1  0  0  0  0
 12 13  1  0  0  0  0
 12 62  1  0  0  0  0
 13 63  1  0  0  0  0
 13 64  1  0  0  0  0
 14 16  1  0  0  0  0
 14 40  1  0  0  0  0
 14 15  1  6  0  0  0
 14 13  1  0  0  0  0
 16 17  1  6  0  0  0
 16 18  1  0  0  0  0
 16 32  1  0  0  0  0
 18 19  1  0  0  0  0
 18 65  1  0  0  0  0
 19 20  2  0  0  0  0
 19 21  1  0  0  0  0
 21 22  1  1  0  0  0
 21 23  1  0  0  0  0
 21 29  1  0  0  0  0
 23 24  1  0  0  0  0
 23 27  1  0  0  0  0
 24 25  1  0  0  0  0
 24 66  1  0  0  0  0
 24 67  1  0  0  0  0
 25 26  1  0  0  0  0
 25 68  1  0  0  0  0
 25 69  1  0  0  0  0
 26 27  1  0  0  0  0
 26 70  1  0  0  0  0
 26 71  1  0  0  0  0
 27 28  2  0  0  0  0
 29 30  1  0  0  0  0
 29 31  1  0  0  0  0
 29 72  1  0  0  0  0
 30 73  1  0  0  0  0
 30 74  1  0  0  0  0
 30 75  1  0  0  0  0
 31 76  1  0  0  0  0
 31 77  1  0  0  0  0
 31 78  1  0  0  0  0
 32 33  1  0  0  0  0
 32 79  1  0  0  0  0
 32 80  1  0  0  0  0
 33 34  2  0  0  0  0
 33 38  1  0  0  0  0
 34 35  1  0  0  0  0
 34 81  1  0  0  0  0
 35 36  2  0  0  0  0
 35 82  1  0  0  0  0
 36 37  1  0  0  0  0
 36 39  1  0  0  0  0
 37 38  2  0  0  0  0
 37 83  1  0  0  0  0
 38 84  1  0  0  0  0
 39 85  1  0  0  0  0
 40 86  1  0  0  0  0
 41 42  1  0  0  0  0
 41 87  1  0  0  0  0
 41 88  1  0  0  0  0
 42 43  2  0  0  0  0
 42 54  1  0  0  0  0
 43 44  1  0  0  0  0
 43 89  1  0  0  0  0
 44 45  2  0  0  0  0
 44 90  1  0  0  0  0
 45 46  1  0  0  0  0
 45 53  1  0  0  0  0
 46 47  1  0  0  0  0
 47 48  1  0  0  0  0
 47 91  1  0  0  0  0
 47 92  1  0  0  0  0
 48 49  1  0  0  0  0
 48 93  1  0  0  0  0
 48 94  1  0  0  0  0
 49 50  1  0  0  0  0
 49 95  1  0  0  0  0
 49 96  1  0  0  0  0
 50 51  1  0  0  0  0
 50 97  1  0  0  0  0
 51 52  2  0  0  0  0
 53 54  2  0  0  0  0
 53 98  1  0  0  0  0
 54 99  1  0  0  0  0
 55100  1  0  0  0  0
 55101  1  0  0  0  0
 55102  1  0  0  0  0
M  END
$$$$
