PI6
 OpenBabel04121316173D

 91 93  0  0  1  0  0  0  0  0999 V2000
   -0.1713   -0.5666    0.2145 C   0  0  0  0  0  0  0  0  0  0  0  0
    0.7037   -1.3222   -0.5785 C   0  0  0  0  0  0  0  0  0  0  0  0
   -0.2631   -3.1767   -0.0424 C   0  0  1  0  0  0  0  0  0  0  0  0
    1.0980   -2.8253    0.6856 H   0  0  0  0  0  0  0  0  0  0  0  0
   -2.6034   -3.8095    0.5945 C   0  0  2  0  0  0  0  0  0  0  0  0
   -1.3524   -3.6140   -0.7096 H   0  0  0  0  0  0  0  0  0  0  0  0
   -1.3932   -2.8187    0.2000 N   0  0  0  0  0  0  0  0  0  0  0  0
   -2.7156   -3.5140   -0.4247 C   0  0  0  0  0  0  0  0  0  0  0  0
   -2.5482   -4.5815   -1.1809 O   0  0  0  0  0  0  0  0  0  0  0  0
   -3.9480   -2.8812    0.6582 C   0  0  1  0  0  0  0  0  0  0  0  0
   -3.3622   -3.2008    1.8373 H   0  0  0  0  0  0  0  0  0  0  0  0
   -3.8429   -1.6879    0.3611 N   0  0  0  0  0  0  0  0  0  0  0  0
   -2.8018   -0.9374    0.8029 C   0  0  0  0  0  0  0  0  0  0  0  0
   -3.6125    0.0419    0.0996 C   0  0  2  0  0  0  0  0  0  0  0  0
   -3.6574   -0.2123   -0.9628 H   0  0  0  0  0  0  0  0  0  0  0  0
   -3.1245    1.4064    0.3525 C   0  0  2  0  0  0  0  0  0  0  0  0
   -2.0406    1.4017    0.3426 H   0  0  0  0  0  0  0  0  0  0  0  0
   -3.6075    1.9007    1.7023 C   0  0  0  0  0  0  0  0  0  0  0  0
   -3.1320    1.0541    2.8239 C   0  0  0  0  0  0  0  0  0  0  0  0
   -2.3980    1.4738    3.8955 C   0  0  0  0  0  0  0  0  0  0  0  0
   -1.8634    0.5745    4.7963 C   0  0  0  0  0  0  0  0  0  0  0  0
   -2.2689   -0.7228    4.7663 C   0  0  0  0  0  0  0  0  0  0  0  0
   -3.2172   -1.0989    3.8750 C   0  0  0  0  0  0  0  0  0  0  0  0
   -3.5760   -0.2240    2.9123 C   0  0  0  0  0  0  0  0  0  0  0  0
   -3.6126    2.2567   -0.7108 N   0  0  0  0  0  0  0  0  0  0  0  0
   -4.9697    2.3866   -0.8859 C   0  0  0  0  0  0  0  0  0  0  0  0
   -5.7761    1.8223   -0.1707 O   0  0  0  0  0  0  0  0  0  0  0  0
   -5.3557    3.2067   -1.8956 O   0  0  0  0  0  0  0  0  0  0  0  0
   -6.7833    3.3517   -2.0736 C   0  0  0  0  0  0  0  0  0  0  0  0
   -7.4122    2.0145   -2.3917 C   0  0  0  0  0  0  0  0  0  0  0  0
   -7.4122    3.9374   -0.8301 C   0  0  0  0  0  0  0  0  0  0  0  0
   -7.0151    4.2957   -3.2358 C   0  0  0  0  0  0  0  0  0  0  0  0
   -5.0247   -0.1064    0.6265 O   0  0  0  0  0  0  0  0  0  0  0  0
   -4.9325   -3.9855   -0.2096 C   0  0  0  0  0  0  0  0  0  0  0  0
   -6.3110   -3.0634    0.8439 C   0  0  0  0  0  0  0  0  0  0  0  0
   -5.9008   -3.1266    2.7417 C   0  0  0  0  0  0  0  0  0  0  0  0
   -6.8150   -3.1990    3.6185 C   0  0  0  0  0  0  0  0  0  0  0  0
   -7.7643   -2.3670    2.9318 C   0  0  0  0  0  0  0  0  0  0  0  0
   -8.9404   -2.7716    3.8244 O   0  0  0  0  0  0  0  0  0  0  0  0
  -10.1344   -2.6738    2.5690 C   0  0  0  0  0  0  0  0  0  0  0  0
  -11.0202   -2.8619    4.0797 C   0  0  0  0  0  0  0  0  0  0  0  0
   -9.7529   -3.3183    2.4396 C   0  0  0  0  0  0  0  0  0  0  0  0
   -7.4717   -4.0156    1.9839 N   0  0  0  0  0  0  0  0  0  0  0  0
   -5.0156   -4.0983    1.4753 C   0  0  0  0  0  0  0  0  0  0  0  0
   -3.7785   -4.8979    1.3533 O   0  0  0  0  0  0  0  0  0  0  0  0
   -8.0755   -2.4173    1.1039 C   0  0  0  0  0  0  0  0  0  0  0  0
   -7.4185   -3.2335    0.1994 C   0  0  0  0  0  0  0  0  0  0  0  0
    1.7683   -3.1238   -0.9835 C   0  0  0  0  0  0  0  0  0  0  0  0
   -0.4910    0.4026    0.0080 H   0  0  0  0  0  0  0  0  0  0  0  0
   -0.0624   -0.7976    1.2661 H   0  0  0  0  0  0  0  0  0  0  0  0
   -0.8330   -1.1638   -0.3359 H   0  0  0  0  0  0  0  0  0  0  0  0
    1.7419   -0.5891   -0.3283 H   0  0  0  0  0  0  0  0  0  0  0  0
    0.6719   -0.9914   -1.6675 H   0  0  0  0  0  0  0  0  0  0  0  0
   -1.0788   -2.2450    0.9401 H   0  0  0  0  0  0  0  0  0  0  0  0
   -4.5191   -1.6171    1.0964 H   0  0  0  0  0  0  0  0  0  0  0  0
   -2.0152   -1.1429    0.3178 H   0  0  0  0  0  0  0  0  0  0  0  0
   -2.1932   -0.9214    1.7319 H   0  0  0  0  0  0  0  0  0  0  0  0
   -4.6982    1.9084    1.7156 H   0  0  0  0  0  0  0  0  0  0  0  0
   -3.2632    2.9117    1.8524 H   0  0  0  0  0  0  0  0  0  0  0  0
   -2.2437    2.5177    4.0562 H   0  0  0  0  0  0  0  0  0  0  0  0
   -1.1424    0.8610    5.5320 H   0  0  0  0  0  0  0  0  0  0  0  0
   -1.8527   -1.4125    5.4633 H   0  0  0  0  0  0  0  0  0  0  0  0
   -3.6959   -2.0434    3.9489 H   0  0  0  0  0  0  0  0  0  0  0  0
   -4.1222   -0.5981    2.1178 H   0  0  0  0  0  0  0  0  0  0  0  0
   -2.9505    2.7207   -1.2973 H   0  0  0  0  0  0  0  0  0  0  0  0
   -7.2574    1.3200   -1.5718 H   0  0  0  0  0  0  0  0  0  0  0  0
   -6.9615    1.5889   -3.2829 H   0  0  0  0  0  0  0  0  0  0  0  0
   -8.4793    2.1255   -2.5429 H   0  0  0  0  0  0  0  0  0  0  0  0
   -7.2577    3.2775    0.0178 H   0  0  0  0  0  0  0  0  0  0  0  0
   -8.4793    4.0626   -0.9696 H   0  0  0  0  0  0  0  0  0  0  0  0
   -6.9615    4.8968   -0.5962 H   0  0  0  0  0  0  0  0  0  0  0  0
   -6.5664    3.8963   -4.1433 H   0  0  0  0  0  0  0  0  0  0  0  0
   -6.5664    5.2658   -3.0310 H   0  0  0  0  0  0  0  0  0  0  0  0
   -8.0815    4.4322   -3.4038 H   0  0  0  0  0  0  0  0  0  0  0  0
   -5.3855   -0.9766    0.3645 H   0  0  0  0  0  0  0  0  0  0  0  0
   -4.7571   -5.2487    0.1918 H   0  0  0  0  0  0  0  0  0  0  0  0
   -5.0211   -3.8649   -1.1538 H   0  0  0  0  0  0  0  0  0  0  0  0
   -4.8559   -3.4143    3.0636 H   0  0  0  0  0  0  0  0  0  0  0  0
   -6.8809   -3.5311    4.5404 H   0  0  0  0  0  0  0  0  0  0  0  0
  -10.6890   -3.9763    1.6262 H   0  0  0  0  0  0  0  0  0  0  0  0
  -10.3777   -1.5531    2.2214 H   0  0  0  0  0  0  0  0  0  0  0  0
  -11.2996   -1.9089    4.6460 H   0  0  0  0  0  0  0  0  0  0  0  0
  -11.5398   -3.7552    4.4565 H   0  0  0  0  0  0  0  0  0  0  0  0
  -11.5825   -3.4018    2.5105 H   0  0  0  0  0  0  0  0  0  0  0  0
  -11.4508   -2.4356    2.5767 H   0  0  0  0  0  0  0  0  0  0  0  0
   -8.8079   -4.0237    2.6679 H   0  0  0  0  0  0  0  0  0  0  0  0
   -9.0900   -2.6030    0.8279 H   0  0  0  0  0  0  0  0  0  0  0  0
   -7.2330   -3.6012   -0.7051 H   0  0  0  0  0  0  0  0  0  0  0  0
    3.1259   -2.4103   -0.8608 H   0  0  0  0  0  0  0  0  0  0  0  0
    2.1168   -2.8684   -2.1931 H   0  0  0  0  0  0  0  0  0  0  0  0
    2.5629   -4.0430   -0.9641 H   0  0  0  0  0  0  0  0  0  0  0  0
  1  2  1  0  0  0  0
  1 49  1  0  0  0  0
  1 50  1  0  0  0  0
  1 51  1  0  0  0  0
  2  3  1  0  0  0  0
  2 52  1  0  0  0  0
  2 53  1  0  0  0  0
  3  4  1  1  0  0  0
  3  5  1  0  0  0  0
  3 48  1  0  0  0  0
  5  6  1  6  0  0  0
  5  7  1  0  0  0  0
  5 44  1  0  0  0  0
  7  8  1  0  0  0  0
  7 54  1  0  0  0  0
  8  9  2  0  0  0  0
  8 10  1  0  0  0  0
 10 11  1  1  0  0  0
 10 12  1  0  0  0  0
 10 34  1  0  0  0  0
 12 13  1  0  0  0  0
 12 55  1  0  0  0  0
 13 56  1  0  0  0  0
 13 57  1  0  0  0  0
 14 33  1  0  0  0  0
 14 15  1  6  0  0  0
 14 13  1  0  0  0  0
 16 18  1  0  0  0  0
 16 25  1  0  0  0  0
 16 17  1  6  0  0  0
 16 14  1  0  0  0  0
 18 19  1  0  0  0  0
 18 58  1  0  0  0  0
 18 59  1  0  0  0  0
 19 20  2  0  0  0  0
 19 24  1  0  0  0  0
 20 21  1  0  0  0  0
 20 60  1  0  0  0  0
 21 22  2  0  0  0  0
 21 61  1  0  0  0  0
 22 23  1  0  0  0  0
 22 62  1  0  0  0  0
 23 24  2  0  0  0  0
 23 63  1  0  0  0  0
 24 64  1  0  0  0  0
 25 26  1  0  0  0  0
 25 65  1  0  0  0  0
 26 27  2  0  0  0  0
 26 28  1  0  0  0  0
 28 29  1  0  0  0  0
 29 30  1  0  0  0  0
 29 31  1  0  0  0  0
 29 32  1  0  0  0  0
 30 66  1  0  0  0  0
 30 67  1  0  0  0  0
 30 68  1  0  0  0  0
 31 69  1  0  0  0  0
 31 70  1  0  0  0  0
 31 71  1  0  0  0  0
 32 72  1  0  0  0  0
 32 73  1  0  0  0  0
 32 74  1  0  0  0  0
 33 75  1  0  0  0  0
 34 35  1  0  0  0  0
 34 76  1  0  0  0  0
 34 77  1  0  0  0  0
 35 36  2  0  0  0  0
 35 47  1  0  0  0  0
 36 37  1  0  0  0  0
 36 78  1  0  0  0  0
 37 38  2  0  0  0  0
 37 79  1  0  0  0  0
 38 39  1  0  0  0  0
 38 46  1  0  0  0  0
 39 40  1  0  0  0  0
 40 41  1  0  0  0  0
 40 80  1  0  0  0  0
 40 81  1  0  0  0  0
 41 42  1  0  0  0  0
 41 82  1  0  0  0  0
 41 83  1  0  0  0  0
 42 43  1  0  0  0  0
 42 84  1  0  0  0  0
 42 85  1  0  0  0  0
 43 44  1  0  0  0  0
 43 86  1  0  0  0  0
 44 45  2  0  0  0  0
 46 47  2  0  0  0  0
 46 87  1  0  0  0  0
 47 88  1  0  0  0  0
 48 89  1  0  0  0  0
 48 90  1  0  0  0  0
 48 91  1  0  0  0  0
M  END
$$$$
