PIL
 OpenBabel04121316173D

 43 45  0  0  0  0  0  0  0  0999 V2000
    1.3344   -0.5147   -1.5755 C   0  0  0  0  0  0  0  0  0  0  0  0
    2.6807   -0.2108   -1.2822 O   0  0  0  0  0  0  0  0  0  0  0  0
    3.2160   -1.0795   -0.2928 C   0  0  0  0  0  0  0  0  0  0  0  0
    4.5862   -1.0594   -0.4429 C   0  0  0  0  0  0  0  0  0  0  0  0
    5.1473   -2.2773   -0.6699 C   0  0  0  0  0  0  0  0  0  0  0  0
    4.4249   -3.4624   -0.4091 C   0  0  0  0  0  0  0  0  0  0  0  0
    3.1460   -3.4234    0.1930 C   0  0  0  0  0  0  0  0  0  0  0  0
    2.5128   -2.1695    0.2989 C   0  0  0  0  0  0  0  0  0  0  0  0
    1.2439   -2.0975    0.8815 O   0  0  0  0  0  0  0  0  0  0  0  0
    0.4079   -0.8406    1.0634 C   0  0  0  0  0  0  0  0  0  0  0  0
   -0.0372   -0.7242    2.4810 C   0  0  0  0  0  0  0  0  0  0  0  0
   -0.6224    0.6976    2.5321 C   0  0  0  0  0  0  0  0  0  0  0  0
    0.2175    1.6323    1.6889 C   0  0  0  0  0  0  0  0  0  0  0  0
    1.0600    0.6764    0.9085 C   0  0  0  0  0  0  0  0  0  0  0  0
    5.1462   -4.6586   -0.8458 C   0  0  0  0  0  0  0  0  0  0  0  0
    6.3249   -4.4480   -1.1897 O   0  0  0  0  0  0  0  0  0  0  0  0
    4.5516   -5.8754   -0.8301 N   0  0  0  0  0  0  0  0  0  0  0  0
    5.1472   -7.0961   -1.2643 C   0  0  0  0  0  0  0  0  0  0  0  0
    6.3081   -7.2479   -2.0592 C   0  0  0  0  0  0  0  0  0  0  0  0
    7.2836   -6.0820   -2.8867 Cl  0  0  0  0  0  0  0  0  0  0  0  0
    6.7312   -8.5363   -2.3514 C   0  0  0  0  0  0  0  0  0  0  0  0
    6.1079   -9.6666   -1.9683 N   0  0  0  0  0  0  0  0  0  0  0  0
    4.9904   -9.5046   -1.2347 C   0  0  0  0  0  0  0  0  0  0  0  0
    4.4814   -8.2706   -0.8584 C   0  0  0  0  0  0  0  0  0  0  0  0
    3.0435   -8.2370    0.1094 Cl  0  0  0  0  0  0  0  0  0  0  0  0
    0.5791    0.2821   -1.6008 H   0  0  0  0  0  0  0  0  0  0  0  0
    1.1243   -0.7359   -0.6078 H   0  0  0  0  0  0  0  0  0  0  0  0
    1.0276   -1.4921   -1.9388 H   0  0  0  0  0  0  0  0  0  0  0  0
    5.1163   -0.1500   -0.6978 H   0  0  0  0  0  0  0  0  0  0  0  0
    6.1207   -2.2892   -1.1668 H   0  0  0  0  0  0  0  0  0  0  0  0
    2.6488   -4.3437    0.4941 H   0  0  0  0  0  0  0  0  0  0  0  0
   -0.5030   -0.9891    0.4245 H   0  0  0  0  0  0  0  0  0  0  0  0
    0.8720   -0.8547    3.0702 H   0  0  0  0  0  0  0  0  0  0  0  0
   -0.7547   -1.4990    2.7685 H   0  0  0  0  0  0  0  0  0  0  0  0
   -0.6637    1.0676    3.5497 H   0  0  0  0  0  0  0  0  0  0  0  0
   -1.6231    0.6861    2.0830 H   0  0  0  0  0  0  0  0  0  0  0  0
    0.8921    2.3022    2.2333 H   0  0  0  0  0  0  0  0  0  0  0  0
   -0.3885    2.2769    1.0256 H   0  0  0  0  0  0  0  0  0  0  0  0
    2.0866    0.6768    1.2733 H   0  0  0  0  0  0  0  0  0  0  0  0
    1.1194    1.2030   -0.0572 H   0  0  0  0  0  0  0  0  0  0  0  0
    3.6600   -5.9697   -0.3489 H   0  0  0  0  0  0  0  0  0  0  0  0
    7.6216   -8.6772   -2.9595 H   0  0  0  0  0  0  0  0  0  0  0  0
    4.5030  -10.4311   -0.9510 H   0  0  0  0  0  0  0  0  0  0  0  0
  1  2  1  0  0  0  0
  1 26  1  0  0  0  0
  1 27  1  0  0  0  0
  1 28  1  0  0  0  0
  2  3  1  0  0  0  0
  3  4  2  0  0  0  0
  3  8  1  0  0  0  0
  4  5  1  0  0  0  0
  4 29  1  0  0  0  0
  5  6  2  0  0  0  0
  5 30  1  0  0  0  0
  6  7  1  0  0  0  0
  6 15  1  0  0  0  0
  7  8  2  0  0  0  0
  7 31  1  0  0  0  0
  8  9  1  0  0  0  0
  9 10  1  0  0  0  0
 10 11  1  0  0  0  0
 10 14  1  0  0  0  0
 10 32  1  0  0  0  0
 11 12  1  0  0  0  0
 11 33  1  0  0  0  0
 11 34  1  0  0  0  0
 12 13  1  0  0  0  0
 12 35  1  0  0  0  0
 12 36  1  0  0  0  0
 13 14  1  0  0  0  0
 13 37  1  0  0  0  0
 13 38  1  0  0  0  0
 14 39  1  0  0  0  0
 14 40  1  0  0  0  0
 15 16  2  0  0  0  0
 15 17  1  0  0  0  0
 17 18  1  0  0  0  0
 17 41  1  0  0  0  0
 18 19  2  0  0  0  0
 18 24  1  0  0  0  0
 19 20  1  0  0  0  0
 19 21  1  0  0  0  0
 21 22  2  0  0  0  0
 21 42  1  0  0  0  0
 22 23  1  0  0  0  0
 23 24  2  0  0  0  0
 23 43  1  0  0  0  0
 24 25  1  0  0  0  0
M  END
$$$$
