PIS
 OpenBabel04121316173D

 12 11  0  0  0  0  0  0  0  0999 V2000
    1.0981    0.0169   -0.0094 S   0  5  0  0  0  0  0  0  0  0  0  0
    3.2181    0.0169   -0.0094 P   0  0  1  0  0  0  0  0  0  0  0  0
    3.3858   -1.3348    0.6847 O   0  0  0  0  0  0  0  0  0  0  0  0
    3.2192   -0.1461   -1.6341 O   0  0  0  0  0  0  0  0  0  0  0  0
    2.2611   -0.3795   -2.9175 P   0  0  0  0  0  0  0  0  0  0  0  0
    1.6910   -1.7541   -2.6546 O   0  0  0  0  0  0  0  0  0  0  0  0
    2.1927    1.2260   -2.9847 O   0  0  0  0  0  0  0  0  0  0  0  0
    0.6441    0.0193   -2.9128 O   0  0  0  0  0  0  0  0  0  0  0  0
    4.9481    0.0169   -0.0094 O   0  0  0  0  0  0  0  0  0  0  0  0
    1.9786    1.5220   -2.0710 H   0  0  0  0  0  0  0  0  0  0  0  0
    0.2040   -0.6271   -2.3130 H   0  0  0  0  0  0  0  0  0  0  0  0
    5.1066   -0.4936    0.8116 H   0  0  0  0  0  0  0  0  0  0  0  0
  2  1  1  1  0  0  0
  2  3  2  0  0  0  0
  2  4  1  0  0  0  0
  2  9  1  0  0  0  0
  4  5  1  0  0  0  0
  5  6  2  0  0  0  0
  5  7  1  0  0  0  0
  5  8  1  0  0  0  0
  7 10  1  0  0  0  0
  8 11  1  0  0  0  0
  9 12  1  0  0  0  0
M  CHG  1   1  -1
M  END
$$$$
