PIU
 OpenBabel04121316173D

 42 43  0  0  0  0  0  0  0  0999 V2000
    1.0198    0.0903   -0.0210 C   0  0  0  0  0  0  0  0  0  0  0  0
    2.5326    0.0944   -0.0146 C   0  0  0  0  0  0  0  0  0  0  0  0
    3.1852    1.3312   -0.0196 C   0  0  0  0  0  0  0  0  0  0  0  0
    4.5662    1.3957   -0.0111 C   0  0  0  0  0  0  0  0  0  0  0  0
    5.3113    2.6884   -0.0018 C   0  0  0  0  0  0  0  0  0  0  0  0
    5.2822    0.2180   -0.0076 C   0  0  0  0  0  0  0  0  0  0  0  0
    4.6413   -1.0183   -0.0076 C   0  0  0  0  0  0  0  0  0  0  0  0
    3.2649   -1.0746   -0.0046 N   0  3  0  0  0  0  0  0  0  0  0  0
    2.4696   -2.3398   -0.0085 C   0  0  0  0  0  0  0  0  0  0  0  0
    3.2699   -3.6143    0.0220 C   0  0  0  0  0  0  0  0  0  0  0  0
    2.5600   -4.9095    0.0212 C   0  0  0  0  0  0  0  0  0  0  0  0
    3.3174   -6.0741    0.2424 C   0  0  0  0  0  0  0  0  0  0  0  0
    2.7325   -7.3047    0.0210 C   0  0  0  0  0  0  0  0  0  0  0  0
    1.3744   -7.3430   -0.2970 C   0  0  0  0  0  0  0  0  0  0  0  0
    0.5999   -6.1839   -0.3751 C   0  0  0  0  0  0  0  0  0  0  0  0
    1.2121   -4.9618   -0.2911 C   0  0  0  0  0  0  0  0  0  0  0  0
    0.6563   -8.9030   -0.6870 S   0  0  0  0  0  0  0  0  0  0  0  0
    1.2466   -9.3289   -1.9266 O   0  0  0  0  0  0  0  0  0  0  0  0
    0.6667   -9.6757    0.5349 O   0  0  0  0  0  0  0  0  0  0  0  0
   -0.9321   -8.4919   -1.0085 N   0  0  0  0  0  0  0  0  0  0  0  0
    5.5921   -2.1908   -0.0124 C   0  0  0  0  0  0  0  0  0  0  0  0
    0.6148    1.1085   -0.0235 H   0  0  0  0  0  0  0  0  0  0  0  0
    0.6332   -0.4067    0.8736 H   0  0  0  0  0  0  0  0  0  0  0  0
    0.6383   -0.4096   -0.9164 H   0  0  0  0  0  0  0  0  0  0  0  0
    2.6060    2.2537   -0.0281 H   0  0  0  0  0  0  0  0  0  0  0  0
    4.6262    3.5382   -0.0044 H   0  0  0  0  0  0  0  0  0  0  0  0
    5.9494    2.7474   -0.8890 H   0  0  0  0  0  0  0  0  0  0  0  0
    5.9332    2.7414    0.8974 H   0  0  0  0  0  0  0  0  0  0  0  0
    6.3716    0.2527   -0.0046 H   0  0  0  0  0  0  0  0  0  0  0  0
    1.8635   -2.3011   -0.9227 H   0  0  0  0  0  0  0  0  0  0  0  0
    1.8120   -2.3077    0.8688 H   0  0  0  0  0  0  0  0  0  0  0  0
    3.8482   -3.6338    0.9429 H   0  0  0  0  0  0  0  0  0  0  0  0
    3.8555   -3.6654   -0.8968 H   0  0  0  0  0  0  0  0  0  0  0  0
    4.3662   -6.0237    0.5403 H   0  0  0  0  0  0  0  0  0  0  0  0
    3.3259   -8.2149    0.0820 H   0  0  0  0  0  0  0  0  0  0  0  0
   -0.4688   -6.1892   -0.5387 H   0  0  0  0  0  0  0  0  0  0  0  0
    0.6245   -4.0741   -0.4933 H   0  0  0  0  0  0  0  0  0  0  0  0
   -1.0718   -8.0025   -1.8897 H   0  0  0  0  0  0  0  0  0  0  0  0
   -1.4780   -8.2333   -0.1912 H   0  0  0  0  0  0  0  0  0  0  0  0
    6.6417   -1.8906   -0.0122 H   0  0  0  0  0  0  0  0  0  0  0  0
    5.4826   -2.7714   -0.9291 H   0  0  0  0  0  0  0  0  0  0  0  0
    5.4876   -2.7746    0.9024 H   0  0  0  0  0  0  0  0  0  0  0  0
  1  2  1  0  0  0  0
  1 22  1  0  0  0  0
  1 23  1  0  0  0  0
  1 24  1  0  0  0  0
  2  3  2  0  0  0  0
  2  8  1  0  0  0  0
  3  4  1  0  0  0  0
  3 25  1  0  0  0  0
  4  5  1  0  0  0  0
  4  6  2  0  0  0  0
  5 26  1  0  0  0  0
  5 27  1  0  0  0  0
  5 28  1  0  0  0  0
  6  7  1  0  0  0  0
  6 29  1  0  0  0  0
  7  8  2  0  0  0  0
  7 21  1  0  0  0  0
  8  9  1  0  0  0  0
  9 10  1  0  0  0  0
  9 30  1  0  0  0  0
  9 31  1  0  0  0  0
 10 11  1  0  0  0  0
 10 32  1  0  0  0  0
 10 33  1  0  0  0  0
 11 12  2  0  0  0  0
 11 16  1  0  0  0  0
 12 13  1  0  0  0  0
 12 34  1  0  0  0  0
 13 14  2  0  0  0  0
 13 35  1  0  0  0  0
 14 15  1  0  0  0  0
 14 17  1  0  0  0  0
 15 16  2  0  0  0  0
 15 36  1  0  0  0  0
 16 37  1  0  0  0  0
 17 18  2  0  0  0  0
 17 19  2  0  0  0  0
 17 20  1  0  0  0  0
 20 38  1  0  0  0  0
 20 39  1  0  0  0  0
 21 40  1  0  0  0  0
 21 41  1  0  0  0  0
 21 42  1  0  0  0  0
M  CHG  1   8   1
M  END
$$$$
