PJC
 OpenBabel04121316173D

 49 53  0  0  0  0  0  0  0  0999 V2000
    0.8334    0.6915   -0.0620 O   0  0  0  0  0  0  0  0  0  0  0  0
    2.0851    0.6023   -0.1434 C   0  0  0  0  0  0  0  0  0  0  0  0
    2.6960   -0.6543   -0.0700 C   0  0  0  0  0  0  0  0  0  0  0  0
    3.6917   -0.8079   -1.5698 C   0  0  0  0  0  0  0  0  0  0  0  0
    4.7299    0.2257   -1.6015 N   0  0  0  0  0  0  0  0  0  0  0  0
    4.0558    1.5334   -1.3752 C   0  0  0  0  0  0  0  0  0  0  0  0
    3.1209    1.6473   -0.1303 C   0  0  0  0  0  0  0  0  0  0  0  0
    6.1568    0.0295   -1.6806 C   0  0  0  0  0  0  0  0  0  0  0  0
    6.8571    1.1133   -1.3559 N   0  0  0  0  0  0  0  0  0  0  0  0
    8.1953    1.0009   -1.1836 C   0  0  0  0  0  0  0  0  0  0  0  0
    8.9666   -0.1554   -1.2398 C   0  0  0  0  0  0  0  0  0  0  0  0
    8.3094   -1.3253   -1.5617 C   0  0  0  0  0  0  0  0  0  0  0  0
    6.8937   -1.1820   -1.8725 N   0  0  0  0  0  0  0  0  0  0  0  0
    8.9985   -2.7933   -1.3860 C   0  0  0  0  0  0  0  0  0  0  0  0
    8.4317   -3.9968   -1.0778 C   0  0  0  0  0  0  0  0  0  0  0  0
    9.4360   -5.0930   -1.1498 C   0  0  0  0  0  0  0  0  0  0  0  0
    9.3794   -6.2052   -0.6568 O   0  0  0  0  0  0  0  0  0  0  0  0
   10.4683   -4.6059   -1.8210 N   0  0  0  0  0  0  0  0  0  0  0  0
   10.4744   -3.3108   -1.4982 C   0  0  0  0  0  0  0  0  0  0  0  0
   11.5836   -2.9012   -1.2038 O   0  0  0  0  0  0  0  0  0  0  0  0
    7.1096   -4.3927   -0.8031 C   0  0  0  0  0  0  0  0  0  0  0  0
    6.5969   -5.6717   -0.8783 C   0  0  0  0  0  0  0  0  0  0  0  0
    5.2630   -5.6221   -0.7475 N   0  0  0  0  0  0  0  0  0  0  0  0
    4.5613   -6.3449   -0.7179 H   0  0  0  0  0  0  0  0  0  0  0  0
    4.9391   -4.3795   -0.3846 C   0  0  0  0  0  0  0  0  0  0  0  0
    6.1159   -3.6321   -0.2167 C   0  0  0  0  0  0  0  0  0  0  0  0
    6.1450   -2.3931    0.3925 C   0  0  0  0  0  0  0  0  0  0  0  0
    4.9013   -1.9165    0.5227 C   0  0  0  0  0  0  0  0  0  0  0  0
    3.7696   -2.7487    0.1174 C   0  0  0  0  0  0  0  0  0  0  0  0
    3.6675   -4.0358   -0.1743 C   0  0  0  0  0  0  0  0  0  0  0  0
   10.4119    0.0572   -1.0270 C   0  0  0  0  0  0  0  0  0  0  0  0
   11.0051    0.5913   -2.1235 F   0  0  0  0  0  0  0  0  0  0  0  0
   10.7308    0.8564    0.0254 F   0  0  0  0  0  0  0  0  0  0  0  0
   11.0593   -1.0522   -0.7419 F   0  0  0  0  0  0  0  0  0  0  0  0
    1.8910   -1.3904    0.1646 H   0  0  0  0  0  0  0  0  0  0  0  0
    3.1997   -0.6007    0.9337 H   0  0  0  0  0  0  0  0  0  0  0  0
    2.9699   -0.7529   -2.3928 H   0  0  0  0  0  0  0  0  0  0  0  0
    4.2291   -1.7351   -1.8308 H   0  0  0  0  0  0  0  0  0  0  0  0
    3.3872    1.6503   -2.2364 H   0  0  0  0  0  0  0  0  0  0  0  0
    4.7631    2.3517   -1.3385 H   0  0  0  0  0  0  0  0  0  0  0  0
    2.5580    2.5702   -0.0856 H   0  0  0  0  0  0  0  0  0  0  0  0
    3.6931    1.5048    0.8015 H   0  0  0  0  0  0  0  0  0  0  0  0
    8.6850    1.9540   -0.9718 H   0  0  0  0  0  0  0  0  0  0  0  0
   11.3560   -5.0842   -1.7644 H   0  0  0  0  0  0  0  0  0  0  0  0
    7.0451   -6.6325   -1.0007 H   0  0  0  0  0  0  0  0  0  0  0  0
    6.9821   -1.7016    0.4907 H   0  0  0  0  0  0  0  0  0  0  0  0
    4.9415   -0.8146    0.5751 H   0  0  0  0  0  0  0  0  0  0  0  0
    2.9313   -2.4781   -0.5361 H   0  0  0  0  0  0  0  0  0  0  0  0
    2.7458   -4.4633   -0.5684 H   0  0  0  0  0  0  0  0  0  0  0  0
  1  2  2  0  0  0  0
  2  3  1  0  0  0  0
  2  7  1  0  0  0  0
  3  4  1  0  0  0  0
  3 35  1  0  0  0  0
  3 36  1  0  0  0  0
  4  5  1  0  0  0  0
  4 37  1  0  0  0  0
  4 38  1  0  0  0  0
  5  6  1  0  0  0  0
  5  8  1  0  0  0  0
  6  7  1  0  0  0  0
  6 39  1  0  0  0  0
  6 40  1  0  0  0  0
  7 41  1  0  0  0  0
  7 42  1  0  0  0  0
  8  9  2  0  0  0  0
  8 13  1  0  0  0  0
  9 10  1  0  0  0  0
 10 11  2  0  0  0  0
 10 43  1  0  0  0  0
 11 12  1  0  0  0  0
 11 31  1  0  0  0  0
 12 13  2  0  0  0  0
 12 14  1  0  0  0  0
 14 15  2  0  0  0  0
 14 19  1  0  0  0  0
 15 16  1  0  0  0  0
 15 21  1  0  0  0  0
 16 17  2  0  0  0  0
 16 18  1  0  0  0  0
 18 19  1  0  0  0  0
 18 44  1  0  0  0  0
 19 20  2  0  0  0  0
 21 22  2  0  0  0  0
 21 26  1  0  0  0  0
 22 23  1  0  0  0  0
 22 45  1  0  0  0  0
 23 24  1  0  0  0  0
 23 25  1  0  0  0  0
 25 26  2  0  0  0  0
 25 30  1  0  0  0  0
 26 27  1  0  0  0  0
 27 28  2  0  0  0  0
 27 46  1  0  0  0  0
 28 29  1  0  0  0  0
 28 47  1  0  0  0  0
 29 30  2  0  0  0  0
 29 48  1  0  0  0  0
 30 49  1  0  0  0  0
 31 32  1  0  0  0  0
 31 33  1  0  0  0  0
 31 34  1  0  0  0  0
M  END
$$$$
