PK2
 OpenBabel04121316173D

 54 57  0  0  0  0  0  0  0  0999 V2000
    1.0597   -0.0155    0.0213 C   0  0  0  0  0  0  0  0  0  0  0  0
    2.4970    0.0760    0.0541 N   0  0  0  0  0  0  0  0  0  0  0  0
    3.0700    1.1792    0.5708 C   0  0  0  0  0  0  0  0  0  0  0  0
    2.6632    2.4352    0.6240 N   0  0  0  0  0  0  0  0  0  0  0  0
    3.6876    3.1643    1.2333 C   0  0  0  0  0  0  0  0  0  0  0  0
    4.6595    2.2638    1.6524 C   0  0  0  0  0  0  0  0  0  0  0  0
    4.2640    1.0377    1.2046 N   0  0  0  0  0  0  0  0  0  0  0  0
    4.7620    0.1732    1.3456 H   0  0  0  0  0  0  0  0  0  0  0  0
    5.7865    2.6008    2.3631 C   0  0  0  0  0  0  0  0  0  0  0  0
    6.0564    3.9575    2.4413 C   0  0  0  0  0  0  0  0  0  0  0  0
    5.1614    4.9579    2.0279 C   0  0  0  0  0  0  0  0  0  0  0  0
    3.8648    4.5721    1.4999 C   0  0  0  0  0  0  0  0  0  0  0  0
    2.7125    5.5604    1.2516 C   0  0  0  0  0  0  0  0  0  0  0  0
    2.9997    7.0340    1.6093 C   0  0  0  0  0  0  0  0  0  0  0  0
    1.8913    7.9617    1.3739 N   0  0  0  0  0  0  0  0  0  0  0  0
    2.2952    9.3654    1.6561 C   0  0  0  0  0  0  0  0  0  0  0  0
    1.0002   10.2107    1.5759 C   0  0  0  0  0  0  0  0  0  0  0  0
    0.3871   10.2019    2.9861 C   0  0  0  0  0  0  0  0  0  0  0  0
    1.0641   11.2363    3.8923 C   0  0  0  0  0  0  0  0  0  0  0  0
    0.8829   12.6381    3.3346 C   0  0  0  0  0  0  0  0  0  0  0  0
    1.5189   12.7378    1.9525 C   0  0  0  0  0  0  0  0  0  0  0  0
    0.9894   11.6534    1.0216 C   0  0  0  0  0  0  0  0  0  0  0  0
    5.5862    6.3165    2.1415 N   0  0  0  0  0  0  0  0  0  0  0  0
    6.7787    6.6045    2.5653 C   0  0  0  0  0  0  0  0  0  0  0  0
    7.6707    5.6523    2.9437 N   0  0  0  0  0  0  0  0  0  0  0  0
    8.5944    5.8948    3.2598 H   0  0  0  0  0  0  0  0  0  0  0  0
    7.3870    4.3288    2.9261 C   0  0  0  0  0  0  0  0  0  0  0  0
    8.2175    3.4832    3.2712 O   0  0  0  0  0  0  0  0  0  0  0  0
    7.2368    7.8728    2.6745 N   0  0  0  0  0  0  0  0  0  0  0  0
    0.7508   -0.9644   -0.4311 H   0  0  0  0  0  0  0  0  0  0  0  0
    0.6370    0.8016   -0.5662 H   0  0  0  0  0  0  0  0  0  0  0  0
    0.6517    0.0122    1.0378 H   0  0  0  0  0  0  0  0  0  0  0  0
    3.0094   -0.7671   -0.1876 H   0  0  0  0  0  0  0  0  0  0  0  0
    6.4749    1.8572    2.7434 H   0  0  0  0  0  0  0  0  0  0  0  0
    1.8505    5.2255    1.8517 H   0  0  0  0  0  0  0  0  0  0  0  0
    2.3874    5.4977    0.2039 H   0  0  0  0  0  0  0  0  0  0  0  0
    3.8285    7.3788    0.9886 H   0  0  0  0  0  0  0  0  0  0  0  0
    3.2654    7.0874    2.6722 H   0  0  0  0  0  0  0  0  0  0  0  0
    1.1049    7.7009    1.9697 H   0  0  0  0  0  0  0  0  0  0  0  0
    3.0795    9.6996    0.9712 H   0  0  0  0  0  0  0  0  0  0  0  0
    2.7192    9.3952    2.6709 H   0  0  0  0  0  0  0  0  0  0  0  0
    0.3456    9.6805    0.8701 H   0  0  0  0  0  0  0  0  0  0  0  0
    0.4942    9.2141    3.4481 H   0  0  0  0  0  0  0  0  0  0  0  0
   -0.6865   10.4009    2.9139 H   0  0  0  0  0  0  0  0  0  0  0  0
    2.1396   11.0362    3.9829 H   0  0  0  0  0  0  0  0  0  0  0  0
    0.6456   11.1702    4.8997 H   0  0  0  0  0  0  0  0  0  0  0  0
    1.3342   13.3743    4.0082 H   0  0  0  0  0  0  0  0  0  0  0  0
   -0.1888   12.8680    3.2765 H   0  0  0  0  0  0  0  0  0  0  0  0
    2.6077   12.6538    2.0269 H   0  0  0  0  0  0  0  0  0  0  0  0
    1.2995   13.7282    1.5313 H   0  0  0  0  0  0  0  0  0  0  0  0
    1.4633   11.7237    0.0368 H   0  0  0  0  0  0  0  0  0  0  0  0
   -0.0724   11.8980    0.8493 H   0  0  0  0  0  0  0  0  0  0  0  0
    6.6438    8.6372    2.3822 H   0  0  0  0  0  0  0  0  0  0  0  0
    8.1750    8.0960    2.9760 H   0  0  0  0  0  0  0  0  0  0  0  0
  1  2  1  0  0  0  0
  1 30  1  0  0  0  0
  1 31  1  0  0  0  0
  1 32  1  0  0  0  0
  2  3  1  0  0  0  0
  2 33  1  0  0  0  0
  3  4  2  0  0  0  0
  3  7  1  0  0  0  0
  4  5  1  0  0  0  0
  5  6  2  0  0  0  0
  5 12  1  0  0  0  0
  6  7  1  0  0  0  0
  6  9  1  0  0  0  0
  7  8  1  0  0  0  0
  9 10  2  0  0  0  0
  9 34  1  0  0  0  0
 10 11  1  0  0  0  0
 10 27  1  0  0  0  0
 11 12  2  0  0  0  0
 11 23  1  0  0  0  0
 12 13  1  0  0  0  0
 13 14  1  0  0  0  0
 13 35  1  0  0  0  0
 13 36  1  0  0  0  0
 14 15  1  0  0  0  0
 14 37  1  0  0  0  0
 14 38  1  0  0  0  0
 15 16  1  0  0  0  0
 15 39  1  0  0  0  0
 16 17  1  0  0  0  0
 16 40  1  0  0  0  0
 16 41  1  0  0  0  0
 17 18  1  0  0  0  0
 17 22  1  0  0  0  0
 17 42  1  0  0  0  0
 18 19  1  0  0  0  0
 18 43  1  0  0  0  0
 18 44  1  0  0  0  0
 19 20  1  0  0  0  0
 19 45  1  0  0  0  0
 19 46  1  0  0  0  0
 20 21  1  0  0  0  0
 20 47  1  0  0  0  0
 20 48  1  0  0  0  0
 21 22  1  0  0  0  0
 21 49  1  0  0  0  0
 21 50  1  0  0  0  0
 22 51  1  0  0  0  0
 22 52  1  0  0  0  0
 23 24  2  0  0  0  0
 24 25  1  0  0  0  0
 24 29  1  0  0  0  0
 25 26  1  0  0  0  0
 25 27  1  0  0  0  0
 27 28  2  0  0  0  0
 29 53  1  0  0  0  0
 29 54  1  0  0  0  0
M  END
$$$$
