PK3
 OpenBabel04121316173D

 34 36  0  0  0  0  0  0  0  0999 V2000
    1.0895    0.1458   -0.0633 O   0  0  0  0  0  0  0  0  0  0  0  0
    2.5125    0.0902   -0.1034 C   0  0  0  0  0  0  0  0  0  0  0  0
    3.1730    1.1625    0.7838 C   0  0  0  0  0  0  0  0  0  0  0  0
    4.7073    1.1628    0.8039 C   0  0  0  0  0  0  0  0  0  0  0  0
    5.4794   -0.0511    0.8433 C   0  0  0  0  0  0  0  0  0  0  0  0
    5.2095   -1.3995    0.6682 N   0  0  0  0  0  0  0  0  0  0  0  0
    4.3334   -1.8237    0.4359 H   0  0  0  0  0  0  0  0  0  0  0  0
    6.3721   -2.1242    0.7521 C   0  0  0  0  0  0  0  0  0  0  0  0
    7.3671   -1.3492    1.0726 N   0  0  0  0  0  0  0  0  0  0  0  0
    6.8452   -0.0886    1.1152 C   0  0  0  0  0  0  0  0  0  0  0  0
    7.5406    1.0755    1.3750 C   0  0  0  0  0  0  0  0  0  0  0  0
    6.8799    2.2786    1.1663 C   0  0  0  0  0  0  0  0  0  0  0  0
    5.4997    2.3811    0.8908 C   0  0  0  0  0  0  0  0  0  0  0  0
    4.9504    3.6878    0.6725 N   0  0  0  0  0  0  0  0  0  0  0  0
    5.7431    4.7255    0.6689 C   0  0  0  0  0  0  0  0  0  0  0  0
    5.3186    5.9908    0.4351 N   0  0  0  0  0  0  0  0  0  0  0  0
    7.0830    4.6427    0.9008 N   0  0  0  0  0  0  0  0  0  0  0  0
    7.6765    5.4568    0.8842 H   0  0  0  0  0  0  0  0  0  0  0  0
    7.7194    3.4786    1.1702 C   0  0  0  0  0  0  0  0  0  0  0  0
    8.9339    3.4404    1.3704 O   0  0  0  0  0  0  0  0  0  0  0  0
    6.4727   -3.4441    0.5316 N   0  0  0  0  0  0  0  0  0  0  0  0
    5.4099   -4.3555    0.2176 C   0  0  0  0  0  0  0  0  0  0  0  0
    0.7640   -0.5801   -0.6284 H   0  0  0  0  0  0  0  0  0  0  0  0
    2.8351    0.1945   -1.1423 H   0  0  0  0  0  0  0  0  0  0  0  0
    2.7517   -0.9120    0.2446 H   0  0  0  0  0  0  0  0  0  0  0  0
    2.8173    1.0053    1.8144 H   0  0  0  0  0  0  0  0  0  0  0  0
    2.7709    2.1402    0.4945 H   0  0  0  0  0  0  0  0  0  0  0  0
    8.5899    1.0311    1.6371 H   0  0  0  0  0  0  0  0  0  0  0  0
    4.3410    6.1562    0.2446 H   0  0  0  0  0  0  0  0  0  0  0  0
    5.9389    6.7900    0.4282 H   0  0  0  0  0  0  0  0  0  0  0  0
    7.4027   -3.8467    0.6324 H   0  0  0  0  0  0  0  0  0  0  0  0
    4.4366   -3.8697    0.1221 H   0  0  0  0  0  0  0  0  0  0  0  0
    5.3323   -5.1162    1.0002 H   0  0  0  0  0  0  0  0  0  0  0  0
    5.6251   -4.8623   -0.7284 H   0  0  0  0  0  0  0  0  0  0  0  0
  1  2  1  0  0  0  0
  1 23  1  0  0  0  0
  2  3  1  0  0  0  0
  2 24  1  0  0  0  0
  2 25  1  0  0  0  0
  3  4  1  0  0  0  0
  3 26  1  0  0  0  0
  3 27  1  0  0  0  0
  4  5  2  0  0  0  0
  4 13  1  0  0  0  0
  5  6  1  0  0  0  0
  5 10  1  0  0  0  0
  6  7  1  0  0  0  0
  6  8  1  0  0  0  0
  8  9  2  0  0  0  0
  8 21  1  0  0  0  0
  9 10  1  0  0  0  0
 10 11  2  0  0  0  0
 11 12  1  0  0  0  0
 11 28  1  0  0  0  0
 12 13  2  0  0  0  0
 12 19  1  0  0  0  0
 13 14  1  0  0  0  0
 14 15  2  0  0  0  0
 15 16  1  0  0  0  0
 15 17  1  0  0  0  0
 16 29  1  0  0  0  0
 16 30  1  0  0  0  0
 17 18  1  0  0  0  0
 17 19  1  0  0  0  0
 19 20  2  0  0  0  0
 21 22  1  0  0  0  0
 21 31  1  0  0  0  0
 22 32  1  0  0  0  0
 22 33  1  0  0  0  0
 22 34  1  0  0  0  0
M  END
$$$$
