PL0
 OpenBabel04121316173D

 19 19  0  0  0  0  0  0  0  0999 V2000
    0.9949   -0.0479   -0.0060 N   0  0  0  0  0  0  0  0  0  0  0  0
    2.3395   -0.1186    0.0680 C   0  0  0  0  0  0  0  0  0  0  0  0
    2.8878   -0.8944    0.9319 N   0  0  0  0  0  0  0  0  0  0  0  0
    3.0099    0.6735   -0.8274 N   0  0  0  0  0  0  0  0  0  0  0  0
    4.4188    0.7069   -0.9129 C   0  0  0  0  0  0  0  0  0  0  0  0
    5.1631   -0.4672   -0.7317 C   0  0  0  0  0  0  0  0  0  0  0  0
    6.5359   -0.4371   -0.5141 C   0  0  0  0  0  0  0  0  0  0  0  0
    7.2134    0.7714   -0.5916 C   0  0  0  0  0  0  0  0  0  0  0  0
    6.5127    1.9400   -0.8930 C   0  0  0  0  0  0  0  0  0  0  0  0
    5.1153    1.9179   -1.0086 C   0  0  0  0  0  0  0  0  0  0  0  0
    0.4342   -0.6056    0.6219 H   0  0  0  0  0  0  0  0  0  0  0  0
    0.5093    0.5699   -0.6330 H   0  0  0  0  0  0  0  0  0  0  0  0
    2.1919   -1.3943    1.4794 H   0  0  0  0  0  0  0  0  0  0  0  0
    2.5230    1.4182   -1.2955 H   0  0  0  0  0  0  0  0  0  0  0  0
    4.6491   -1.4254   -0.7025 H   0  0  0  0  0  0  0  0  0  0  0  0
    7.0528   -1.3570   -0.2593 H   0  0  0  0  0  0  0  0  0  0  0  0
    8.2830    0.7991   -0.4065 H   0  0  0  0  0  0  0  0  0  0  0  0
    7.0556    2.8755   -0.9975 H   0  0  0  0  0  0  0  0  0  0  0  0
    4.5857    2.8599   -1.1180 H   0  0  0  0  0  0  0  0  0  0  0  0
  1  2  1  0  0  0  0
  1 11  1  0  0  0  0
  1 12  1  0  0  0  0
  2  3  2  0  0  0  0
  2  4  1  0  0  0  0
  3 13  1  0  0  0  0
  4  5  1  0  0  0  0
  4 14  1  0  0  0  0
  5  6  2  0  0  0  0
  5 10  1  0  0  0  0
  6  7  1  0  0  0  0
  6 15  1  0  0  0  0
  7  8  2  0  0  0  0
  7 16  1  0  0  0  0
  8  9  1  0  0  0  0
  8 17  1  0  0  0  0
  9 10  2  0  0  0  0
  9 18  1  0  0  0  0
 10 19  1  0  0  0  0
M  END
$$$$
