PL2
 OpenBabel04121316173D

 48 48  0  0  0  0  0  0  0  0999 V2000
    1.1716   -0.0243   -0.0452 N   0  0  0  0  0  0  0  0  0  0  0  0
    2.5122   -0.0824    0.0103 C   0  0  0  0  0  0  0  0  0  0  0  0
    3.1420   -0.8038    0.8551 N   0  0  0  0  0  0  0  0  0  0  0  0
    3.1407    0.6840   -0.9084 N   0  0  0  0  0  0  0  0  0  0  0  0
    4.5863    0.7417   -0.9439 C   0  0  0  0  0  0  0  0  0  0  0  0
    5.0700    1.6922   -2.0240 C   0  0  0  0  0  0  0  0  0  0  0  0
    6.5903    1.7982   -1.9979 C   0  0  0  0  0  0  0  0  0  0  0  0
    7.0473    2.8684   -2.9947 C   0  0  0  0  0  0  0  0  0  0  0  0
    8.4832    3.0958   -2.8357 N   0  0  0  0  0  0  0  0  0  0  0  0
    9.0290    3.7470   -4.0516 C   0  0  0  0  0  0  0  0  0  0  0  0
   10.5482    3.6300   -4.1043 C   0  0  0  0  0  0  0  0  0  0  0  0
   11.2398    2.3979   -4.1517 C   0  0  0  0  0  0  0  0  0  0  0  0
   12.6344    2.3988   -4.2015 C   0  0  0  0  0  0  0  0  0  0  0  0
   13.3765    3.5170   -4.2018 N   0  0  0  0  0  0  0  0  0  0  0  0
   12.7030    4.6933   -4.1653 C   0  0  0  0  0  0  0  0  0  0  0  0
   11.3095    4.7869   -4.1367 C   0  0  0  0  0  0  0  0  0  0  0  0
   10.6357    5.9742   -4.1472 O   0  0  0  0  0  0  0  0  0  0  0  0
   13.5404    5.9284   -4.1402 C   0  0  0  0  0  0  0  0  0  0  0  0
   10.5615    1.0742   -4.1866 C   0  0  0  0  0  0  0  0  0  0  0  0
    9.1529    1.2781   -4.2635 O   0  0  0  0  0  0  0  0  0  0  0  0
    8.2887   -0.2198   -4.3094 P   0  0  0  0  0  0  0  0  0  0  0  0
    7.0676    0.4482   -4.9242 O   0  0  0  0  0  0  0  0  0  0  0  0
    9.2241   -0.7183   -5.5449 O   0  0  0  0  0  0  0  0  0  0  0  0
    7.4245   -1.7178   -4.3553 O   0  0  0  0  0  0  0  0  0  0  0  0
    0.6129   -0.5688    0.5938 H   0  0  0  0  0  0  0  0  0  0  0  0
    0.6847    0.5416   -0.7186 H   0  0  0  0  0  0  0  0  0  0  0  0
    2.4751   -1.2959    1.4505 H   0  0  0  0  0  0  0  0  0  0  0  0
    2.6217    1.2578   -1.5525 H   0  0  0  0  0  0  0  0  0  0  0  0
    4.9855   -0.2622   -1.1324 H   0  0  0  0  0  0  0  0  0  0  0  0
    4.9646    1.0770    0.0290 H   0  0  0  0  0  0  0  0  0  0  0  0
    4.6425    2.6878   -1.8636 H   0  0  0  0  0  0  0  0  0  0  0  0
    4.7314    1.3481   -3.0095 H   0  0  0  0  0  0  0  0  0  0  0  0
    7.0223    0.8114   -2.2139 H   0  0  0  0  0  0  0  0  0  0  0  0
    6.9383    2.0565   -0.9912 H   0  0  0  0  0  0  0  0  0  0  0  0
    6.5281    3.8100   -2.8217 H   0  0  0  0  0  0  0  0  0  0  0  0
    6.7870    2.5455   -4.0081 H   0  0  0  0  0  0  0  0  0  0  0  0
    8.9075    2.1691   -2.8468 H   0  0  0  0  0  0  0  0  0  0  0  0
    8.6813    4.7790   -4.0462 H   0  0  0  0  0  0  0  0  0  0  0  0
    8.6431    3.3247   -4.9948 H   0  0  0  0  0  0  0  0  0  0  0  0
   13.2063    1.4716   -4.2498 H   0  0  0  0  0  0  0  0  0  0  0  0
   11.2504    6.7160   -4.0767 H   0  0  0  0  0  0  0  0  0  0  0  0
   14.6047    5.6826   -4.1503 H   0  0  0  0  0  0  0  0  0  0  0  0
   13.3228    6.4903   -3.2269 H   0  0  0  0  0  0  0  0  0  0  0  0
   13.3123    6.5422   -5.0158 H   0  0  0  0  0  0  0  0  0  0  0  0
   10.7957    0.4742   -3.3004 H   0  0  0  0  0  0  0  0  0  0  0  0
   10.9281    0.5528   -5.0784 H   0  0  0  0  0  0  0  0  0  0  0  0
    9.0596   -0.1483   -6.3206 H   0  0  0  0  0  0  0  0  0  0  0  0
    6.7952   -1.7500   -3.6133 H   0  0  0  0  0  0  0  0  0  0  0  0
  1  2  1  0  0  0  0
  1 25  1  0  0  0  0
  1 26  1  0  0  0  0
  2  3  2  0  0  0  0
  2  4  1  0  0  0  0
  3 27  1  0  0  0  0
  4  5  1  0  0  0  0
  4 28  1  0  0  0  0
  5  6  1  0  0  0  0
  5 29  1  0  0  0  0
  5 30  1  0  0  0  0
  6  7  1  0  0  0  0
  6 31  1  0  0  0  0
  6 32  1  0  0  0  0
  7  8  1  0  0  0  0
  7 33  1  0  0  0  0
  7 34  1  0  0  0  0
  8  9  1  0  0  0  0
  8 35  1  0  0  0  0
  8 36  1  0  0  0  0
  9 10  1  0  0  0  0
  9 37  1  0  0  0  0
 10 11  1  0  0  0  0
 10 38  1  0  0  0  0
 10 39  1  0  0  0  0
 11 12  2  0  0  0  0
 11 16  1  0  0  0  0
 12 13  1  0  0  0  0
 12 19  1  0  0  0  0
 13 14  2  0  0  0  0
 13 40  1  0  0  0  0
 14 15  1  0  0  0  0
 15 16  2  0  0  0  0
 15 18  1  0  0  0  0
 16 17  1  0  0  0  0
 17 41  1  0  0  0  0
 18 42  1  0  0  0  0
 18 43  1  0  0  0  0
 18 44  1  0  0  0  0
 19 20  1  0  0  0  0
 19 45  1  0  0  0  0
 19 46  1  0  0  0  0
 20 21  1  0  0  0  0
 21 22  2  0  0  0  0
 21 23  1  0  0  0  0
 21 24  1  0  0  0  0
 23 47  1  0  0  0  0
 24 48  1  0  0  0  0
M  END
$$$$
