PL4
 OpenBabel04121316173D

 52 52  0  0  1  0  0  0  0  0999 V2000
    1.1257   -0.2366   -0.4211 O   0  0  0  0  0  0  0  0  0  0  0  0
    2.4457   -0.1961   -0.1339 C   0  0  0  0  0  0  0  0  0  0  0  0
    3.0209   -1.2323    0.2006 O   0  0  0  0  0  0  0  0  0  0  0  0
    3.1193    1.1842   -0.2488 C   0  0  1  0  0  0  0  0  0  0  0  0
    2.8762    1.6387   -1.2155 H   0  0  0  0  0  0  0  0  0  0  0  0
    2.7118    2.0830    0.8429 N   0  0  0  0  0  0  0  0  0  0  0  0
    1.3629    2.6172    0.7277 C   0  0  0  0  0  0  0  0  0  0  0  0
    1.0448    3.4268    1.9522 C   0  0  0  0  0  0  0  0  0  0  0  0
    0.6186    2.8778    3.1731 C   0  0  0  0  0  0  0  0  0  0  0  0
    0.4550    3.7212    4.2692 C   0  0  0  0  0  0  0  0  0  0  0  0
    0.6741    5.0465    4.2207 N   0  0  0  0  0  0  0  0  0  0  0  0
    1.0873    5.5558    3.0348 C   0  0  0  0  0  0  0  0  0  0  0  0
    1.2821    4.7860    1.8945 C   0  0  0  0  0  0  0  0  0  0  0  0
    1.7283    5.2789    0.6989 O   0  0  0  0  0  0  0  0  0  0  0  0
    1.3529    7.0203    2.9876 C   0  0  0  0  0  0  0  0  0  0  0  0
    0.3696    1.4295    3.3917 C   0  0  0  0  0  0  0  0  0  0  0  0
    0.5688    0.6987    2.1874 O   0  0  0  0  0  0  0  0  0  0  0  0
    0.2563   -0.9935    2.3659 P   0  0  0  0  0  0  0  0  0  0  0  0
    0.2768   -0.9602    3.8939 O   0  0  0  0  0  0  0  0  0  0  0  0
   -1.2811   -0.7414    1.8916 O   0  0  0  0  0  0  0  0  0  0  0  0
   -0.0562   -2.6856    2.5443 O   0  0  0  0  0  0  0  0  0  0  0  0
    4.6447    0.9343   -0.1990 C   0  0  0  0  0  0  0  0  0  0  0  0
    5.4364    2.2206   -0.2989 C   0  0  0  0  0  0  0  0  0  0  0  0
    6.9414    2.0204   -0.2506 C   0  0  0  0  0  0  0  0  0  0  0  0
    7.6831    3.3618   -0.3535 C   0  0  1  0  0  0  0  0  0  0  0  0
    7.4096    3.8851   -1.2768 H   0  0  0  0  0  0  0  0  0  0  0  0
    7.4134    4.3205    0.8461 C   0  0  0  0  0  0  0  0  0  0  0  0
    8.2479    4.6157    1.6961 O   0  0  0  0  0  0  0  0  0  0  0  0
    6.1670    4.8482    0.9094 O   0  0  0  0  0  0  0  0  0  0  0  0
    9.1303    3.0752   -0.4232 N   0  0  0  0  0  0  0  0  0  0  0  0
    0.7634    0.6084   -0.7412 H   0  0  0  0  0  0  0  0  0  0  0  0
    3.3113    2.9065    0.9003 H   0  0  0  0  0  0  0  0  0  0  0  0
    0.5888    1.8767    0.5864 H   0  0  0  0  0  0  0  0  0  0  0  0
    1.2555    3.1992   -0.1899 H   0  0  0  0  0  0  0  0  0  0  0  0
    0.1484    3.3350    5.2424 H   0  0  0  0  0  0  0  0  0  0  0  0
    1.7979    6.2429    0.7442 H   0  0  0  0  0  0  0  0  0  0  0  0
    1.1734    7.4835    3.9583 H   0  0  0  0  0  0  0  0  0  0  0  0
    0.6904    7.4755    2.2455 H   0  0  0  0  0  0  0  0  0  0  0  0
    2.3958    7.1855    2.7008 H   0  0  0  0  0  0  0  0  0  0  0  0
   -0.6670    1.2856    3.7255 H   0  0  0  0  0  0  0  0  0  0  0  0
    1.0741    1.0851    4.1592 H   0  0  0  0  0  0  0  0  0  0  0  0
   -1.3523    0.1065    1.4244 H   0  0  0  0  0  0  0  0  0  0  0  0
    0.6072   -3.0236    3.1724 H   0  0  0  0  0  0  0  0  0  0  0  0
    4.9321    0.2581   -1.0125 H   0  0  0  0  0  0  0  0  0  0  0  0
    4.9158    0.4344    0.7418 H   0  0  0  0  0  0  0  0  0  0  0  0
    5.1712    2.7971    0.5821 H   0  0  0  0  0  0  0  0  0  0  0  0
    5.1498    2.7788   -1.1980 H   0  0  0  0  0  0  0  0  0  0  0  0
    7.2366    1.3562   -1.0742 H   0  0  0  0  0  0  0  0  0  0  0  0
    7.2059    1.5109    0.6849 H   0  0  0  0  0  0  0  0  0  0  0  0
    5.5609    4.6165    0.1852 H   0  0  0  0  0  0  0  0  0  0  0  0
    9.3397    2.3757   -1.1304 H   0  0  0  0  0  0  0  0  0  0  0  0
    9.4225    2.6831    0.4771 H   0  0  0  0  0  0  0  0  0  0  0  0
  1  2  1  0  0  0  0
  1 31  1  0  0  0  0
  2  3  2  0  0  0  0
  2  4  1  0  0  0  0
  4  5  1  6  0  0  0
  4  6  1  0  0  0  0
  4 22  1  0  0  0  0
  6  7  1  0  0  0  0
  6 32  1  0  0  0  0
  7  8  1  0  0  0  0
  7 33  1  0  0  0  0
  7 34  1  0  0  0  0
  8  9  2  0  0  0  0
  8 13  1  0  0  0  0
  9 10  1  0  0  0  0
  9 16  1  0  0  0  0
 10 11  2  0  0  0  0
 10 35  1  0  0  0  0
 11 12  1  0  0  0  0
 12 13  2  0  0  0  0
 12 15  1  0  0  0  0
 13 14  1  0  0  0  0
 14 36  1  0  0  0  0
 15 37  1  0  0  0  0
 15 38  1  0  0  0  0
 15 39  1  0  0  0  0
 16 17  1  0  0  0  0
 16 40  1  0  0  0  0
 16 41  1  0  0  0  0
 17 18  1  0  0  0  0
 18 19  2  0  0  0  0
 18 20  1  0  0  0  0
 18 21  1  0  0  0  0
 20 42  1  0  0  0  0
 21 43  1  0  0  0  0
 22 23  1  0  0  0  0
 22 44  1  0  0  0  0
 22 45  1  0  0  0  0
 23 24  1  0  0  0  0
 23 46  1  0  0  0  0
 23 47  1  0  0  0  0
 24 25  1  0  0  0  0
 24 48  1  0  0  0  0
 24 49  1  0  0  0  0
 25 26  1  6  0  0  0
 25 27  1  0  0  0  0
 25 30  1  0  0  0  0
 27 28  2  0  0  0  0
 27 29  1  0  0  0  0
 29 50  1  0  0  0  0
 30 51  1  0  0  0  0
 30 52  1  0  0  0  0
M  END
$$$$
