PL5
 OpenBabel04121316173D

 50 50  0  0  1  0  0  0  0  0999 V2000
    0.9492   -0.2038   -0.0843 O   0  0  0  0  0  0  0  0  0  0  0  0
    2.2870   -0.1124    0.1095 C   0  0  0  0  0  0  0  0  0  0  0  0
    2.8469   -0.8948    0.8757 O   0  0  0  0  0  0  0  0  0  0  0  0
    2.9880    0.9846   -0.6949 C   0  0  1  0  0  0  0  0  0  0  0  0
    2.7096    0.9187   -1.7546 H   0  0  0  0  0  0  0  0  0  0  0  0
    2.6950    2.3173   -0.1495 N   0  0  0  0  0  0  0  0  0  0  0  0
    1.5480    2.8407   -0.3718 C   0  0  0  0  0  0  0  0  0  0  0  0
    1.2129    4.1586    0.1703 C   0  0  0  0  0  0  0  0  0  0  0  0
    0.4085    4.3031    1.2993 C   0  0  0  0  0  0  0  0  0  0  0  0
    0.2006    5.5851    1.7802 C   0  0  0  0  0  0  0  0  0  0  0  0
    0.7142    6.6799    1.1938 N   0  0  0  0  0  0  0  0  0  0  0  0
    1.4754    6.5004    0.0822 C   0  0  0  0  0  0  0  0  0  0  0  0
    1.7368    5.2562   -0.4738 C   0  0  0  0  0  0  0  0  0  0  0  0
    2.4466    5.0561   -1.6240 O   0  0  0  0  0  0  0  0  0  0  0  0
    2.0375    7.7322   -0.5405 C   0  0  0  0  0  0  0  0  0  0  0  0
   -0.1733    3.1715    2.0545 C   0  0  0  0  0  0  0  0  0  0  0  0
    0.1292    1.9376    1.4032 O   0  0  0  0  0  0  0  0  0  0  0  0
   -0.5637    0.5813    2.2236 P   0  0  0  0  0  0  0  0  0  0  0  0
   -0.4734    1.2380    3.5975 O   0  0  0  0  0  0  0  0  0  0  0  0
   -2.0140    0.9243    1.5683 O   0  0  0  0  0  0  0  0  0  0  0  0
   -1.2566   -0.7751    3.0441 O   0  0  0  0  0  0  0  0  0  0  0  0
    4.5060    0.7720   -0.5520 C   0  0  0  0  0  0  0  0  0  0  0  0
    5.2778    1.8406   -1.2980 C   0  0  0  0  0  0  0  0  0  0  0  0
    6.7858    1.7038   -1.1512 C   0  0  0  0  0  0  0  0  0  0  0  0
    7.5307    2.7945   -1.9324 C   0  0  1  0  0  0  0  0  0  0  0  0
    7.2627    2.7620   -2.9946 H   0  0  0  0  0  0  0  0  0  0  0  0
    7.2618    4.2370   -1.4069 C   0  0  0  0  0  0  0  0  0  0  0  0
    8.1018    4.9328   -0.8457 O   0  0  0  0  0  0  0  0  0  0  0  0
    6.0169    4.7269   -1.6260 O   0  0  0  0  0  0  0  0  0  0  0  0
    8.9811    2.5129   -1.8435 N   0  0  0  0  0  0  0  0  0  0  0  0
    0.6256    0.3907   -0.7842 H   0  0  0  0  0  0  0  0  0  0  0  0
    0.7333    2.3367   -0.9125 H   0  0  0  0  0  0  0  0  0  0  0  0
   -0.3836    5.7661    2.6830 H   0  0  0  0  0  0  0  0  0  0  0  0
    2.8340    5.8945   -1.9183 H   0  0  0  0  0  0  0  0  0  0  0  0
    1.7490    8.6219    0.0224 H   0  0  0  0  0  0  0  0  0  0  0  0
    1.6592    7.8201   -1.5626 H   0  0  0  0  0  0  0  0  0  0  0  0
    3.1291    7.6616   -0.5538 H   0  0  0  0  0  0  0  0  0  0  0  0
   -1.2634    3.2874    2.1151 H   0  0  0  0  0  0  0  0  0  0  0  0
    0.2622    3.2020    3.0586 H   0  0  0  0  0  0  0  0  0  0  0  0
   -1.9449    1.5393    0.8219 H   0  0  0  0  0  0  0  0  0  0  0  0
   -0.6086   -1.0637    3.7120 H   0  0  0  0  0  0  0  0  0  0  0  0
    4.7895   -0.2233   -0.9080 H   0  0  0  0  0  0  0  0  0  0  0  0
    4.7851    0.8344    0.5093 H   0  0  0  0  0  0  0  0  0  0  0  0
    4.9780    2.7835   -0.8432 H   0  0  0  0  0  0  0  0  0  0  0  0
    4.9966    1.8511   -2.3579 H   0  0  0  0  0  0  0  0  0  0  0  0
    7.0846    0.7099   -1.5129 H   0  0  0  0  0  0  0  0  0  0  0  0
    7.0521    1.7496   -0.0874 H   0  0  0  0  0  0  0  0  0  0  0  0
    5.3805    4.1293   -2.0578 H   0  0  0  0  0  0  0  0  0  0  0  0
    9.1913    1.5497   -2.0915 H   0  0  0  0  0  0  0  0  0  0  0  0
    9.2723    2.6385   -0.8696 H   0  0  0  0  0  0  0  0  0  0  0  0
  1  2  1  0  0  0  0
  1 31  1  0  0  0  0
  2  3  2  0  0  0  0
  2  4  1  0  0  0  0
  4  5  1  6  0  0  0
  4  6  1  0  0  0  0
  4 22  1  0  0  0  0
  6  7  2  0  0  0  0
  7  8  1  0  0  0  0
  7 32  1  0  0  0  0
  8  9  2  0  0  0  0
  8 13  1  0  0  0  0
  9 10  1  0  0  0  0
  9 16  1  0  0  0  0
 10 11  2  0  0  0  0
 10 33  1  0  0  0  0
 11 12  1  0  0  0  0
 12 13  2  0  0  0  0
 12 15  1  0  0  0  0
 13 14  1  0  0  0  0
 14 34  1  0  0  0  0
 15 35  1  0  0  0  0
 15 36  1  0  0  0  0
 15 37  1  0  0  0  0
 16 17  1  0  0  0  0
 16 38  1  0  0  0  0
 16 39  1  0  0  0  0
 17 18  1  0  0  0  0
 18 19  2  0  0  0  0
 18 20  1  0  0  0  0
 18 21  1  0  0  0  0
 20 40  1  0  0  0  0
 21 41  1  0  0  0  0
 22 23  1  0  0  0  0
 22 42  1  0  0  0  0
 22 43  1  0  0  0  0
 23 24  1  0  0  0  0
 23 44  1  0  0  0  0
 23 45  1  0  0  0  0
 24 25  1  0  0  0  0
 24 46  1  0  0  0  0
 24 47  1  0  0  0  0
 25 26  1  6  0  0  0
 25 27  1  0  0  0  0
 25 30  1  0  0  0  0
 27 28  2  0  0  0  0
 27 29  1  0  0  0  0
 29 48  1  0  0  0  0
 30 49  1  0  0  0  0
 30 50  1  0  0  0  0
M  END
$$$$
