PL6
 OpenBabel04121316173D

 42 42  0  0  1  0  0  0  0  0999 V2000
    0.9577    0.1608   -0.1180 O   0  0  0  0  0  0  0  0  0  0  0  0
    2.3034    0.2344   -0.1232 C   0  0  0  0  0  0  0  0  0  0  0  0
    2.8973    1.0781   -0.7964 O   0  0  0  0  0  0  0  0  0  0  0  0
    2.9730   -0.7805    0.7659 C   0  0  0  0  0  0  0  0  0  0  0  0
    4.4904   -0.8270    0.5556 C   0  0  0  0  0  0  0  0  0  0  0  0
    5.2534   -1.8231    1.4714 C   0  0  1  0  0  0  0  0  0  0  0  0
    5.1121   -1.5651    2.5333 H   0  0  0  0  0  0  0  0  0  0  0  0
    4.8574   -3.2846    1.2783 C   0  0  0  0  0  0  0  0  0  0  0  0
    5.6244   -4.1670    0.9125 O   0  0  0  0  0  0  0  0  0  0  0  0
    3.5875   -3.5803    1.6275 O   0  0  0  0  0  0  0  0  0  0  0  0
    6.6841   -1.7406    1.0915 N   0  0  0  0  0  0  0  0  0  0  0  0
    7.5017   -2.2054    1.9847 C   0  0  0  0  0  0  0  0  0  0  0  0
    8.9518   -1.9354    1.8796 C   0  0  0  0  0  0  0  0  0  0  0  0
    9.4513   -0.6282    1.8100 C   0  0  0  0  0  0  0  0  0  0  0  0
   10.8222   -0.4628    1.6869 C   0  0  0  0  0  0  0  0  0  0  0  0
   11.6856   -1.4907    1.6172 N   0  0  0  0  0  0  0  0  0  0  0  0
   11.1710   -2.7464    1.6969 C   0  0  0  0  0  0  0  0  0  0  0  0
    9.8145   -3.0106    1.8622 C   0  0  0  0  0  0  0  0  0  0  0  0
    9.2874   -4.2602    1.9923 O   0  0  0  0  0  0  0  0  0  0  0  0
   12.1523   -3.8642    1.5705 C   0  0  0  0  0  0  0  0  0  0  0  0
    8.5994    0.5807    1.9167 C   0  0  0  0  0  0  0  0  0  0  0  0
    7.2661    0.1849    2.1883 O   0  0  0  0  0  0  0  0  0  0  0  0
    6.2265    1.5612    2.3229 P   0  0  0  0  0  0  0  0  0  0  0  0
    5.1143    0.7280    2.9591 O   0  0  0  0  0  0  0  0  0  0  0  0
    7.1325    2.0799    3.5755 O   0  0  0  0  0  0  0  0  0  0  0  0
    5.1869    2.9374    2.4575 O   0  0  0  0  0  0  0  0  0  0  0  0
    0.6173   -0.7549   -0.0986 H   0  0  0  0  0  0  0  0  0  0  0  0
    2.5491   -1.7470    0.4975 H   0  0  0  0  0  0  0  0  0  0  0  0
    2.7378   -0.5404    1.8120 H   0  0  0  0  0  0  0  0  0  0  0  0
    4.8713    0.1975    0.6602 H   0  0  0  0  0  0  0  0  0  0  0  0
    4.7133   -1.0589   -0.4896 H   0  0  0  0  0  0  0  0  0  0  0  0
    3.1173   -2.8516    2.0671 H   0  0  0  0  0  0  0  0  0  0  0  0
    7.1744   -2.7517    2.8911 H   0  0  0  0  0  0  0  0  0  0  0  0
   11.2758    0.5271    1.6429 H   0  0  0  0  0  0  0  0  0  0  0  0
    9.9541   -4.9371    1.8074 H   0  0  0  0  0  0  0  0  0  0  0  0
   13.1672   -3.4824    1.4328 H   0  0  0  0  0  0  0  0  0  0  0  0
   11.8933   -4.4760    0.7009 H   0  0  0  0  0  0  0  0  0  0  0  0
   12.1265   -4.4767    2.4752 H   0  0  0  0  0  0  0  0  0  0  0  0
    8.6343    1.1857    1.0061 H   0  0  0  0  0  0  0  0  0  0  0  0
    8.9860    1.1791    2.7518 H   0  0  0  0  0  0  0  0  0  0  0  0
    7.0998    1.3838    4.2622 H   0  0  0  0  0  0  0  0  0  0  0  0
    4.6136    2.9836    1.6703 H   0  0  0  0  0  0  0  0  0  0  0  0
  1  2  1  0  0  0  0
  1 27  1  0  0  0  0
  2  3  2  0  0  0  0
  2  4  1  0  0  0  0
  4  5  1  0  0  0  0
  4 28  1  0  0  0  0
  4 29  1  0  0  0  0
  5  6  1  0  0  0  0
  5 30  1  0  0  0  0
  5 31  1  0  0  0  0
  6  7  1  1  0  0  0
  6  8  1  0  0  0  0
  6 11  1  0  0  0  0
  8  9  2  0  0  0  0
  8 10  1  0  0  0  0
 10 32  1  0  0  0  0
 11 12  2  0  0  0  0
 12 13  1  0  0  0  0
 12 33  1  0  0  0  0
 13 14  2  0  0  0  0
 13 18  1  0  0  0  0
 14 15  1  0  0  0  0
 14 21  1  0  0  0  0
 15 16  2  0  0  0  0
 15 34  1  0  0  0  0
 16 17  1  0  0  0  0
 17 18  2  0  0  0  0
 17 20  1  0  0  0  0
 18 19  1  0  0  0  0
 19 35  1  0  0  0  0
 20 36  1  0  0  0  0
 20 37  1  0  0  0  0
 20 38  1  0  0  0  0
 21 22  1  0  0  0  0
 21 39  1  0  0  0  0
 21 40  1  0  0  0  0
 22 23  1  0  0  0  0
 23 24  2  0  0  0  0
 23 25  1  0  0  0  0
 23 26  1  0  0  0  0
 25 41  1  0  0  0  0
 26 42  1  0  0  0  0
M  END
$$$$
