PLB
 OpenBabel04121316173D

 38 40  0  0  0  0  0  0  0  0999 V2000
    0.8725   -0.0924   -0.0096 Cl  0  0  0  0  0  0  0  0  0  0  0  0
    2.5869   -0.0642    0.0138 C   0  0  0  0  0  0  0  0  0  0  0  0
    3.2539    1.1624   -0.0336 C   0  0  0  0  0  0  0  0  0  0  0  0
    4.6385    1.2116   -0.0725 C   0  0  0  0  0  0  0  0  0  0  0  0
    5.3221    0.0255   -0.2964 C   0  0  0  0  0  0  0  0  0  0  0  0
    4.6573   -1.2245   -0.1883 C   0  0  0  0  0  0  0  0  0  0  0  0
    3.2892   -1.2599    0.0401 C   0  0  0  0  0  0  0  0  0  0  0  0
    5.3955   -2.7772   -0.4059 Cl  0  0  0  0  0  0  0  0  0  0  0  0
    6.6159    0.1424   -0.9718 C   0  0  0  0  0  0  0  0  0  0  0  0
    6.8528   -0.7146   -1.8302 O   0  0  0  0  0  0  0  0  0  0  0  0
    7.5420    1.0944   -0.6288 N   0  0  0  0  0  0  0  0  0  0  0  0
    8.9170    0.9608   -0.9845 C   0  0  0  0  0  0  0  0  0  0  0  0
    9.6331    2.1781   -1.1322 C   0  0  0  0  0  0  0  0  0  0  0  0
   10.9380    2.2012   -1.6616 C   0  0  0  0  0  0  0  0  0  0  0  0
   11.6096    1.0098   -1.8793 C   0  0  0  0  0  0  0  0  0  0  0  0
   10.9717   -0.1487   -1.4710 C   0  0  0  0  0  0  0  0  0  0  0  0
    9.6146   -0.2512   -1.1836 C   0  0  0  0  0  0  0  0  0  0  0  0
    9.2755   -1.7325   -1.1155 C   0  0  0  0  0  0  0  0  0  0  0  0
    9.9469   -2.6046   -1.6465 O   0  0  0  0  0  0  0  0  0  0  0  0
    8.3408   -2.0643   -0.2196 O   0  0  0  0  0  0  0  0  0  0  0  0
   12.8714    1.0403   -2.4379 O   0  0  0  0  0  0  0  0  0  0  0  0
   13.4900   -0.1617   -2.8187 C   0  0  0  0  0  0  0  0  0  0  0  0
   14.8249   -0.1570   -2.8254 N   0  0  0  0  0  0  0  0  0  0  0  0
   15.4003   -1.3775   -2.8273 C   0  0  0  0  0  0  0  0  0  0  0  0
   14.7121   -2.5565   -2.6584 C   0  0  0  0  0  0  0  0  0  0  0  0
   13.3644   -2.4530   -2.8434 C   0  0  0  0  0  0  0  0  0  0  0  0
   12.7587   -1.2689   -3.0237 N   0  0  0  0  0  0  0  0  0  0  0  0
    2.7005    2.0934   -0.0997 H   0  0  0  0  0  0  0  0  0  0  0  0
    5.1438    2.1692   -0.0781 H   0  0  0  0  0  0  0  0  0  0  0  0
    2.7759   -2.2136    0.1453 H   0  0  0  0  0  0  0  0  0  0  0  0
    7.2152    2.0342   -0.4227 H   0  0  0  0  0  0  0  0  0  0  0  0
    9.1794    3.1360   -0.8809 H   0  0  0  0  0  0  0  0  0  0  0  0
   11.4302    3.1464   -1.8802 H   0  0  0  0  0  0  0  0  0  0  0  0
   11.5291   -1.0692   -1.3739 H   0  0  0  0  0  0  0  0  0  0  0  0
    7.5746   -1.5178   -0.4360 H   0  0  0  0  0  0  0  0  0  0  0  0
   16.4715   -1.3848   -2.9936 H   0  0  0  0  0  0  0  0  0  0  0  0
   15.1964   -3.5008   -2.4603 H   0  0  0  0  0  0  0  0  0  0  0  0
   12.7068   -3.3195   -2.8423 H   0  0  0  0  0  0  0  0  0  0  0  0
  1  2  1  0  0  0  0
  2  3  2  0  0  0  0
  2  7  1  0  0  0  0
  3  4  1  0  0  0  0
  3 28  1  0  0  0  0
  4  5  2  0  0  0  0
  4 29  1  0  0  0  0
  5  6  1  0  0  0  0
  5  9  1  0  0  0  0
  6  7  2  0  0  0  0
  6  8  1  0  0  0  0
  7 30  1  0  0  0  0
  9 10  2  0  0  0  0
  9 11  1  0  0  0  0
 11 12  1  0  0  0  0
 11 31  1  0  0  0  0
 12 13  2  0  0  0  0
 12 17  1  0  0  0  0
 13 14  1  0  0  0  0
 13 32  1  0  0  0  0
 14 15  2  0  0  0  0
 14 33  1  0  0  0  0
 15 16  1  0  0  0  0
 15 21  1  0  0  0  0
 16 17  2  0  0  0  0
 16 34  1  0  0  0  0
 17 18  1  0  0  0  0
 18 19  2  0  0  0  0
 18 20  1  0  0  0  0
 20 35  1  0  0  0  0
 21 22  1  0  0  0  0
 22 23  2  0  0  0  0
 22 27  1  0  0  0  0
 23 24  1  0  0  0  0
 24 25  2  0  0  0  0
 24 36  1  0  0  0  0
 25 26  1  0  0  0  0
 25 37  1  0  0  0  0
 26 27  2  0  0  0  0
 26 38  1  0  0  0  0
M  END
$$$$
