PLL
 OpenBabel04121316173D

  9 10  0  0  0  0  0  0  0  0999 V2000
    0.3340    1.0060   -0.1730 C   0  0  0  0  0  0  0  0  0  0  0  0
    1.0060   -0.3340    0.1730 Pd  0  0  0  0  0  0  0  0  0  0  0  0
   -1.0070    0.3330    0.1730 C   0  0  0  0  0  0  0  0  0  0  0  0
   -0.3330   -1.0050   -0.1730 C   0  0  0  0  0  0  0  0  0  0  0  0
    0.4338    1.3062   -1.1952 H   0  0  0  0  0  0  0  0  0  0  0  0
    0.6393    1.9261    0.2798 H   0  0  0  0  0  0  0  0  0  0  0  0
   -2.0051    0.6634    0.3718 H   0  0  0  0  0  0  0  0  0  0  0  0
   -0.4322   -1.3046   -1.1954 H   0  0  0  0  0  0  0  0  0  0  0  0
   -0.6378   -1.9252    0.2800 H   0  0  0  0  0  0  0  0  0  0  0  0
  1  2  1  0  0  0  0
  1  3  1  0  0  0  0
  1  5  1  0  0  0  0
  1  6  1  0  0  0  0
  2  3  1  0  0  0  0
  2  4  1  0  0  0  0
  3  4  1  0  0  0  0
  3  7  1  0  0  0  0
  4  8  1  0  0  0  0
  4  9  1  0  0  0  0
M  END
$$$$
