PLS
 OpenBabel04121316173D

 39 39  0  0  1  0  0  0  0  0999 V2000
    0.9400    0.0153    0.1540 O   0  0  0  0  0  0  0  0  0  0  0  0
    2.3684    0.0675    0.1202 C   0  0  0  0  0  0  0  0  0  0  0  0
    2.8663   -0.7745   -1.0465 C   0  0  1  0  0  0  0  0  0  0  0  0
    2.4586   -1.7937   -0.9985 H   0  0  0  0  0  0  0  0  0  0  0  0
    2.3696   -0.0873   -2.3316 C   0  0  0  0  0  0  0  0  0  0  0  0
    3.0862    0.4802   -3.1642 O   0  0  0  0  0  0  0  0  0  0  0  0
    1.0388   -0.1798   -2.5341 O   0  0  0  0  0  0  0  0  0  0  0  0
    4.3323   -0.8213   -1.0149 N   0  0  0  0  0  0  0  0  0  0  0  0
    4.8525   -1.6968   -2.0668 C   0  0  0  0  0  0  0  0  0  0  0  0
    6.3486   -1.6541   -2.1754 C   0  0  0  0  0  0  0  0  0  0  0  0
    7.0142   -1.6000   -3.4251 C   0  0  0  0  0  0  0  0  0  0  0  0
    8.4117   -1.5987   -3.3560 C   0  0  0  0  0  0  0  0  0  0  0  0
    9.1559   -1.6276   -2.2174 N   0  0  0  0  0  0  0  0  0  0  0  0
    8.4949   -1.6791   -1.0396 C   0  0  0  0  0  0  0  0  0  0  0  0
    7.1070   -1.7177   -0.9807 C   0  0  0  0  0  0  0  0  0  0  0  0
    6.4380   -1.8302    0.2195 O   0  0  0  0  0  0  0  0  0  0  0  0
    9.3192   -1.7007    0.2137 C   0  0  0  0  0  0  0  0  0  0  0  0
    6.3975   -1.5544   -4.8363 C   0  0  0  0  0  0  0  0  0  0  0  0
    5.0659   -1.1316   -4.9076 O   0  0  0  0  0  0  0  0  0  0  0  0
    3.8459   -1.6947   -5.7547 P   0  0  0  0  0  0  0  0  0  0  0  0
    3.3215   -3.0508   -5.4368 O   0  0  0  0  0  0  0  0  0  0  0  0
    2.8239   -0.5047   -5.4787 O   0  0  0  0  0  0  0  0  0  0  0  0
    4.1933   -1.4678   -7.2955 O   0  0  0  0  0  0  0  0  0  0  0  0
    0.6700    0.6311    0.8615 H   0  0  0  0  0  0  0  0  0  0  0  0
    2.7429   -0.3214    1.0732 H   0  0  0  0  0  0  0  0  0  0  0  0
    2.6876    1.1106    0.0113 H   0  0  0  0  0  0  0  0  0  0  0  0
    0.5721   -0.4765   -1.7204 H   0  0  0  0  0  0  0  0  0  0  0  0
    4.6882   -1.1831   -0.1267 H   0  0  0  0  0  0  0  0  0  0  0  0
    4.4320   -1.3418   -2.9843 H   0  0  0  0  0  0  0  0  0  0  0  0
    4.5252   -2.7336   -1.9439 H   0  0  0  0  0  0  0  0  0  0  0  0
    9.0106   -1.5680   -4.2644 H   0  0  0  0  0  0  0  0  0  0  0  0
    7.0526   -1.7306    0.9639 H   0  0  0  0  0  0  0  0  0  0  0  0
   10.3884   -1.6854   -0.0094 H   0  0  0  0  0  0  0  0  0  0  0  0
    9.1010   -2.6072    0.7889 H   0  0  0  0  0  0  0  0  0  0  0  0
    9.0858   -0.8253    0.8309 H   0  0  0  0  0  0  0  0  0  0  0  0
    6.5804   -2.4944   -5.3668 H   0  0  0  0  0  0  0  0  0  0  0  0
    6.9295   -0.7535   -5.3620 H   0  0  0  0  0  0  0  0  0  0  0  0
    3.1388   -0.0085   -4.6769 H   0  0  0  0  0  0  0  0  0  0  0  0
    3.5564   -1.9787   -7.8368 H   0  0  0  0  0  0  0  0  0  0  0  0
  1  2  1  0  0  0  0
  1 24  1  0  0  0  0
  2  3  1  0  0  0  0
  2 25  1  0  0  0  0
  2 26  1  0  0  0  0
  3  4  1  1  0  0  0
  3  5  1  0  0  0  0
  3  8  1  0  0  0  0
  5  6  2  0  0  0  0
  5  7  1  0  0  0  0
  7 27  1  0  0  0  0
  8  9  1  0  0  0  0
  8 28  1  0  0  0  0
  9 10  1  0  0  0  0
  9 29  1  0  0  0  0
  9 30  1  0  0  0  0
 10 11  2  0  0  0  0
 10 15  1  0  0  0  0
 11 12  1  0  0  0  0
 11 18  1  0  0  0  0
 12 13  2  0  0  0  0
 12 31  1  0  0  0  0
 13 14  1  0  0  0  0
 14 15  2  0  0  0  0
 14 17  1  0  0  0  0
 15 16  1  0  0  0  0
 16 32  1  0  0  0  0
 17 33  1  0  0  0  0
 17 34  1  0  0  0  0
 17 35  1  0  0  0  0
 18 19  1  0  0  0  0
 18 36  1  0  0  0  0
 18 37  1  0  0  0  0
 19 20  1  0  0  0  0
 20 21  2  0  0  0  0
 20 22  1  0  0  0  0
 20 23  1  0  0  0  0
 22 38  1  0  0  0  0
 23 39  1  0  0  0  0
M  END
$$$$
