PLT
 OpenBabel04121316173D

 50 52  0  0  1  0  0  0  0  0999 V2000
    2.3476    2.1318    0.4055 O   0  0  0  0  0  0  0  0  0  0  0  0
    2.8213    1.3828    1.4148 C   0  0  0  0  0  0  0  0  0  0  0  0
    3.1745    1.8839    2.5129 O   0  0  0  0  0  0  0  0  0  0  0  0
    3.0766   -0.0157    1.1327 C   0  0  2  0  0  0  0  0  0  0  0  0
    2.5039   -0.2989    0.2428 H   0  0  0  0  0  0  0  0  0  0  0  0
    2.5802   -0.7083    2.3964 C   0  0  0  0  0  0  0  0  0  0  0  0
    1.1069   -0.4526    2.6924 C   0  0  0  0  0  0  0  0  0  0  0  0
    0.2323   -1.5076    2.8401 C   0  0  0  0  0  0  0  0  0  0  0  0
   -1.0154   -1.0118    3.0689 N   0  0  0  0  0  0  0  0  0  0  0  0
   -1.8373   -1.5784    3.2035 H   0  0  0  0  0  0  0  0  0  0  0  0
   -1.0090    0.3625    3.0825 C   0  0  0  0  0  0  0  0  0  0  0  0
    0.3088    0.7744    2.8819 C   0  0  0  0  0  0  0  0  0  0  0  0
    0.4851    2.1931    2.8952 C   0  0  0  0  0  0  0  0  0  0  0  0
   -0.5488    3.1142    3.0283 C   0  0  0  0  0  0  0  0  0  0  0  0
   -1.8233    2.6512    3.2243 C   0  0  0  0  0  0  0  0  0  0  0  0
   -2.0707    1.2733    3.2637 C   0  0  0  0  0  0  0  0  0  0  0  0
    4.5248   -0.1124    0.8666 N   0  0  0  0  0  0  0  0  0  0  0  0
    5.2909    0.2903    1.8266 C   0  0  0  0  0  0  0  0  0  0  0  0
    6.7311    0.3624    1.6525 C   0  0  0  0  0  0  0  0  0  0  0  0
    7.4265    1.5696    1.5883 C   0  0  0  0  0  0  0  0  0  0  0  0
    8.7858    1.4842    1.3397 C   0  0  0  0  0  0  0  0  0  0  0  0
    9.4427    0.3149    1.2009 N   0  0  0  0  0  0  0  0  0  0  0  0
    8.7223   -0.8323    1.3178 C   0  0  0  0  0  0  0  0  0  0  0  0
    7.3637   -0.8535    1.5563 C   0  0  0  0  0  0  0  0  0  0  0  0
    6.6204   -1.9825    1.7414 O   0  0  0  0  0  0  0  0  0  0  0  0
    9.4633   -2.1160    1.1813 C   0  0  0  0  0  0  0  0  0  0  0  0
    6.8010    2.9136    1.6924 C   0  0  0  0  0  0  0  0  0  0  0  0
    5.4017    2.8049    1.9094 O   0  0  0  0  0  0  0  0  0  0  0  0
    4.6428    4.3530    2.0522 P   0  0  0  0  0  0  0  0  0  0  0  0
    5.4475    4.9559    0.8998 O   0  0  0  0  0  0  0  0  0  0  0  0
    3.2320    3.9844    1.4459 O   0  0  0  0  0  0  0  0  0  0  0  0
    3.8840    5.9012    2.1951 O   0  0  0  0  0  0  0  0  0  0  0  0
    2.7815    1.9793   -0.4592 H   0  0  0  0  0  0  0  0  0  0  0  0
    3.1468   -0.4197    3.2920 H   0  0  0  0  0  0  0  0  0  0  0  0
    2.7797   -1.7783    2.2675 H   0  0  0  0  0  0  0  0  0  0  0  0
    0.4190   -2.5727    2.7930 H   0  0  0  0  0  0  0  0  0  0  0  0
    1.4192    2.7179    2.7815 H   0  0  0  0  0  0  0  0  0  0  0  0
   -0.3120    4.1766    2.9730 H   0  0  0  0  0  0  0  0  0  0  0  0
   -2.6224    3.3734    3.3522 H   0  0  0  0  0  0  0  0  0  0  0  0
   -3.0813    0.9221    3.4252 H   0  0  0  0  0  0  0  0  0  0  0  0
    4.9607    0.6232    2.8292 H   0  0  0  0  0  0  0  0  0  0  0  0
    9.3999    2.3763    1.2210 H   0  0  0  0  0  0  0  0  0  0  0  0
    7.1274   -2.7753    1.5251 H   0  0  0  0  0  0  0  0  0  0  0  0
   10.5226   -1.9339    0.9989 H   0  0  0  0  0  0  0  0  0  0  0  0
    9.0487   -2.6820    0.3414 H   0  0  0  0  0  0  0  0  0  0  0  0
    9.3519   -2.6928    2.1040 H   0  0  0  0  0  0  0  0  0  0  0  0
    7.0012    3.4212    0.7418 H   0  0  0  0  0  0  0  0  0  0  0  0
    7.2423    3.4929    2.5127 H   0  0  0  0  0  0  0  0  0  0  0  0
    3.3580    3.2412    0.8613 H   0  0  0  0  0  0  0  0  0  0  0  0
    4.5749    6.5672    2.0348 H   0  0  0  0  0  0  0  0  0  0  0  0
  1  2  1  0  0  0  0
  1 33  1  0  0  0  0
  2  3  2  0  0  0  0
  4  6  1  0  0  0  0
  4 17  1  0  0  0  0
  4  5  1  6  0  0  0
  4  2  1  0  0  0  0
  6  7  1  0  0  0  0
  6 34  1  0  0  0  0
  6 35  1  0  0  0  0
  7  8  2  0  0  0  0
  7 12  1  0  0  0  0
  8  9  1  0  0  0  0
  8 36  1  0  0  0  0
  9 10  1  0  0  0  0
  9 11  1  0  0  0  0
 11 12  2  0  0  0  0
 11 16  1  0  0  0  0
 12 13  1  0  0  0  0
 13 14  2  0  0  0  0
 13 37  1  0  0  0  0
 14 15  1  0  0  0  0
 14 38  1  0  0  0  0
 15 16  2  0  0  0  0
 15 39  1  0  0  0  0
 16 40  1  0  0  0  0
 17 18  2  0  0  0  0
 18 19  1  0  0  0  0
 18 41  1  0  0  0  0
 19 20  2  0  0  0  0
 19 24  1  0  0  0  0
 20 21  1  0  0  0  0
 20 27  1  0  0  0  0
 21 22  2  0  0  0  0
 21 42  1  0  0  0  0
 22 23  1  0  0  0  0
 23 24  2  0  0  0  0
 23 26  1  0  0  0  0
 24 25  1  0  0  0  0
 25 43  1  0  0  0  0
 26 44  1  0  0  0  0
 26 45  1  0  0  0  0
 26 46  1  0  0  0  0
 27 28  1  0  0  0  0
 27 47  1  0  0  0  0
 27 48  1  0  0  0  0
 28 29  1  0  0  0  0
 29 30  2  0  0  0  0
 29 31  1  0  0  0  0
 29 32  1  0  0  0  0
 31 49  1  0  0  0  0
 32 50  1  0  0  0  0
M  END
$$$$
