PMB
 OpenBabel04121316173D

 16 16  0  0  0  0  0  0  0  0999 V2000
    1.0972    0.0015    0.0233 Hg  0  0  0  0  0  0  0  0  0  0  0  0
    3.1392    0.0015    0.0233 C   0  0  0  0  0  0  0  0  0  0  0  0
    3.8630    1.2241    0.0991 C   0  0  0  0  0  0  0  0  0  0  0  0
    5.2353    1.2321   -0.1997 C   0  0  0  0  0  0  0  0  0  0  0  0
    5.8915    0.1116   -0.2744 C   0  0  0  0  0  0  0  0  0  0  0  0
    5.2334   -1.1043   -0.0466 C   0  0  0  0  0  0  0  0  0  0  0  0
    3.8179   -1.1449   -0.0479 C   0  0  0  0  0  0  0  0  0  0  0  0
    7.6199    0.1228   -0.6648 S   0  0  0  0  0  0  0  0  0  0  0  0
    7.8281    0.7647   -2.0336 O   0  0  0  0  0  0  0  0  0  0  0  0
    8.3751    0.9232    0.3926 O   0  0  0  0  0  0  0  0  0  0  0  0
    8.2084   -1.4825   -0.6925 O   0  0  0  0  0  0  0  0  0  0  0  0
    3.3841    2.0968    0.3711 H   0  0  0  0  0  0  0  0  0  0  0  0
    5.7231    2.1272   -0.3600 H   0  0  0  0  0  0  0  0  0  0  0  0
    5.7772   -1.9653    0.1211 H   0  0  0  0  0  0  0  0  0  0  0  0
    3.3193   -2.0467   -0.1029 H   0  0  0  0  0  0  0  0  0  0  0  0
    7.7284   -1.9913   -1.3646 H   0  0  0  0  0  0  0  0  0  0  0  0
  1  2  1  0  0  0  0
  2  3  2  0  0  0  0
  2  7  1  0  0  0  0
  3  4  1  0  0  0  0
  3 12  1  0  0  0  0
  4  5  2  0  0  0  0
  4 13  1  0  0  0  0
  5  6  1  0  0  0  0
  5  8  1  0  0  0  0
  6  7  2  0  0  0  0
  6 14  1  0  0  0  0
  7 15  1  0  0  0  0
  8  9  2  0  0  0  0
  8 10  2  0  0  0  0
  8 11  1  0  0  0  0
 11 16  1  0  0  0  0
M  END
$$$$
