PMH
 OpenBabel04121316173D

 36 37  0  0  0  0  0  0  0  0999 V2000
    0.9133    0.0606   -0.0757 C   0  0  0  0  0  0  0  0  0  0  0  0
    2.4081    0.0264   -0.0751 C   0  0  0  0  0  0  0  0  0  0  0  0
    3.0684    1.2096   -0.0848 N   0  0  0  0  0  0  0  0  0  0  0  0
    4.4042    1.1403   -0.0719 C   0  0  0  0  0  0  0  0  0  0  0  0
    5.1062   -0.0633   -0.0677 C   0  0  0  0  0  0  0  0  0  0  0  0
    4.4053   -1.2971   -0.0843 C   0  0  0  0  0  0  0  0  0  0  0  0
    3.0149   -1.2326   -0.0664 C   0  0  0  0  0  0  0  0  0  0  0  0
    2.1414   -2.2814    0.0769 O   0  0  0  0  0  0  0  0  0  0  0  0
    5.2354   -2.5511   -0.0820 C   0  0  0  0  0  0  0  0  0  0  0  0
    4.4935   -3.7523   -0.1745 N   0  0  0  0  0  0  0  0  0  0  0  0
    5.0566   -4.9511   -0.1125 C   0  0  0  0  0  0  0  0  0  0  0  0
    6.3673   -5.3811   -0.0598 C   0  0  0  0  0  0  0  0  0  0  0  0
    6.3666   -6.7473   -0.0312 O   0  0  0  0  0  0  0  0  0  0  0  0
    5.0377   -7.2235   -0.0559 N   0  0  0  0  0  0  0  0  0  0  0  0
    4.3133   -6.1214   -0.0871 C   0  0  0  0  0  0  0  0  0  0  0  0
    2.9735   -6.1792   -0.1170 O   0  0  0  0  0  0  0  0  0  0  0  0
    6.5950    0.0459   -0.0603 C   0  0  0  0  0  0  0  0  0  0  0  0
    7.2060   -1.2449   -0.0612 O   0  0  0  0  0  0  0  0  0  0  0  0
    8.9346   -1.1747   -0.0536 P   0  0  0  0  0  0  0  0  0  0  0  0
    9.0025    0.3235   -0.3335 O   0  0  0  0  0  0  0  0  0  0  0  0
    8.9281   -1.4069    1.5526 O   0  0  0  0  0  0  0  0  0  0  0  0
   10.6631   -1.1045   -0.0459 O   0  0  0  0  0  0  0  0  0  0  0  0
    0.5396    1.0830   -0.0775 H   0  0  0  0  0  0  0  0  0  0  0  0
    0.5458   -0.4568    0.8164 H   0  0  0  0  0  0  0  0  0  0  0  0
    0.5504   -0.4597   -0.9689 H   0  0  0  0  0  0  0  0  0  0  0  0
    4.9205    2.1004   -0.0717 H   0  0  0  0  0  0  0  0  0  0  0  0
    2.3093   -3.0725   -0.4575 H   0  0  0  0  0  0  0  0  0  0  0  0
    5.8222   -2.5887    0.8495 H   0  0  0  0  0  0  0  0  0  0  0  0
    5.8710   -2.5494   -0.9798 H   0  0  0  0  0  0  0  0  0  0  0  0
    3.5987   -3.6934    0.2924 H   0  0  0  0  0  0  0  0  0  0  0  0
    7.3258   -4.8954   -0.0310 H   0  0  0  0  0  0  0  0  0  0  0  0
    2.7286   -7.1152   -0.1348 H   0  0  0  0  0  0  0  0  0  0  0  0
    6.9211    0.5931    0.8347 H   0  0  0  0  0  0  0  0  0  0  0  0
    6.8834    0.5837   -0.9726 H   0  0  0  0  0  0  0  0  0  0  0  0
    8.0427   -1.6342    1.8843 H   0  0  0  0  0  0  0  0  0  0  0  0
   10.9187   -0.4654   -0.7374 H   0  0  0  0  0  0  0  0  0  0  0  0
  1  2  1  0  0  0  0
  1 23  1  0  0  0  0
  1 24  1  0  0  0  0
  1 25  1  0  0  0  0
  2  3  2  0  0  0  0
  2  7  1  0  0  0  0
  3  4  1  0  0  0  0
  4  5  2  0  0  0  0
  4 26  1  0  0  0  0
  5  6  1  0  0  0  0
  5 17  1  0  0  0  0
  6  7  2  0  0  0  0
  6  9  1  0  0  0  0
  7  8  1  0  0  0  0
  8 27  1  0  0  0  0
  9 10  1  0  0  0  0
  9 28  1  0  0  0  0
  9 29  1  0  0  0  0
 10 11  1  0  0  0  0
 10 30  1  0  0  0  0
 11 12  2  0  0  0  0
 11 15  1  0  0  0  0
 12 13  1  0  0  0  0
 12 31  1  0  0  0  0
 13 14  1  0  0  0  0
 14 15  2  0  0  0  0
 15 16  1  0  0  0  0
 16 32  1  0  0  0  0
 17 18  1  0  0  0  0
 17 33  1  0  0  0  0
 17 34  1  0  0  0  0
 18 19  1  0  0  0  0
 19 20  2  0  0  0  0
 19 21  1  0  0  0  0
 19 22  1  0  0  0  0
 21 35  1  0  0  0  0
 22 36  1  0  0  0  0
M  END
$$$$
