PMT
 OpenBabel04121316173D

 69 70  0  0  1  0  0  0  0  0999 V2000
    5.2703   -2.2509   -2.5705 O   0  0  0  0  0  0  0  0  0  0  0  0
    5.3596   -1.0310   -2.4197 C   0  0  0  0  0  0  0  0  0  0  0  0
    4.5689   -0.3993   -1.5864 O   0  0  0  0  0  0  0  0  0  0  0  0
    4.5620    0.8730   -0.6286 P   0  0  2  0  0  0  0  0  0  0  0  0
    3.0177    0.8730   -0.6286 O   0  0  0  0  0  0  0  0  0  0  0  0
    4.6131    2.3210   -1.2119 O   0  0  0  0  0  0  0  0  0  0  0  0
    3.3348    2.7829   -1.4742 C   0  0  0  0  0  0  0  0  0  0  0  0
    3.5964    4.1795   -1.8283 C   0  0  1  0  0  0  0  0  0  0  0  0
    3.8922    3.5067   -2.6644 H   0  0  0  0  0  0  0  0  0  0  0  0
    2.4528    5.0874   -1.8799 O   0  0  0  0  0  0  0  0  0  0  0  0
    2.7557    6.3651   -2.6021 C   0  0  2  0  0  0  0  0  0  0  0  0
    2.7231    6.3752   -3.6978 H   0  0  0  0  0  0  0  0  0  0  0  0
    4.2503    6.5668   -2.4968 C   0  0  1  0  0  0  0  0  0  0  0  0
    4.6631    7.3649   -1.9208 H   0  0  0  0  0  0  0  0  0  0  0  0
    4.6972    5.1608   -1.7783 C   0  0  2  0  0  0  0  0  0  0  0  0
    4.8662    5.2136   -0.7255 H   0  0  0  0  0  0  0  0  0  0  0  0
    5.8392    4.6344   -2.2730 O   0  0  0  0  0  0  0  0  0  0  0  0
    4.6449    6.9294   -3.8412 O   0  0  0  0  0  0  0  0  0  0  0  0
    1.6721    7.2507   -2.6412 N   0  0  0  0  0  0  0  0  0  0  0  0
    1.7349    8.1975   -1.6619 C   0  0  0  0  0  0  0  0  0  0  0  0
    0.9413    9.1807   -1.6952 C   0  0  0  0  0  0  0  0  0  0  0  0
   -0.2676    9.0168   -2.5367 C   0  0  0  0  0  0  0  0  0  0  0  0
   -0.3571    8.1458   -3.4982 N   0  0  0  0  0  0  0  0  0  0  0  0
    0.7539    7.4263   -3.7405 C   0  0  0  0  0  0  0  0  0  0  0  0
    0.9251    6.9912   -4.9123 O   0  0  0  0  0  0  0  0  0  0  0  0
   -1.3502    9.7719   -2.3011 N   0  0  0  0  0  0  0  0  0  0  0  0
    6.2920    0.8730   -0.6286 O   0  0  0  0  0  0  0  0  0  0  0  0
    6.2576   -0.2158   -3.2855 C   0  0  0  0  0  0  0  0  0  0  0  0
    6.2061    1.2782   -3.1654 C   0  0  0  0  0  0  0  0  0  0  0  0
    7.4564    1.9931   -3.2471 N   0  0  0  0  0  0  0  0  0  0  0  0
    7.6374    3.1816   -2.5369 C   0  0  0  0  0  0  0  0  0  0  0  0
    7.5643    3.2586   -1.3008 O   0  0  0  0  0  0  0  0  0  0  0  0
    7.9025    4.4452   -3.5277 C   0  0  1  0  0  0  0  0  0  0  0  0
    8.9861    4.4226   -3.6783 H   0  0  0  0  0  0  0  0  0  0  0  0
    7.0735    4.4665   -4.9782 C   0  0  0  0  0  0  0  0  0  0  0  0
    5.5078    4.7513   -5.0350 C   0  0  0  0  0  0  0  0  0  0  0  0
    4.6084    4.0632   -4.1010 O   0  0  0  0  0  0  0  0  0  0  0  0
    2.9327    4.4926   -4.0738 P   0  0  0  0  0  0  0  0  0  0  0  0
    2.7804    4.1162   -5.5498 O   0  0  0  0  0  0  0  0  0  0  0  0
    2.0846    3.2510   -3.4043 O   0  0  0  0  0  0  0  0  0  0  0  0
    1.2571    4.9220   -4.0466 O   0  0  0  0  0  0  0  0  0  0  0  0
    7.7322    5.6534   -5.7655 C   0  0  0  0  0  0  0  0  0  0  0  0
    7.1526    3.2001   -5.8026 C   0  0  0  0  0  0  0  0  0  0  0  0
    7.7098    5.7664   -2.9238 O   0  0  0  0  0  0  0  0  0  0  0  0
    2.5430    2.8054   -0.7336 H   0  0  0  0  0  0  0  0  0  0  0  0
    2.9820    2.0101   -2.2766 H   0  0  0  0  0  0  0  0  0  0  0  0
    6.0234    5.1637   -3.0616 H   0  0  0  0  0  0  0  0  0  0  0  0
    4.4532    7.8458   -4.1366 H   0  0  0  0  0  0  0  0  0  0  0  0
    2.5948    8.0520   -0.9873 H   0  0  0  0  0  0  0  0  0  0  0  0
    1.0648   10.0428   -1.0433 H   0  0  0  0  0  0  0  0  0  0  0  0
   -1.4000   10.3178   -1.4537 H   0  0  0  0  0  0  0  0  0  0  0  0
   -2.2102    9.4521   -2.7301 H   0  0  0  0  0  0  0  0  0  0  0  0
    6.6227    1.6966   -0.2009 H   0  0  0  0  0  0  0  0  0  0  0  0
    5.8979   -0.4356   -4.2925 H   0  0  0  0  0  0  0  0  0  0  0  0
    7.2694   -0.5880   -3.1322 H   0  0  0  0  0  0  0  0  0  0  0  0
    6.0216    1.6162   -2.2196 H   0  0  0  0  0  0  0  0  0  0  0  0
    5.2963    1.6836   -3.6249 H   0  0  0  0  0  0  0  0  0  0  0  0
    7.8128    2.0030   -4.1672 H   0  0  0  0  0  0  0  0  0  0  0  0
    5.0638    4.8075   -6.0405 H   0  0  0  0  0  0  0  0  0  0  0  0
    5.6018    5.7786   -4.8084 H   0  0  0  0  0  0  0  0  0  0  0  0
    1.5772    3.7379   -2.6745 H   0  0  0  0  0  0  0  0  0  0  0  0
    0.9976    5.0923   -4.9828 H   0  0  0  0  0  0  0  0  0  0  0  0
    7.5590    6.6188   -5.2644 H   0  0  0  0  0  0  0  0  0  0  0  0
    7.3210    5.7599   -6.7751 H   0  0  0  0  0  0  0  0  0  0  0  0
    8.8148    5.5214   -5.8370 H   0  0  0  0  0  0  0  0  0  0  0  0
    6.4396    2.4722   -5.4023 H   0  0  0  0  0  0  0  0  0  0  0  0
    8.1679    2.8101   -5.8151 H   0  0  0  0  0  0  0  0  0  0  0  0
    6.8089    3.3520   -6.8276 H   0  0  0  0  0  0  0  0  0  0  0  0
    7.6056    5.6296   -1.9543 H   0  0  0  0  0  0  0  0  0  0  0  0
  1  2  2  0  0  0  0
  2  3  1  0  0  0  0
  2 28  1  0  0  0  0
  4  6  1  6  0  0  0
  4 27  1  0  0  0  0
  4  5  2  0  0  0  0
  4  3  1  0  0  0  0
  6  7  1  0  0  0  0
  7  8  1  0  0  0  0
  7 45  1  0  0  0  0
  7 46  1  0  0  0  0
  8  9  1  6  0  0  0
  8 10  1  0  0  0  0
  8 15  1  0  0  0  0
 10 11  1  0  0  0  0
 11 13  1  0  0  0  0
 11 19  1  0  0  0  0
 11 12  1  6  0  0  0
 13 14  1  1  0  0  0
 13 15  1  0  0  0  0
 13 18  1  0  0  0  0
 15 16  1  1  0  0  0
 15 17  1  0  0  0  0
 17 47  1  0  0  0  0
 18 48  1  0  0  0  0
 19 20  1  0  0  0  0
 19 24  1  0  0  0  0
 20 21  2  0  0  0  0
 20 49  1  0  0  0  0
 21 22  1  0  0  0  0
 21 50  1  0  0  0  0
 22 23  2  0  0  0  0
 22 26  1  0  0  0  0
 23 24  1  0  0  0  0
 24 25  2  0  0  0  0
 26 51  1  0  0  0  0
 26 52  1  0  0  0  0
 27 53  1  0  0  0  0
 28 29  1  0  0  0  0
 28 54  1  0  0  0  0
 28 55  1  0  0  0  0
 29 30  1  0  0  0  0
 29 56  1  0  0  0  0
 29 57  1  0  0  0  0
 30 31  1  0  0  0  0
 30 58  1  0  0  0  0
 31 32  2  0  0  0  0
 31 33  1  0  0  0  0
 33 34  1  6  0  0  0
 33 35  1  0  0  0  0
 33 44  1  0  0  0  0
 35 36  1  0  0  0  0
 35 42  1  0  0  0  0
 35 43  1  0  0  0  0
 36 37  1  0  0  0  0
 36 59  1  0  0  0  0
 36 60  1  0  0  0  0
 37 38  1  0  0  0  0
 38 39  2  0  0  0  0
 38 40  1  0  0  0  0
 38 41  1  0  0  0  0
 40 61  1  0  0  0  0
 41 62  1  0  0  0  0
 42 63  1  0  0  0  0
 42 64  1  0  0  0  0
 42 65  1  0  0  0  0
 43 66  1  0  0  0  0
 43 67  1  0  0  0  0
 43 68  1  0  0  0  0
 44 69  1  0  0  0  0
M  END
$$$$
