PNJ
 OpenBabel04121316173D

 38 39  0  0  1  0  0  0  0  0999 V2000
    0.6772   -0.0273    0.0876 O   0  0  0  0  0  0  0  0  0  0  0  0
    2.0960   -0.0454    0.0139 C   0  0  0  0  0  0  0  0  0  0  0  0
    2.7920    0.2095    1.3734 C   0  0  1  0  0  0  0  0  0  0  0  0
    2.0451    0.1201    2.1709 H   0  0  0  0  0  0  0  0  0  0  0  0
    3.7717   -0.8120    1.6766 O   0  0  0  0  0  0  0  0  0  0  0  0
    4.9471   -0.7752    0.8632 C   0  0  1  0  0  0  0  0  0  0  0  0
    5.5980   -1.5598    1.2464 H   0  0  0  0  0  0  0  0  0  0  0  0
    4.5890   -0.9236   -0.5054 O   0  0  0  0  0  0  0  0  0  0  0  0
    4.9706   -2.0097   -1.2072 C   0  0  0  0  0  0  0  0  0  0  0  0
    5.8682   -2.9686   -0.7737 C   0  0  0  0  0  0  0  0  0  0  0  0
    6.3744   -3.8792   -1.6840 C   0  0  0  0  0  0  0  0  0  0  0  0
    5.8745   -3.9249   -2.9910 C   0  0  0  0  0  0  0  0  0  0  0  0
    4.8305   -3.0759   -3.3685 C   0  0  0  0  0  0  0  0  0  0  0  0
    4.4253   -2.0773   -2.4914 C   0  0  0  0  0  0  0  0  0  0  0  0
    6.5104   -4.8466   -3.9199 N   0  0  0  0  0  0  0  0  0  0  0  0
    7.4650   -5.4855   -3.5394 O   0  0  0  0  0  0  0  0  0  0  0  0
    6.1116   -4.9751   -5.2397 O   0  0  0  0  0  0  0  0  0  0  0  0
    5.7160    0.5621    0.9875 C   0  0  1  0  0  0  0  0  0  0  0  0
    6.5436    0.5546    0.2652 H   0  0  0  0  0  0  0  0  0  0  0  0
    4.7403    1.7018    0.6112 C   0  0  2  0  0  0  0  0  0  0  0  0
    5.2352    2.6607    0.7968 H   0  0  0  0  0  0  0  0  0  0  0  0
    3.4496    1.6091    1.4621 C   0  0  2  0  0  0  0  0  0  0  0  0
    2.7287    2.3716    1.1541 H   0  0  0  0  0  0  0  0  0  0  0  0
    3.7679    1.8623    2.8457 O   0  0  0  0  0  0  0  0  0  0  0  0
    4.4489    1.7074   -0.7942 O   0  0  0  0  0  0  0  0  0  0  0  0
    6.2809    0.7454    2.3419 N   0  0  0  0  0  0  0  0  0  0  0  0
    0.3777   -0.1741   -0.8294 H   0  0  0  0  0  0  0  0  0  0  0  0
    2.3469    0.7266   -0.7129 H   0  0  0  0  0  0  0  0  0  0  0  0
    2.3528   -1.0238   -0.3951 H   0  0  0  0  0  0  0  0  0  0  0  0
    6.2420   -3.0277    0.2395 H   0  0  0  0  0  0  0  0  0  0  0  0
    7.1792   -4.5351   -1.3597 H   0  0  0  0  0  0  0  0  0  0  0  0
    4.3269   -3.1243   -4.3271 H   0  0  0  0  0  0  0  0  0  0  0  0
    3.6908   -1.3412   -2.8169 H   0  0  0  0  0  0  0  0  0  0  0  0
    5.3934   -4.3444   -5.3203 H   0  0  0  0  0  0  0  0  0  0  0  0
    4.3194    2.6659    2.8788 H   0  0  0  0  0  0  0  0  0  0  0  0
    4.3678    0.7804   -1.0952 H   0  0  0  0  0  0  0  0  0  0  0  0
    6.8319   -0.0758    2.5948 H   0  0  0  0  0  0  0  0  0  0  0  0
    5.4828    0.7229    2.9954 H   0  0  0  0  0  0  0  0  0  0  0  0
  1  2  1  0  0  0  0
  1 27  1  0  0  0  0
  2  3  1  0  0  0  0
  2 28  1  0  0  0  0
  2 29  1  0  0  0  0
  3  4  1  1  0  0  0
  3  5  1  0  0  0  0
  3 22  1  0  0  0  0
  5  6  1  0  0  0  0
  6 18  1  0  0  0  0
  6  8  1  0  0  0  0
  6  7  1  1  0  0  0
  8  9  1  0  0  0  0
  9 10  2  0  0  0  0
  9 14  1  0  0  0  0
 10 11  1  0  0  0  0
 10 30  1  0  0  0  0
 11 12  2  0  0  0  0
 11 31  1  0  0  0  0
 12 13  1  0  0  0  0
 12 15  1  0  0  0  0
 13 14  2  0  0  0  0
 13 32  1  0  0  0  0
 14 33  1  0  0  0  0
 15 16  2  0  0  0  0
 15 17  1  0  0  0  0
 17 34  1  0  0  0  0
 18 19  1  6  0  0  0
 18 20  1  0  0  0  0
 18 26  1  0  0  0  0
 20 22  1  0  0  0  0
 20 25  1  0  0  0  0
 20 21  1  1  0  0  0
 22 23  1  6  0  0  0
 22 24  1  0  0  0  0
 24 35  1  0  0  0  0
 25 36  1  0  0  0  0
 26 37  1  0  0  0  0
 26 38  1  0  0  0  0
M  END
$$$$
