PNM
 OpenBabel04121316173D

 43 44  0  0  1  0  0  0  0  0999 V2000
   -0.4971    2.3151   -0.5516 O   0  0  0  0  0  0  0  0  0  0  0  0
   -0.0565    2.3574    0.5917 C   0  0  0  0  0  0  0  0  0  0  0  0
    1.3519    1.9720    1.0852 C   0  0  2  0  0  0  0  0  0  0  0  0
    1.4701    2.4880    2.0466 H   0  0  0  0  0  0  0  0  0  0  0  0
    2.5486    2.3466    0.1516 C   0  0  2  0  0  0  0  0  0  0  0  0
    2.9945    1.4437   -0.2771 H   0  0  0  0  0  0  0  0  0  0  0  0
    3.6680    2.9973    0.8785 N   0  0  0  0  0  0  0  0  0  0  0  0
    3.3437    4.4595    0.9305 C   0  0  2  0  0  0  0  0  0  0  0  0
    2.6599    4.5790    1.7848 H   0  0  0  0  0  0  0  0  0  0  0  0
    2.6841    4.9350   -0.3863 C   0  0  0  0  0  0  0  0  0  0  0  0
    2.1947    3.4195   -1.2416 S   0  0  0  0  0  0  0  0  0  0  0  0
    3.6145    5.5856   -1.4026 C   0  0  0  0  0  0  0  0  0  0  0  0
    1.4467    5.7940   -0.1202 C   0  0  0  0  0  0  0  0  0  0  0  0
    4.5676    5.3142    1.2757 C   0  0  0  0  0  0  0  0  0  0  0  0
    4.5043    6.3448    1.9446 O   0  0  0  0  0  0  0  0  0  0  0  0
    5.7261    4.9182    0.7047 O   0  0  0  0  0  0  0  0  0  0  0  0
    1.3308    0.5365    1.4024 N   0  0  0  0  0  0  0  0  0  0  0  0
    1.2658   -0.3311    0.3340 C   0  0  0  0  0  0  0  0  0  0  0  0
    1.1314    0.1065   -0.8058 O   0  0  0  0  0  0  0  0  0  0  0  0
    1.4110   -1.8132    0.6330 C   0  0  0  0  0  0  0  0  0  0  0  0
    1.2828   -2.6040   -0.6526 C   0  0  0  0  0  0  0  0  0  0  0  0
    2.1293   -2.2989   -1.7350 C   0  0  0  0  0  0  0  0  0  0  0  0
    1.7995   -2.7096   -3.0217 C   0  0  0  0  0  0  0  0  0  0  0  0
    0.7277   -3.5737   -3.2127 C   0  0  0  0  0  0  0  0  0  0  0  0
   -0.0129   -4.0208   -2.1178 C   0  0  0  0  0  0  0  0  0  0  0  0
    0.2235   -3.4929   -0.8482 C   0  0  0  0  0  0  0  0  0  0  0  0
   -0.7554    2.6107    1.4017 H   0  0  0  0  0  0  0  0  0  0  0  0
    4.4768    2.8111    0.2968 H   0  0  0  0  0  0  0  0  0  0  0  0
    4.4711    4.9404   -1.6345 H   0  0  0  0  0  0  0  0  0  0  0  0
    3.9951    6.5398   -1.0326 H   0  0  0  0  0  0  0  0  0  0  0  0
    3.0921    5.7867   -2.3459 H   0  0  0  0  0  0  0  0  0  0  0  0
    0.7482    5.3163    0.5790 H   0  0  0  0  0  0  0  0  0  0  0  0
    0.8949    6.0039   -1.0437 H   0  0  0  0  0  0  0  0  0  0  0  0
    1.7362    6.7555    0.3167 H   0  0  0  0  0  0  0  0  0  0  0  0
    5.6282    4.1670    0.0951 H   0  0  0  0  0  0  0  0  0  0  0  0
    1.6584    0.2141    2.3044 H   0  0  0  0  0  0  0  0  0  0  0  0
    0.6266   -2.0878    1.3470 H   0  0  0  0  0  0  0  0  0  0  0  0
    2.3868   -2.0049    1.0908 H   0  0  0  0  0  0  0  0  0  0  0  0
    2.9667   -1.6161   -1.6028 H   0  0  0  0  0  0  0  0  0  0  0  0
    2.3526   -2.3180   -3.8711 H   0  0  0  0  0  0  0  0  0  0  0  0
    0.4606   -3.8855   -4.2179 H   0  0  0  0  0  0  0  0  0  0  0  0
   -0.8088   -4.7444   -2.2644 H   0  0  0  0  0  0  0  0  0  0  0  0
   -0.4547   -3.7372   -0.0350 H   0  0  0  0  0  0  0  0  0  0  0  0
  1  2  2  0  0  0  0
  2 27  1  0  0  0  0
  3 17  1  0  0  0  0
  3  4  1  1  0  0  0
  3  2  1  0  0  0  0
  5  7  1  0  0  0  0
  5 11  1  0  0  0  0
  5  6  1  6  0  0  0
  5  3  1  0  0  0  0
  7  8  1  0  0  0  0
  7 28  1  0  0  0  0
  8 10  1  0  0  0  0
  8 14  1  0  0  0  0
  8  9  1  1  0  0  0
 10 11  1  0  0  0  0
 10 12  1  0  0  0  0
 10 13  1  0  0  0  0
 12 29  1  0  0  0  0
 12 30  1  0  0  0  0
 12 31  1  0  0  0  0
 13 32  1  0  0  0  0
 13 33  1  0  0  0  0
 13 34  1  0  0  0  0
 14 15  2  0  0  0  0
 14 16  1  0  0  0  0
 16 35  1  0  0  0  0
 17 18  1  0  0  0  0
 17 36  1  0  0  0  0
 18 19  2  0  0  0  0
 18 20  1  0  0  0  0
 20 21  1  0  0  0  0
 20 37  1  0  0  0  0
 20 38  1  0  0  0  0
 21 22  2  0  0  0  0
 21 26  1  0  0  0  0
 22 23  1  0  0  0  0
 22 39  1  0  0  0  0
 23 24  2  0  0  0  0
 23 40  1  0  0  0  0
 24 25  1  0  0  0  0
 24 41  1  0  0  0  0
 25 26  2  0  0  0  0
 25 42  1  0  0  0  0
 26 43  1  0  0  0  0
M  END
$$$$
