PNN
 OpenBabel04121316173D

 41 43  0  0  1  0  0  0  0  0999 V2000
    4.9345    0.1303    2.1376 O   0  0  0  0  0  0  0  0  0  0  0  0
    4.8543    1.3504    2.1935 C   0  0  0  0  0  0  0  0  0  0  0  0
    5.1932    2.1461    3.4409 C   0  0  0  0  0  0  0  0  0  0  0  0
    6.0768    1.4217    4.4553 C   0  0  0  0  0  0  0  0  0  0  0  0
    6.4207    2.0632    5.6505 C   0  0  0  0  0  0  0  0  0  0  0  0
    7.3567    1.4831    6.5183 C   0  0  0  0  0  0  0  0  0  0  0  0
    7.8613    0.2052    6.2773 C   0  0  0  0  0  0  0  0  0  0  0  0
    7.4168   -0.5041    5.1819 C   0  0  0  0  0  0  0  0  0  0  0  0
    6.5925    0.1254    4.2611 C   0  0  0  0  0  0  0  0  0  0  0  0
    4.4222    2.0129    1.0781 N   0  0  0  0  0  0  0  0  0  0  0  0
    4.1626    1.2376   -0.1973 C   0  0  2  0  0  0  0  0  0  0  0  0
    3.0794    1.1689   -0.3503 H   0  0  0  0  0  0  0  0  0  0  0  0
    4.8615   -0.1536   -0.5038 C   0  0  0  0  0  0  0  0  0  0  0  0
    4.9278   -1.2838   -0.0559 O   0  0  0  0  0  0  0  0  0  0  0  0
    5.5384    0.3609   -1.5749 N   0  0  0  0  0  0  0  0  0  0  0  0
    4.9900    1.7100   -1.4244 C   0  0  2  0  0  0  0  0  0  0  0  0
    4.3715    2.0090   -2.2771 H   0  0  0  0  0  0  0  0  0  0  0  0
    6.4749    2.7868   -1.0965 S   0  0  0  0  0  0  0  0  0  0  0  0
    7.6438    1.3480   -0.8529 C   0  0  0  0  0  0  0  0  0  0  0  0
    6.9960    0.2186   -1.6822 C   0  0  2  0  0  0  0  0  0  0  0  0
    7.3019   -0.7630   -1.2964 H   0  0  0  0  0  0  0  0  0  0  0  0
    7.3666    0.2746   -3.1707 C   0  0  0  0  0  0  0  0  0  0  0  0
    7.6870   -0.7082   -3.8248 O   0  0  0  0  0  0  0  0  0  0  0  0
    7.2814    1.5003   -3.7492 O   0  0  0  0  0  0  0  0  0  0  0  0
    9.0936    1.6788   -1.2066 C   0  0  0  0  0  0  0  0  0  0  0  0
    7.7005    1.0256    0.6352 C   0  0  0  0  0  0  0  0  0  0  0  0
    4.2283    2.3800    3.9019 H   0  0  0  0  0  0  0  0  0  0  0  0
    5.6822    3.0916    3.1621 H   0  0  0  0  0  0  0  0  0  0  0  0
    5.9800    3.0224    5.9134 H   0  0  0  0  0  0  0  0  0  0  0  0
    7.6971    2.0279    7.3931 H   0  0  0  0  0  0  0  0  0  0  0  0
    8.5928   -0.2464    6.9379 H   0  0  0  0  0  0  0  0  0  0  0  0
    7.7115   -1.5341    4.9996 H   0  0  0  0  0  0  0  0  0  0  0  0
    6.3930   -0.4812    3.3870 H   0  0  0  0  0  0  0  0  0  0  0  0
    4.1013    2.9692    1.1715 H   0  0  0  0  0  0  0  0  0  0  0  0
    7.0420    2.2293   -3.1377 H   0  0  0  0  0  0  0  0  0  0  0  0
    9.2557    1.9398   -2.2518 H   0  0  0  0  0  0  0  0  0  0  0  0
    9.7296    0.8127   -0.9780 H   0  0  0  0  0  0  0  0  0  0  0  0
    9.4593    2.5105   -0.5918 H   0  0  0  0  0  0  0  0  0  0  0  0
    6.7353    0.7198    0.9740 H   0  0  0  0  0  0  0  0  0  0  0  0
    8.0239    1.8831    1.2377 H   0  0  0  0  0  0  0  0  0  0  0  0
    8.3611    0.1803    0.8510 H   0  0  0  0  0  0  0  0  0  0  0  0
  1  2  2  0  0  0  0
  2  3  1  0  0  0  0
  2 10  1  0  0  0  0
  3  4  1  0  0  0  0
  3 27  1  0  0  0  0
  3 28  1  0  0  0  0
  4  5  2  0  0  0  0
  4  9  1  0  0  0  0
  5  6  1  0  0  0  0
  5 29  1  0  0  0  0
  6  7  2  0  0  0  0
  6 30  1  0  0  0  0
  7  8  1  0  0  0  0
  7 31  1  0  0  0  0
  8  9  2  0  0  0  0
  8 32  1  0  0  0  0
  9 33  1  0  0  0  0
 10 34  1  0  0  0  0
 11 13  1  0  0  0  0
 11 16  1  0  0  0  0
 11 12  1  6  0  0  0
 11 10  1  0  0  0  0
 13 14  2  0  0  0  0
 13 15  1  0  0  0  0
 15 16  1  0  0  0  0
 15 20  1  0  0  0  0
 16 17  1  6  0  0  0
 16 18  1  0  0  0  0
 18 19  1  0  0  0  0
 19 20  1  0  0  0  0
 19 25  1  0  0  0  0
 19 26  1  0  0  0  0
 20 22  1  0  0  0  0
 20 21  1  1  0  0  0
 22 23  2  0  0  0  0
 22 24  1  0  0  0  0
 24 35  1  0  0  0  0
 25 36  1  0  0  0  0
 25 37  1  0  0  0  0
 25 38  1  0  0  0  0
 26 39  1  0  0  0  0
 26 40  1  0  0  0  0
 26 41  1  0  0  0  0
M  END
$$$$
