PNS
 OpenBabel04121316173D

 45 44  0  0  1  0  0  0  0  0999 V2000
    0.9361    0.0207   -0.0715 S   0  0  0  0  0  0  0  0  0  0  0  0
    2.7537    0.0287   -0.1151 C   0  0  0  0  0  0  0  0  0  0  0  0
    3.3067   -0.2549    1.2740 C   0  0  0  0  0  0  0  0  0  0  0  0
    4.7585   -0.2609    1.3301 N   0  0  0  0  0  0  0  0  0  0  0  0
    5.3661   -0.5128    2.5381 C   0  0  0  0  0  0  0  0  0  0  0  0
    4.7210   -0.6993    3.5695 O   0  0  0  0  0  0  0  0  0  0  0  0
    6.8731   -0.5344    2.5002 C   0  0  0  0  0  0  0  0  0  0  0  0
    7.3906   -0.8792    3.8912 C   0  0  0  0  0  0  0  0  0  0  0  0
    8.8218   -1.0541    3.9186 N   0  0  0  0  0  0  0  0  0  0  0  0
    9.4872   -1.2548    5.1106 C   0  0  0  0  0  0  0  0  0  0  0  0
    8.9074   -1.5185    6.1616 O   0  0  0  0  0  0  0  0  0  0  0  0
   11.0339   -1.1708    5.0174 C   0  0  1  0  0  0  0  0  0  0  0  0
   11.3589   -1.9405    4.3124 H   0  0  0  0  0  0  0  0  0  0  0  0
   11.5600    0.2181    4.5754 C   0  0  0  0  0  0  0  0  0  0  0  0
   11.0629    1.2724    5.5574 C   0  0  0  0  0  0  0  0  0  0  0  0
    9.6301    1.3939    5.5789 O   0  0  0  0  0  0  0  0  0  0  0  0
    9.0534    2.6137    6.6616 P   0  0  0  0  0  0  0  0  0  0  0  0
    9.0636    1.6437    7.8351 O   0  0  0  0  0  0  0  0  0  0  0  0
   10.4749    3.4162    6.6539 O   0  0  0  0  0  0  0  0  0  0  0  0
    8.4767    3.8336    7.7444 O   0  0  0  0  0  0  0  0  0  0  0  0
   13.1075    0.2556    4.6134 C   0  0  0  0  0  0  0  0  0  0  0  0
   11.1398    0.6472    3.1541 C   0  0  0  0  0  0  0  0  0  0  0  0
   11.6433   -1.5067    6.2700 O   0  0  0  0  0  0  0  0  0  0  0  0
    0.7339    0.2843   -1.3694 H   0  0  0  0  0  0  0  0  0  0  0  0
    3.0988    1.0039   -0.4733 H   0  0  0  0  0  0  0  0  0  0  0  0
    3.0984   -0.7282   -0.8272 H   0  0  0  0  0  0  0  0  0  0  0  0
    2.9666   -1.2341    1.6346 H   0  0  0  0  0  0  0  0  0  0  0  0
    2.9612    0.5003    1.9913 H   0  0  0  0  0  0  0  0  0  0  0  0
    5.3116   -0.1117    0.4951 H   0  0  0  0  0  0  0  0  0  0  0  0
    7.2436    0.4470    2.1777 H   0  0  0  0  0  0  0  0  0  0  0  0
    7.2106   -1.2786    1.7698 H   0  0  0  0  0  0  0  0  0  0  0  0
    6.9473   -1.8089    4.2610 H   0  0  0  0  0  0  0  0  0  0  0  0
    7.1290   -0.0825    4.6006 H   0  0  0  0  0  0  0  0  0  0  0  0
    9.3439   -0.9861    3.0592 H   0  0  0  0  0  0  0  0  0  0  0  0
   11.4895    2.2132    5.1914 H   0  0  0  0  0  0  0  0  0  0  0  0
   11.4310    1.0955    6.5749 H   0  0  0  0  0  0  0  0  0  0  0  0
   10.6172    3.9562    5.8603 H   0  0  0  0  0  0  0  0  0  0  0  0
    7.6932    3.4566    8.1870 H   0  0  0  0  0  0  0  0  0  0  0  0
   13.5007    0.0823    5.6210 H   0  0  0  0  0  0  0  0  0  0  0  0
   13.4843    1.2371    4.2957 H   0  0  0  0  0  0  0  0  0  0  0  0
   13.5338   -0.4951    3.9415 H   0  0  0  0  0  0  0  0  0  0  0  0
   10.0749    0.8832    3.0791 H   0  0  0  0  0  0  0  0  0  0  0  0
   11.3909   -0.1240    2.4205 H   0  0  0  0  0  0  0  0  0  0  0  0
   11.6460    1.5732    2.8542 H   0  0  0  0  0  0  0  0  0  0  0  0
   11.0260   -2.1058    6.7338 H   0  0  0  0  0  0  0  0  0  0  0  0
  1  2  1  0  0  0  0
  1 24  1  0  0  0  0
  2  3  1  0  0  0  0
  2 25  1  0  0  0  0
  2 26  1  0  0  0  0
  3  4  1  0  0  0  0
  3 27  1  0  0  0  0
  3 28  1  0  0  0  0
  4  5  1  0  0  0  0
  4 29  1  0  0  0  0
  5  6  2  0  0  0  0
  5  7  1  0  0  0  0
  7  8  1  0  0  0  0
  7 30  1  0  0  0  0
  7 31  1  0  0  0  0
  8  9  1  0  0  0  0
  8 32  1  0  0  0  0
  8 33  1  0  0  0  0
  9 10  1  0  0  0  0
  9 34  1  0  0  0  0
 10 11  2  0  0  0  0
 10 12  1  0  0  0  0
 12 13  1  6  0  0  0
 12 14  1  0  0  0  0
 12 23  1  0  0  0  0
 14 15  1  0  0  0  0
 14 21  1  0  0  0  0
 14 22  1  0  0  0  0
 15 16  1  0  0  0  0
 15 35  1  0  0  0  0
 15 36  1  0  0  0  0
 16 17  1  0  0  0  0
 17 18  2  0  0  0  0
 17 19  1  0  0  0  0
 17 20  1  0  0  0  0
 19 37  1  0  0  0  0
 20 38  1  0  0  0  0
 21 39  1  0  0  0  0
 21 40  1  0  0  0  0
 21 41  1  0  0  0  0
 22 42  1  0  0  0  0
 22 43  1  0  0  0  0
 22 44  1  0  0  0  0
 23 45  1  0  0  0  0
M  END
$$$$
