PNT
 OpenBabel04121316173D

 49 50  0  0  0  0  0  0  0  0999 V2000
    1.1234   -0.0253    0.0290 N   0  0  0  0  0  0  0  0  0  0  0  0
    2.4833    0.0890    0.0011 C   0  0  0  0  0  0  0  0  0  0  0  0
    3.1612    0.5382    0.9902 N   0  0  0  0  0  0  0  0  0  0  0  0
    3.1880   -0.3502   -1.2172 C   0  0  0  0  0  0  0  0  0  0  0  0
    3.7665    0.5834   -2.0755 C   0  0  0  0  0  0  0  0  0  0  0  0
    4.2237    0.1580   -3.3235 C   0  0  0  0  0  0  0  0  0  0  0  0
    4.1980   -1.1995   -3.6553 C   0  0  0  0  0  0  0  0  0  0  0  0
    3.7497   -2.1359   -2.7181 C   0  0  0  0  0  0  0  0  0  0  0  0
    3.1880   -1.7083   -1.5214 C   0  0  0  0  0  0  0  0  0  0  0  0
    4.6151   -1.5006   -4.9241 O   0  0  0  0  0  0  0  0  0  0  0  0
    4.5285   -2.8800   -5.2695 C   0  0  0  0  0  0  0  0  0  0  0  0
    4.9237   -3.0475   -6.7237 C   0  0  0  0  0  0  0  0  0  0  0  0
    4.9041   -4.5242   -7.0988 C   0  0  0  0  0  0  0  0  0  0  0  0
    5.3154   -4.7106   -8.5489 C   0  0  0  0  0  0  0  0  0  0  0  0
    5.3163   -6.1784   -8.9480 C   0  0  0  0  0  0  0  0  0  0  0  0
    5.7245   -6.2298  -10.3212 O   0  0  0  0  0  0  0  0  0  0  0  0
    5.6921   -7.5126  -10.7814 C   0  0  0  0  0  0  0  0  0  0  0  0
    4.6475   -7.8957  -11.6130 C   0  0  0  0  0  0  0  0  0  0  0  0
    4.5475   -9.2252  -12.0272 C   0  0  0  0  0  0  0  0  0  0  0  0
    5.5506  -10.1479  -11.6976 C   0  0  0  0  0  0  0  0  0  0  0  0
    6.6745   -9.6966  -10.9867 C   0  0  0  0  0  0  0  0  0  0  0  0
    6.7232   -8.3951  -10.4867 C   0  0  0  0  0  0  0  0  0  0  0  0
    5.4253  -11.5983  -12.0587 C   0  0  0  0  0  0  0  0  0  0  0  0
    4.3818  -12.1145  -12.6305 N   0  0  0  0  0  0  0  0  0  0  0  0
    6.4159  -12.4827  -11.7777 N   0  0  0  0  0  0  0  0  0  0  0  0
    0.5899    0.4066    0.7693 H   0  0  0  0  0  0  0  0  0  0  0  0
    0.6225   -0.2033   -0.8342 H   0  0  0  0  0  0  0  0  0  0  0  0
    2.5315    0.7634    1.7638 H   0  0  0  0  0  0  0  0  0  0  0  0
    3.8312    1.6286   -1.7900 H   0  0  0  0  0  0  0  0  0  0  0  0
    4.5904    0.8848   -4.0445 H   0  0  0  0  0  0  0  0  0  0  0  0
    3.8028   -3.2042   -2.8951 H   0  0  0  0  0  0  0  0  0  0  0  0
    2.7621   -2.4293   -0.8299 H   0  0  0  0  0  0  0  0  0  0  0  0
    3.5027   -3.2505   -5.1385 H   0  0  0  0  0  0  0  0  0  0  0  0
    5.2202   -3.4546   -4.6418 H   0  0  0  0  0  0  0  0  0  0  0  0
    5.9203   -2.6195   -6.8839 H   0  0  0  0  0  0  0  0  0  0  0  0
    4.2378   -2.4764   -7.3617 H   0  0  0  0  0  0  0  0  0  0  0  0
    3.8995   -4.9355   -6.9387 H   0  0  0  0  0  0  0  0  0  0  0  0
    5.5868   -5.0801   -6.4440 H   0  0  0  0  0  0  0  0  0  0  0  0
    6.3147   -4.2897   -8.7150 H   0  0  0  0  0  0  0  0  0  0  0  0
    4.6386   -4.1537   -9.2087 H   0  0  0  0  0  0  0  0  0  0  0  0
    4.3089   -6.5992   -8.8263 H   0  0  0  0  0  0  0  0  0  0  0  0
    6.0160   -6.7357   -8.3119 H   0  0  0  0  0  0  0  0  0  0  0  0
    3.9019   -7.1693  -11.9229 H   0  0  0  0  0  0  0  0  0  0  0  0
    3.6749   -9.5041  -12.6064 H   0  0  0  0  0  0  0  0  0  0  0  0
    7.5276  -10.3378  -10.7991 H   0  0  0  0  0  0  0  0  0  0  0  0
    7.5653   -8.0765   -9.8794 H   0  0  0  0  0  0  0  0  0  0  0  0
    3.6522  -11.4296  -12.8203 H   0  0  0  0  0  0  0  0  0  0  0  0
    7.2345  -12.2723  -11.2323 H   0  0  0  0  0  0  0  0  0  0  0  0
    6.2107  -13.4564  -11.9623 H   0  0  0  0  0  0  0  0  0  0  0  0
  1  2  1  0  0  0  0
  1 26  1  0  0  0  0
  1 27  1  0  0  0  0
  2  3  2  0  0  0  0
  2  4  1  0  0  0  0
  3 28  1  0  0  0  0
  4  5  2  0  0  0  0
  4  9  1  0  0  0  0
  5  6  1  0  0  0  0
  5 29  1  0  0  0  0
  6  7  2  0  0  0  0
  6 30  1  0  0  0  0
  7  8  1  0  0  0  0
  7 10  1  0  0  0  0
  8  9  2  0  0  0  0
  8 31  1  0  0  0  0
  9 32  1  0  0  0  0
 10 11  1  0  0  0  0
 11 12  1  0  0  0  0
 11 33  1  0  0  0  0
 11 34  1  0  0  0  0
 12 13  1  0  0  0  0
 12 35  1  0  0  0  0
 12 36  1  0  0  0  0
 13 14  1  0  0  0  0
 13 37  1  0  0  0  0
 13 38  1  0  0  0  0
 14 15  1  0  0  0  0
 14 39  1  0  0  0  0
 14 40  1  0  0  0  0
 15 16  1  0  0  0  0
 15 41  1  0  0  0  0
 15 42  1  0  0  0  0
 16 17  1  0  0  0  0
 17 18  2  0  0  0  0
 17 22  1  0  0  0  0
 18 19  1  0  0  0  0
 18 43  1  0  0  0  0
 19 20  2  0  0  0  0
 19 44  1  0  0  0  0
 20 21  1  0  0  0  0
 20 23  1  0  0  0  0
 21 22  2  0  0  0  0
 21 45  1  0  0  0  0
 22 46  1  0  0  0  0
 23 24  2  0  0  0  0
 23 25  1  0  0  0  0
 24 47  1  0  0  0  0
 25 48  1  0  0  0  0
 25 49  1  0  0  0  0
M  END
$$$$
