PNV
 OpenBabel04121316173D

 42 44  0  0  1  0  0  0  0  0999 V2000
    4.9054    0.5492    2.4270 O   0  0  0  0  0  0  0  0  0  0  0  0
    4.3756   -0.2894    3.1520 C   0  0  0  0  0  0  0  0  0  0  0  0
    3.0119   -0.4785    3.1773 N   0  0  0  0  0  0  0  0  0  0  0  0
    2.1330    0.3464    2.3061 C   0  0  2  0  0  0  0  0  0  0  0  0
    2.4692    0.2691    1.2653 H   0  0  0  0  0  0  0  0  0  0  0  0
    1.8901    1.8266    2.7391 C   0  0  0  0  0  0  0  0  0  0  0  0
    2.5476    2.7562    3.1428 O   0  0  0  0  0  0  0  0  0  0  0  0
    0.5348    1.6335    2.7936 N   0  0  0  0  0  0  0  0  0  0  0  0
    0.6010    0.2021    2.4740 C   0  0  2  0  0  0  0  0  0  0  0  0
    0.0808   -0.0517    1.5441 H   0  0  0  0  0  0  0  0  0  0  0  0
   -0.0426   -0.6481    3.9996 S   0  0  0  0  0  0  0  0  0  0  0  0
   -0.0345    0.8952    5.0279 C   0  0  0  0  0  0  0  0  0  0  0  0
   -0.2476    2.0153    3.9780 C   0  0  2  0  0  0  0  0  0  0  0  0
    0.1316    2.9653    4.3747 H   0  0  0  0  0  0  0  0  0  0  0  0
   -1.6659    2.3026    3.4298 C   0  0  0  0  0  0  0  0  0  0  0  0
   -1.8830    3.1455    2.5651 O   0  0  0  0  0  0  0  0  0  0  0  0
   -2.6897    1.5505    3.8780 O   0  0  0  0  0  0  0  0  0  0  0  0
   -1.0054    0.8594    6.2246 C   0  0  0  0  0  0  0  0  0  0  0  0
    1.3467    0.9659    5.7189 C   0  0  0  0  0  0  0  0  0  0  0  0
    5.1955   -1.2189    4.0362 C   0  0  0  0  0  0  0  0  0  0  0  0
    4.3472   -2.1131    4.7639 O   0  0  0  0  0  0  0  0  0  0  0  0
    5.1080   -2.9433    5.5415 C   0  0  0  0  0  0  0  0  0  0  0  0
    5.2089   -2.6770    6.9043 C   0  0  0  0  0  0  0  0  0  0  0  0
    6.0322   -3.4730    7.7000 C   0  0  0  0  0  0  0  0  0  0  0  0
    6.6636   -4.5898    7.1509 C   0  0  0  0  0  0  0  0  0  0  0  0
    6.4657   -4.9152    5.8083 C   0  0  0  0  0  0  0  0  0  0  0  0
    5.7158   -4.0701    4.9903 C   0  0  0  0  0  0  0  0  0  0  0  0
    2.6433   -1.1756    3.8224 H   0  0  0  0  0  0  0  0  0  0  0  0
   -2.4548    0.6885    4.2631 H   0  0  0  0  0  0  0  0  0  0  0  0
   -2.0680    0.7560    6.0192 H   0  0  0  0  0  0  0  0  0  0  0  0
   -0.8979    1.7822    6.8083 H   0  0  0  0  0  0  0  0  0  0  0  0
   -0.7598    0.0233    6.8918 H   0  0  0  0  0  0  0  0  0  0  0  0
    2.2016    0.9893    5.0508 H   0  0  0  0  0  0  0  0  0  0  0  0
    1.4938    0.1033    6.3821 H   0  0  0  0  0  0  0  0  0  0  0  0
    1.4139    1.8692    6.3345 H   0  0  0  0  0  0  0  0  0  0  0  0
    5.7808   -0.5931    4.7218 H   0  0  0  0  0  0  0  0  0  0  0  0
    5.8630   -1.7732    3.3644 H   0  0  0  0  0  0  0  0  0  0  0  0
    4.6602   -1.8497    7.3439 H   0  0  0  0  0  0  0  0  0  0  0  0
    6.1750   -3.2293    8.7495 H   0  0  0  0  0  0  0  0  0  0  0  0
    7.2994   -5.2148    7.7734 H   0  0  0  0  0  0  0  0  0  0  0  0
    6.8961   -5.8267    5.4014 H   0  0  0  0  0  0  0  0  0  0  0  0
    5.6026   -4.2988    3.9348 H   0  0  0  0  0  0  0  0  0  0  0  0
  1  2  2  0  0  0  0
  2  3  1  0  0  0  0
  2 20  1  0  0  0  0
  3 28  1  0  0  0  0
  4  6  1  0  0  0  0
  4  9  1  0  0  0  0
  4  5  1  6  0  0  0
  4  3  1  0  0  0  0
  6  7  2  0  0  0  0
  6  8  1  0  0  0  0
  8  9  1  0  0  0  0
  8 13  1  0  0  0  0
  9 10  1  6  0  0  0
  9 11  1  0  0  0  0
 11 12  1  0  0  0  0
 12 13  1  0  0  0  0
 12 18  1  0  0  0  0
 12 19  1  0  0  0  0
 13 15  1  0  0  0  0
 13 14  1  1  0  0  0
 15 16  2  0  0  0  0
 15 17  1  0  0  0  0
 17 29  1  0  0  0  0
 18 30  1  0  0  0  0
 18 31  1  0  0  0  0
 18 32  1  0  0  0  0
 19 33  1  0  0  0  0
 19 34  1  0  0  0  0
 19 35  1  0  0  0  0
 20 21  1  0  0  0  0
 20 36  1  0  0  0  0
 20 37  1  0  0  0  0
 21 22  1  0  0  0  0
 22 23  2  0  0  0  0
 22 27  1  0  0  0  0
 23 24  1  0  0  0  0
 23 38  1  0  0  0  0
 24 25  2  0  0  0  0
 24 39  1  0  0  0  0
 25 26  1  0  0  0  0
 25 40  1  0  0  0  0
 26 27  2  0  0  0  0
 26 41  1  0  0  0  0
 27 42  1  0  0  0  0
M  END
$$$$
