PNW
 OpenBabel04121316173D

 36 37  0  0  1  0  0  0  0  0999 V2000
    0.6830    0.1494    0.2258 O   0  0  0  0  0  0  0  0  0  0  0  0
    2.0819    0.0324    0.2012 C   0  0  0  0  0  0  0  0  0  0  0  0
    2.9759    1.2646    0.3987 C   0  0  1  0  0  0  0  0  0  0  0  0
    2.8711    1.5982    1.4408 H   0  0  0  0  0  0  0  0  0  0  0  0
    4.3429    0.7820    0.2337 O   0  0  0  0  0  0  0  0  0  0  0  0
    4.6713    0.3681   -1.1246 C   0  0  1  0  0  0  0  0  0  0  0  0
    5.7320    0.1035   -1.0671 H   0  0  0  0  0  0  0  0  0  0  0  0
    4.0055   -0.8737   -1.4616 O   0  0  0  0  0  0  0  0  0  0  0  0
    3.7848   -1.2217   -2.7595 C   0  0  0  0  0  0  0  0  0  0  0  0
    4.6749   -0.8841   -3.7662 C   0  0  0  0  0  0  0  0  0  0  0  0
    4.3615   -1.1325   -5.0926 C   0  0  0  0  0  0  0  0  0  0  0  0
    3.2463   -1.9101   -5.3997 C   0  0  0  0  0  0  0  0  0  0  0  0
    2.4039   -2.3850   -4.3844 C   0  0  0  0  0  0  0  0  0  0  0  0
    2.6375   -1.9725   -3.0667 C   0  0  0  0  0  0  0  0  0  0  0  0
    2.9776   -2.2459   -6.7991 N   0  3  0  0  0  0  0  0  0  0  0  0
    3.7363   -1.7441   -7.6568 O   0  0  0  0  0  0  0  0  0  0  0  0
    2.0371   -2.9939   -7.0479 O   0  5  0  0  0  0  0  0  0  0  0  0
    4.4953    1.6001   -2.0646 C   0  0  1  0  0  0  0  0  0  0  0  0
    4.6402    1.3656   -3.1129 H   0  0  0  0  0  0  0  0  0  0  0  0
    3.1049    2.2451   -1.9557 C   0  0  2  0  0  0  0  0  0  0  0  0
    3.1587    3.2042   -2.4832 H   0  0  0  0  0  0  0  0  0  0  0  0
    2.7373    2.5125   -0.4897 C   0  0  2  0  0  0  0  0  0  0  0  0
    1.7051    2.8657   -0.4102 H   0  0  0  0  0  0  0  0  0  0  0  0
    3.5596    3.5832    0.0304 O   0  0  0  0  0  0  0  0  0  0  0  0
    2.0977    1.5222   -2.6685 O   0  0  0  0  0  0  0  0  0  0  0  0
    5.5129    2.5815   -1.7828 O   0  0  0  0  0  0  0  0  0  0  0  0
    0.3749   -0.6791   -0.2007 H   0  0  0  0  0  0  0  0  0  0  0  0
    2.2257   -0.3320   -0.7915 H   0  0  0  0  0  0  0  0  0  0  0  0
    2.4231   -0.7824    0.8522 H   0  0  0  0  0  0  0  0  0  0  0  0
    5.6085   -0.3839   -3.5372 H   0  0  0  0  0  0  0  0  0  0  0  0
    5.0150   -0.7302   -5.8627 H   0  0  0  0  0  0  0  0  0  0  0  0
    1.5803   -3.0622   -4.6035 H   0  0  0  0  0  0  0  0  0  0  0  0
    1.9156   -2.2476   -2.2978 H   0  0  0  0  0  0  0  0  0  0  0  0
    3.7046    4.2441   -0.6720 H   0  0  0  0  0  0  0  0  0  0  0  0
    1.8571    0.7055   -2.2102 H   0  0  0  0  0  0  0  0  0  0  0  0
    6.3520    2.1111   -1.6278 H   0  0  0  0  0  0  0  0  0  0  0  0
  1  2  1  0  0  0  0
  1 27  1  0  0  0  0
  2  3  1  0  0  0  0
  2 28  1  0  0  0  0
  2 29  1  0  0  0  0
  3  4  1  1  0  0  0
  3  5  1  0  0  0  0
  3 22  1  0  0  0  0
  5  6  1  0  0  0  0
  6 18  1  0  0  0  0
  6  8  1  0  0  0  0
  6  7  1  1  0  0  0
  8  9  1  0  0  0  0
  9 10  2  0  0  0  0
  9 14  1  0  0  0  0
 10 11  1  0  0  0  0
 10 30  1  0  0  0  0
 11 12  2  0  0  0  0
 11 31  1  0  0  0  0
 12 13  1  0  0  0  0
 12 15  1  0  0  0  0
 13 14  2  0  0  0  0
 13 32  1  0  0  0  0
 14 33  1  0  0  0  0
 15 16  2  0  0  0  0
 15 17  1  0  0  0  0
 18 19  1  6  0  0  0
 18 20  1  0  0  0  0
 18 26  1  0  0  0  0
 20 22  1  0  0  0  0
 20 25  1  0  0  0  0
 20 21  1  6  0  0  0
 22 23  1  1  0  0  0
 22 24  1  0  0  0  0
 24 34  1  0  0  0  0
 25 35  1  0  0  0  0
 26 36  1  0  0  0  0
M  CHG  2  15   1  17  -1
M  END
$$$$
