PNX
 OpenBabel04121316173D

 38 39  0  0  0  0  0  0  0  0999 V2000
    1.0270    0.0446   -0.0639 C   0  0  0  0  0  0  0  0  0  0  0  0
    2.5230   -0.0292   -0.0317 C   0  0  0  0  0  0  0  0  0  0  0  0
    3.0987   -0.9923    0.4735 O   0  0  0  0  0  0  0  0  0  0  0  0
    3.2696    1.1298   -0.6428 C   0  0  0  0  0  0  0  0  0  0  0  0
    4.7687    0.8814   -0.5439 C   0  0  0  0  0  0  0  0  0  0  0  0
    5.5061    2.0429   -1.1577 C   0  0  0  0  0  0  0  0  0  0  0  0
    7.0201    1.8992   -1.0168 C   0  0  0  0  0  0  0  0  0  0  0  0
    7.7246    3.0304   -1.6085 N   0  0  0  0  0  0  0  0  0  0  0  0
    7.3098    4.3092   -1.2361 C   0  0  0  0  0  0  0  0  0  0  0  0
    6.4531    4.5517   -0.3873 O   0  0  0  0  0  0  0  0  0  0  0  0
    7.9745    5.3435   -1.9248 C   0  0  0  0  0  0  0  0  0  0  0  0
    7.7723    6.6899   -1.9226 N   0  0  0  0  0  0  0  0  0  0  0  0
    6.7537    7.4254   -1.2153 C   0  0  0  0  0  0  0  0  0  0  0  0
    8.7371    7.2276   -2.7335 C   0  0  0  0  0  0  0  0  0  0  0  0
    9.5121    6.2951   -3.2578 N   0  0  0  0  0  0  0  0  0  0  0  0
    9.0264    5.1243   -2.7589 C   0  0  0  0  0  0  0  0  0  0  0  0
    9.4909    3.8527   -2.9976 N   0  0  0  0  0  0  0  0  0  0  0  0
    8.8451    2.7590   -2.4136 C   0  0  0  0  0  0  0  0  0  0  0  0
    9.2467    1.6068   -2.6025 O   0  0  0  0  0  0  0  0  0  0  0  0
   10.6272    3.5895   -3.8512 C   0  0  0  0  0  0  0  0  0  0  0  0
    0.6230   -0.8572    0.4020 H   0  0  0  0  0  0  0  0  0  0  0  0
    0.6866    0.0966   -1.1003 H   0  0  0  0  0  0  0  0  0  0  0  0
    0.6903    0.9201    0.4958 H   0  0  0  0  0  0  0  0  0  0  0  0
    2.9949    2.0491   -0.1093 H   0  0  0  0  0  0  0  0  0  0  0  0
    2.9720    1.2412   -1.6919 H   0  0  0  0  0  0  0  0  0  0  0  0
    5.0441   -0.0498   -1.0493 H   0  0  0  0  0  0  0  0  0  0  0  0
    5.0556    0.7840    0.5113 H   0  0  0  0  0  0  0  0  0  0  0  0
    5.1307    2.9244   -0.6375 H   0  0  0  0  0  0  0  0  0  0  0  0
    5.2426    2.1711   -2.2140 H   0  0  0  0  0  0  0  0  0  0  0  0
    7.3255    0.9619   -1.4966 H   0  0  0  0  0  0  0  0  0  0  0  0
    7.3127    1.8316    0.0381 H   0  0  0  0  0  0  0  0  0  0  0  0
    6.0945    6.7584   -0.6603 H   0  0  0  0  0  0  0  0  0  0  0  0
    6.1506    7.9745   -1.9415 H   0  0  0  0  0  0  0  0  0  0  0  0
    7.2403    8.1037   -0.5121 H   0  0  0  0  0  0  0  0  0  0  0  0
    8.8270    8.2929   -2.9024 H   0  0  0  0  0  0  0  0  0  0  0  0
   11.0497    4.5091   -4.2613 H   0  0  0  0  0  0  0  0  0  0  0  0
   10.3079    2.9362   -4.6701 H   0  0  0  0  0  0  0  0  0  0  0  0
   11.3909    3.0632   -3.2689 H   0  0  0  0  0  0  0  0  0  0  0  0
  1  2  1  0  0  0  0
  1 21  1  0  0  0  0
  1 22  1  0  0  0  0
  1 23  1  0  0  0  0
  2  3  2  0  0  0  0
  2  4  1  0  0  0  0
  4  5  1  0  0  0  0
  4 24  1  0  0  0  0
  4 25  1  0  0  0  0
  5  6  1  0  0  0  0
  5 26  1  0  0  0  0
  5 27  1  0  0  0  0
  6  7  1  0  0  0  0
  6 28  1  0  0  0  0
  6 29  1  0  0  0  0
  7  8  1  0  0  0  0
  7 30  1  0  0  0  0
  7 31  1  0  0  0  0
  8  9  1  0  0  0  0
  8 18  1  0  0  0  0
  9 10  2  0  0  0  0
  9 11  1  0  0  0  0
 11 12  1  0  0  0  0
 11 16  2  0  0  0  0
 12 13  1  0  0  0  0
 12 14  1  0  0  0  0
 13 32  1  0  0  0  0
 13 33  1  0  0  0  0
 13 34  1  0  0  0  0
 14 15  2  0  0  0  0
 14 35  1  0  0  0  0
 15 16  1  0  0  0  0
 16 17  1  0  0  0  0
 17 18  1  0  0  0  0
 17 20  1  0  0  0  0
 18 19  2  0  0  0  0
 20 36  1  0  0  0  0
 20 37  1  0  0  0  0
 20 38  1  0  0  0  0
M  END
$$$$
