POL
 OpenBabel04121316173D

 12 11  0  0  0  0  0  0  0  0999 V2000
    1.0475    0.0432    0.0640 C   0  0  0  0  0  0  0  0  0  0  0  0
    2.5652    0.0684    0.0666 C   0  0  0  0  0  0  0  0  0  0  0  0
    3.0960    1.4915    0.1615 C   0  0  0  0  0  0  0  0  0  0  0  0
    4.5167    1.4813    0.1492 O   0  0  0  0  0  0  0  0  0  0  0  0
    0.6821   -0.9859   -0.0040 H   0  0  0  0  0  0  0  0  0  0  0  0
    0.6493    0.6032   -0.7883 H   0  0  0  0  0  0  0  0  0  0  0  0
    0.6485    0.4866    0.9820 H   0  0  0  0  0  0  0  0  0  0  0  0
    2.9497   -0.4093   -0.8426 H   0  0  0  0  0  0  0  0  0  0  0  0
    2.9468   -0.5272    0.9045 H   0  0  0  0  0  0  0  0  0  0  0  0
    2.7594    1.9804    1.0815 H   0  0  0  0  0  0  0  0  0  0  0  0
    2.7549    2.0902   -0.6887 H   0  0  0  0  0  0  0  0  0  0  0  0
    4.8123    0.9707    0.9214 H   0  0  0  0  0  0  0  0  0  0  0  0
  1  2  1  0  0  0  0
  1  5  1  0  0  0  0
  1  6  1  0  0  0  0
  1  7  1  0  0  0  0
  2  3  1  0  0  0  0
  2  8  1  0  0  0  0
  2  9  1  0  0  0  0
  3  4  1  0  0  0  0
  3 10  1  0  0  0  0
  3 11  1  0  0  0  0
  4 12  1  0  0  0  0
M  END
$$$$
