POP
 OpenBabel04121316173D

 11 10  0  0  0  0  0  0  0  0999 V2000
    2.7287    1.5616    0.8510 O   0  5  0  0  0  0  0  0  0  0  0  0
    1.7167    1.2433   -0.5156 P   0  0  1  0  0  0  0  0  0  0  0  0
    2.7363    0.5227   -1.4301 O   0  0  0  0  0  0  0  0  0  0  0  0
    0.9423    0.0987    0.4724 O   0  0  0  0  0  0  0  0  0  0  0  0
    0.9340    0.3449    2.1387 P   0  0  2  0  0  0  0  0  0  0  0  0
    2.2130    0.1984    2.9357 O   0  0  0  0  0  0  0  0  0  0  0  0
    0.4403   -1.0992    2.6832 O   0  0  0  0  0  0  0  0  0  0  0  0
   -0.1667    1.2913    2.6062 O   0  5  0  0  0  0  0  0  0  0  0  0
    0.7047    0.9250   -1.8821 O   0  0  0  0  0  0  0  0  0  0  0  0
    1.1853   -1.0965    3.3433 H   0  0  0  0  0  0  0  0  0  0  0  0
    1.4431    0.5681   -2.4270 H   0  0  0  0  0  0  0  0  0  0  0  0
  2  1  1  1  0  0  0
  2  3  2  0  0  0  0
  2  4  1  0  0  0  0
  2  9  1  0  0  0  0
  5  7  1  1  0  0  0
  5  8  1  0  0  0  0
  5  6  2  0  0  0  0
  5  4  1  0  0  0  0
  7 10  1  0  0  0  0
  9 11  1  0  0  0  0
M  CHG  2   1  -1   8  -1
M  END
$$$$
