POX
 OpenBabel04121316173D

 54 57  0  0  0  0  0  0  0  0999 V2000
    1.0411   -0.0823    0.2626 C   0  0  0  0  0  0  0  0  0  0  0  0
    2.4712   -0.0311    0.4148 O   0  0  0  0  0  0  0  0  0  0  0  0
    3.1216    0.3522   -0.7998 C   0  0  0  0  0  0  0  0  0  0  0  0
    4.6558    0.1830   -0.8802 C   0  0  0  0  0  0  0  0  0  0  0  0
    5.0760    0.1460   -2.2725 O   0  0  0  0  0  0  0  0  0  0  0  0
    6.4656    0.2955   -2.4815 N   0  0  0  0  0  0  0  0  0  0  0  0
    6.7088    0.6705   -3.7198 C   0  0  0  0  0  0  0  0  0  0  0  0
    8.0431    1.1921   -4.1064 C   0  0  0  0  0  0  0  0  0  0  0  0
    8.5369    2.5482   -4.2142 C   0  0  0  0  0  0  0  0  0  0  0  0
    9.8584    2.6942   -4.4347 N   0  0  0  0  0  0  0  0  0  0  0  0
   10.6071    1.5654   -4.5328 C   0  0  0  0  0  0  0  0  0  0  0  0
   10.1977    0.2796   -4.4670 N   0  0  0  0  0  0  0  0  0  0  0  0
    8.8968    0.0985   -4.2562 C   0  0  0  0  0  0  0  0  0  0  0  0
    8.3579   -1.2061   -4.3502 N   0  0  0  0  0  0  0  0  0  0  0  0
    7.8227    3.8238   -4.1157 N   0  0  0  0  0  0  0  0  0  0  0  0
    6.4829    4.1375   -3.8051 C   0  0  0  0  0  0  0  0  0  0  0  0
    5.8076    3.0667   -3.3605 C   0  0  0  0  0  0  0  0  0  0  0  0
    4.4789    2.8351   -3.1976 C   0  0  0  0  0  0  0  0  0  0  0  0
    3.6634    3.8650   -3.2644 C   0  0  0  0  0  0  0  0  0  0  0  0
    4.2301    5.1336   -3.4562 C   0  0  0  0  0  0  0  0  0  0  0  0
    5.6742    5.2656   -3.7562 C   0  0  0  0  0  0  0  0  0  0  0  0
    3.0910    5.9334   -3.2490 C   0  0  0  0  0  0  0  0  0  0  0  0
    1.9361    5.2546   -3.0394 N   0  0  0  0  0  0  0  0  0  0  0  0
    2.2915    3.9422   -3.1164 N   0  0  0  0  0  0  0  0  0  0  0  0
    1.2435    2.8418   -3.0115 C   0  0  0  0  0  0  0  0  0  0  0  0
    1.5278    1.3653   -3.4238 C   0  0  0  0  0  0  0  0  0  0  0  0
    2.5574    1.0245   -4.2956 C   0  0  0  0  0  0  0  0  0  0  0  0
    3.1453   -0.2547   -4.2774 C   0  0  0  0  0  0  0  0  0  0  0  0
    2.4946   -1.3306   -3.7124 C   0  0  0  0  0  0  0  0  0  0  0  0
    1.2583   -1.0831   -3.1412 C   0  0  0  0  0  0  0  0  0  0  0  0
    0.8012    0.2529   -2.9369 C   0  0  0  0  0  0  0  0  0  0  0  0
    0.6143   -2.1107   -2.5697 F   0  0  0  0  0  0  0  0  0  0  0  0
    0.5860   -0.3875    1.2067 H   0  0  0  0  0  0  0  0  0  0  0  0
    0.7305   -0.8318   -0.4735 H   0  0  0  0  0  0  0  0  0  0  0  0
    0.6377    0.8994   -0.0155 H   0  0  0  0  0  0  0  0  0  0  0  0
    2.8071    1.3695   -1.0638 H   0  0  0  0  0  0  0  0  0  0  0  0
    2.7667   -0.3368   -1.5351 H   0  0  0  0  0  0  0  0  0  0  0  0
    4.9092   -0.7944   -0.4825 H   0  0  0  0  0  0  0  0  0  0  0  0
    5.1235    0.9877   -0.3024 H   0  0  0  0  0  0  0  0  0  0  0  0
    5.9566    0.7277   -4.5266 H   0  0  0  0  0  0  0  0  0  0  0  0
   11.6704    1.7111   -4.7003 H   0  0  0  0  0  0  0  0  0  0  0  0
    9.0433   -1.9399   -4.2376 H   0  0  0  0  0  0  0  0  0  0  0  0
    7.5294   -1.3684   -3.7750 H   0  0  0  0  0  0  0  0  0  0  0  0
    8.4660    4.6033   -4.2256 H   0  0  0  0  0  0  0  0  0  0  0  0
    6.4502    2.4034   -2.8678 H   0  0  0  0  0  0  0  0  0  0  0  0
    4.1763    1.8379   -2.9735 H   0  0  0  0  0  0  0  0  0  0  0  0
    6.0959    6.2608   -3.8710 H   0  0  0  0  0  0  0  0  0  0  0  0
    3.0763    7.0119   -3.2512 H   0  0  0  0  0  0  0  0  0  0  0  0
    0.4293    3.1833   -3.6540 H   0  0  0  0  0  0  0  0  0  0  0  0
    0.9098    2.8828   -1.9607 H   0  0  0  0  0  0  0  0  0  0  0  0
    3.0693    1.8076   -4.8416 H   0  0  0  0  0  0  0  0  0  0  0  0
    4.1866   -0.3733   -4.5665 H   0  0  0  0  0  0  0  0  0  0  0  0
    2.9900   -2.2962   -3.6312 H   0  0  0  0  0  0  0  0  0  0  0  0
   -0.0531    0.3824   -2.2767 H   0  0  0  0  0  0  0  0  0  0  0  0
  1  2  1  0  0  0  0
  1 33  1  0  0  0  0
  1 34  1  0  0  0  0
  1 35  1  0  0  0  0
  2  3  1  0  0  0  0
  3  4  1  0  0  0  0
  3 36  1  0  0  0  0
  3 37  1  0  0  0  0
  4  5  1  0  0  0  0
  4 38  1  0  0  0  0
  4 39  1  0  0  0  0
  5  6  1  0  0  0  0
  6  7  2  0  0  0  0
  7  8  1  0  0  0  0
  7 40  1  0  0  0  0
  8  9  2  0  0  0  0
  8 13  1  0  0  0  0
  9 10  1  0  0  0  0
  9 15  1  0  0  0  0
 10 11  2  0  0  0  0
 11 12  1  0  0  0  0
 11 41  1  0  0  0  0
 12 13  2  0  0  0  0
 13 14  1  0  0  0  0
 14 42  1  0  0  0  0
 14 43  1  0  0  0  0
 15 16  1  0  0  0  0
 15 44  1  0  0  0  0
 16 17  2  0  0  0  0
 16 21  1  0  0  0  0
 17 18  1  0  0  0  0
 17 45  1  0  0  0  0
 18 19  2  0  0  0  0
 18 46  1  0  0  0  0
 19 20  1  0  0  0  0
 19 24  1  0  0  0  0
 20 21  2  0  0  0  0
 20 22  1  0  0  0  0
 21 47  1  0  0  0  0
 22 23  2  0  0  0  0
 22 48  1  0  0  0  0
 23 24  1  0  0  0  0
 24 25  1  0  0  0  0
 25 26  1  0  0  0  0
 25 49  1  0  0  0  0
 25 50  1  0  0  0  0
 26 27  2  0  0  0  0
 26 31  1  0  0  0  0
 27 28  1  0  0  0  0
 27 51  1  0  0  0  0
 28 29  2  0  0  0  0
 28 52  1  0  0  0  0
 29 30  1  0  0  0  0
 29 53  1  0  0  0  0
 30 31  2  0  0  0  0
 30 32  1  0  0  0  0
 31 54  1  0  0  0  0
M  END
$$$$
