PP2
 OpenBabel04121316173D

 38 40  0  0  0  0  0  0  0  0999 V2000
    0.8137   -0.1546    0.1152 Cl  0  0  0  0  0  0  0  0  0  0  0  0
    2.5272   -0.1267    0.0727 C   0  0  0  0  0  0  0  0  0  0  0  0
    3.1561    1.0848   -0.0469 C   0  0  0  0  0  0  0  0  0  0  0  0
    4.4823    1.0800   -0.4273 C   0  0  0  0  0  0  0  0  0  0  0  0
    5.2806   -0.0561   -0.3414 C   0  0  0  0  0  0  0  0  0  0  0  0
    4.6689   -1.2754   -0.1010 C   0  0  0  0  0  0  0  0  0  0  0  0
    3.2685   -1.3173    0.0096 C   0  0  0  0  0  0  0  0  0  0  0  0
    6.7428    0.1014   -0.6121 C   0  0  0  0  0  0  0  0  0  0  0  0
    7.6205   -1.0071   -0.8093 N   0  3  0  0  0  0  0  0  0  0  0  0
    7.3556   -1.9900   -0.7735 H   0  0  0  0  0  0  0  0  0  0  0  0
    8.8584   -0.5823   -1.1040 N   0  0  0  0  0  0  0  0  0  0  0  0
    8.8584    0.8255   -1.0975 C   0  0  0  0  0  0  0  0  0  0  0  0
    7.5354    1.3486   -0.7706 C   0  0  0  0  0  0  0  0  0  0  0  0
    7.3433    2.7513   -0.7197 C   0  0  0  0  0  0  0  0  0  0  0  0
    6.1978    3.4637   -0.4354 N   0  0  0  0  0  0  0  0  0  0  0  0
    8.4163    3.5126   -1.0219 N   0  0  0  0  0  0  0  0  0  0  0  0
    9.6105    2.9605   -1.3079 C   0  0  0  0  0  0  0  0  0  0  0  0
    9.9054    1.6592   -1.3608 N   0  0  0  0  0  0  0  0  0  0  0  0
    9.9686   -1.5282   -1.3712 C   0  0  0  0  0  0  0  0  0  0  0  0
   10.1653   -2.4131   -0.1305 C   0  0  0  0  0  0  0  0  0  0  0  0
    9.6033   -2.4077   -2.5778 C   0  0  0  0  0  0  0  0  0  0  0  0
   11.2808   -0.7957   -1.6717 C   0  0  0  0  0  0  0  0  0  0  0  0
    2.6238    2.0345   -0.0009 H   0  0  0  0  0  0  0  0  0  0  0  0
    4.8211    1.9456   -0.9563 H   0  0  0  0  0  0  0  0  0  0  0  0
    5.2117   -2.2193   -0.0626 H   0  0  0  0  0  0  0  0  0  0  0  0
    2.7476   -2.2675    0.0144 H   0  0  0  0  0  0  0  0  0  0  0  0
    5.6001    3.1646    0.3240 H   0  0  0  0  0  0  0  0  0  0  0  0
    6.3229    4.4704   -0.4910 H   0  0  0  0  0  0  0  0  0  0  0  0
   10.4182    3.6579   -1.5094 H   0  0  0  0  0  0  0  0  0  0  0  0
    9.2633   -2.9939    0.0936 H   0  0  0  0  0  0  0  0  0  0  0  0
   10.3801   -1.7997    0.7516 H   0  0  0  0  0  0  0  0  0  0  0  0
   10.9904   -3.1190   -0.2698 H   0  0  0  0  0  0  0  0  0  0  0  0
    8.6935   -2.9891   -2.3905 H   0  0  0  0  0  0  0  0  0  0  0  0
   10.4065   -3.1148   -2.8120 H   0  0  0  0  0  0  0  0  0  0  0  0
    9.4168   -1.7937   -3.4658 H   0  0  0  0  0  0  0  0  0  0  0  0
   11.5718   -0.1612   -0.8266 H   0  0  0  0  0  0  0  0  0  0  0  0
   11.1761   -0.1610   -2.5593 H   0  0  0  0  0  0  0  0  0  0  0  0
   12.1047   -1.4889   -1.8601 H   0  0  0  0  0  0  0  0  0  0  0  0
  1  2  1  0  0  0  0
  2  3  2  0  0  0  0
  2  7  1  0  0  0  0
  3  4  1  0  0  0  0
  3 23  1  0  0  0  0
  4  5  2  0  0  0  0
  4 24  1  0  0  0  0
  5  6  1  0  0  0  0
  5  8  1  0  0  0  0
  6  7  2  0  0  0  0
  6 25  1  0  0  0  0
  7 26  1  0  0  0  0
  8  9  2  0  0  0  0
  8 13  1  0  0  0  0
  9 10  1  0  0  0  0
  9 11  1  0  0  0  0
 11 12  1  0  0  0  0
 11 19  1  0  0  0  0
 12 13  2  0  0  0  0
 12 18  1  0  0  0  0
 13 14  1  0  0  0  0
 14 15  1  0  0  0  0
 14 16  2  0  0  0  0
 15 27  1  0  0  0  0
 15 28  1  0  0  0  0
 16 17  1  0  0  0  0
 17 18  2  0  0  0  0
 17 29  1  0  0  0  0
 19 20  1  0  0  0  0
 19 21  1  0  0  0  0
 19 22  1  0  0  0  0
 20 30  1  0  0  0  0
 20 31  1  0  0  0  0
 20 32  1  0  0  0  0
 21 33  1  0  0  0  0
 21 34  1  0  0  0  0
 21 35  1  0  0  0  0
 22 36  1  0  0  0  0
 22 37  1  0  0  0  0
 22 38  1  0  0  0  0
M  CHG  1   9   1
M  END
$$$$
