PP8
 OpenBabel04121316173D

 90 90  0  0  1  0  0  0  0  0999 V2000
   -1.7921   11.9161    4.8132 C   0  0  0  0  0  0  0  0  0  0  0  0
   -0.8422   10.8441    4.6581 O   0  0  0  0  0  0  0  0  0  0  0  0
    0.4829   11.0665    4.8430 C   0  0  0  0  0  0  0  0  0  0  0  0
    0.8955   11.7539    5.7468 O   0  0  0  0  0  0  0  0  0  0  0  0
    1.3804   10.2098    3.8367 C   0  0  1  0  0  0  0  0  0  0  0  0
    0.9945    9.1911    3.8291 H   0  0  0  0  0  0  0  0  0  0  0  0
    1.6164   10.5001    2.4613 O   0  0  0  0  0  0  0  0  0  0  0  0
    0.4222   10.9407    1.4139 P   0  0  2  0  0  0  0  0  0  0  0  0
   -0.3378   11.7278    2.5036 O   0  0  0  0  0  0  0  0  0  0  0  0
   -0.8645    9.4976    1.3727 C   0  0  1  0  0  0  0  0  0  0  0  0
   -1.2221    9.4475    0.3430 H   0  0  0  0  0  0  0  0  0  0  0  0
   -0.1050    8.3153    1.7030 N   0  0  0  0  0  0  0  0  0  0  0  0
    0.6913    7.6775    0.7832 C   0  0  0  0  0  0  0  0  0  0  0  0
    0.6320    7.9257   -0.4257 O   0  0  0  0  0  0  0  0  0  0  0  0
    1.4658    6.5014    1.3265 C   0  0  1  0  0  0  0  0  0  0  0  0
    1.8473    6.6806    2.3443 H   0  0  0  0  0  0  0  0  0  0  0  0
    0.4168    5.4908    1.3083 N   0  0  0  0  0  0  0  0  0  0  0  0
   -0.3309    5.3841    2.4461 C   0  0  0  0  0  0  0  0  0  0  0  0
   -0.1846    6.2376    3.3133 O   0  0  0  0  0  0  0  0  0  0  0  0
   -1.1842    4.0936    2.5285 C   0  0  2  0  0  0  0  0  0  0  0  0
   -0.6523    3.3741    1.8921 H   0  0  0  0  0  0  0  0  0  0  0  0
   -2.6580    4.0432    2.0204 C   0  0  0  0  0  0  0  0  0  0  0  0
   -3.6405    4.6602    2.9849 C   0  0  0  0  0  0  0  0  0  0  0  0
   -2.8446    4.6748    0.6405 C   0  0  0  0  0  0  0  0  0  0  0  0
   -1.0146    3.6007    3.8874 N   0  0  0  0  0  0  0  0  0  0  0  0
   -1.3923    4.3853    4.9575 C   0  0  0  0  0  0  0  0  0  0  0  0
   -1.8398    5.5207    4.8810 O   0  0  0  0  0  0  0  0  0  0  0  0
   -1.2765    3.7482    6.2937 C   0  0  0  0  0  0  0  0  0  0  0  0
   -2.1010    4.6011    7.2807 C   0  0  0  0  0  0  0  0  0  0  0  0
   -3.6068    4.5900    6.9596 C   0  0  0  0  0  0  0  0  0  0  0  0
   -1.8686    4.0927    8.6859 C   0  0  0  0  0  0  0  0  0  0  0  0
    2.5789    6.1364    0.3818 C   0  0  0  0  0  0  0  0  0  0  0  0
    3.2019    4.8415    0.8188 C   0  0  0  0  0  0  0  0  0  0  0  0
    2.8636    4.1842    1.7978 O   0  0  0  0  0  0  0  0  0  0  0  0
    4.1539    4.3738   -0.0264 N   0  0  0  0  0  0  0  0  0  0  0  0
   -2.0248    9.8586    2.2865 C   0  0  0  0  0  0  0  0  0  0  0  0
   -3.2052    8.9677    2.4148 C   0  0  0  0  0  0  0  0  0  0  0  0
   -2.6799    7.6712    2.8921 C   0  0  0  0  0  0  0  0  0  0  0  0
   -4.1575    9.4026    3.5341 C   0  0  0  0  0  0  0  0  0  0  0  0
    1.2736   10.0588    0.1931 O   0  0  0  0  0  0  0  0  0  0  0  0
    2.7354   10.1425    4.5773 C   0  0  0  0  0  0  0  0  0  0  0  0
    3.8098    9.3713    3.8645 C   0  0  0  0  0  0  0  0  0  0  0  0
    4.5769    9.9976    2.8743 C   0  0  0  0  0  0  0  0  0  0  0  0
    5.4369    9.2459    2.0823 C   0  0  0  0  0  0  0  0  0  0  0  0
    5.6317    7.8955    2.3637 C   0  0  0  0  0  0  0  0  0  0  0  0
    4.9693    7.2996    3.4365 C   0  0  0  0  0  0  0  0  0  0  0  0
    4.0168    8.0201    4.1500 C   0  0  0  0  0  0  0  0  0  0  0  0
   -2.4926   11.9202    3.9618 H   0  0  0  0  0  0  0  0  0  0  0  0
   -1.3388   12.9098    4.8374 H   0  0  0  0  0  0  0  0  0  0  0  0
   -2.3836   11.6822    5.6921 H   0  0  0  0  0  0  0  0  0  0  0  0
   -0.1434    7.9256    2.6492 H   0  0  0  0  0  0  0  0  0  0  0  0
    0.5775    4.6527    0.7750 H   0  0  0  0  0  0  0  0  0  0  0  0
   -2.9550    2.9903    1.9587 H   0  0  0  0  0  0  0  0  0  0  0  0
   -3.1602    5.5644    3.2410 H   0  0  0  0  0  0  0  0  0  0  0  0
   -3.7446    4.1273    3.9277 H   0  0  0  0  0  0  0  0  0  0  0  0
   -4.6303    4.9059    2.5966 H   0  0  0  0  0  0  0  0  0  0  0  0
   -2.5145    5.7164    0.6054 H   0  0  0  0  0  0  0  0  0  0  0  0
   -3.9038    4.6696    0.3548 H   0  0  0  0  0  0  0  0  0  0  0  0
   -2.2876    4.1174   -0.1153 H   0  0  0  0  0  0  0  0  0  0  0  0
   -0.3382    2.8654    4.0366 H   0  0  0  0  0  0  0  0  0  0  0  0
   -0.2136    3.7489    6.5576 H   0  0  0  0  0  0  0  0  0  0  0  0
   -1.6458    2.7202    6.2427 H   0  0  0  0  0  0  0  0  0  0  0  0
   -1.7567    5.6460    7.2401 H   0  0  0  0  0  0  0  0  0  0  0  0
   -4.0013    3.5700    6.9672 H   0  0  0  0  0  0  0  0  0  0  0  0
   -3.8410    5.0217    5.9820 H   0  0  0  0  0  0  0  0  0  0  0  0
   -4.1614    5.1906    7.6866 H   0  0  0  0  0  0  0  0  0  0  0  0
   -2.2100    3.0578    8.7733 H   0  0  0  0  0  0  0  0  0  0  0  0
   -2.4142    4.7087    9.4052 H   0  0  0  0  0  0  0  0  0  0  0  0
   -0.8034    4.1343    8.9309 H   0  0  0  0  0  0  0  0  0  0  0  0
    3.3313    6.9306    0.3452 H   0  0  0  0  0  0  0  0  0  0  0  0
    2.1729    5.9949   -0.6263 H   0  0  0  0  0  0  0  0  0  0  0  0
    4.4321    4.8653   -0.8641 H   0  0  0  0  0  0  0  0  0  0  0  0
    4.5821    3.4884    0.2046 H   0  0  0  0  0  0  0  0  0  0  0  0
   -2.3857   10.8700    2.0828 H   0  0  0  0  0  0  0  0  0  0  0  0
   -1.5975    9.7839    3.2636 H   0  0  0  0  0  0  0  0  0  0  0  0
   -3.7148    8.8504    1.4580 H   0  0  0  0  0  0  0  0  0  0  0  0
   -2.0646    7.7583    3.8009 H   0  0  0  0  0  0  0  0  0  0  0  0
   -2.1267    7.1758    2.1024 H   0  0  0  0  0  0  0  0  0  0  0  0
   -3.5825    7.1446    3.1342 H   0  0  0  0  0  0  0  0  0  0  0  0
   -3.6355    9.4588    4.5022 H   0  0  0  0  0  0  0  0  0  0  0  0
   -4.9442    8.6479    3.6602 H   0  0  0  0  0  0  0  0  0  0  0  0
   -4.6203   10.3634    3.3271 H   0  0  0  0  0  0  0  0  0  0  0  0
    0.7314    9.6734   -0.5305 H   0  0  0  0  0  0  0  0  0  0  0  0
    2.5533    9.6761    5.5546 H   0  0  0  0  0  0  0  0  0  0  0  0
    3.1150   11.1512    4.7851 H   0  0  0  0  0  0  0  0  0  0  0  0
    4.4683   11.0653    2.6927 H   0  0  0  0  0  0  0  0  0  0  0  0
    5.9465    9.7166    1.2468 H   0  0  0  0  0  0  0  0  0  0  0  0
    6.3054    7.3082    1.7485 H   0  0  0  0  0  0  0  0  0  0  0  0
    5.1787    6.2694    3.7088 H   0  0  0  0  0  0  0  0  0  0  0  0
    3.4328    7.5263    4.9236 H   0  0  0  0  0  0  0  0  0  0  0  0
  1  2  1  0  0  0  0
  1 48  1  0  0  0  0
  1 49  1  0  0  0  0
  1 50  1  0  0  0  0
  2  3  1  0  0  0  0
  3  4  2  0  0  0  0
  3  5  1  0  0  0  0
  5  6  1  1  0  0  0
  5  7  1  0  0  0  0
  5 41  1  0  0  0  0
  8 10  1  0  0  0  0
  8 40  1  6  0  0  0
  8  9  2  0  0  0  0
  8  7  1  0  0  0  0
 10 11  1  6  0  0  0
 10 12  1  0  0  0  0
 10 36  1  0  0  0  0
 12 13  1  0  0  0  0
 12 51  1  0  0  0  0
 13 14  2  0  0  0  0
 13 15  1  0  0  0  0
 15 16  1  1  0  0  0
 15 17  1  0  0  0  0
 15 32  1  0  0  0  0
 17 18  1  0  0  0  0
 17 52  1  0  0  0  0
 18 19  2  0  0  0  0
 20 22  1  0  0  0  0
 20 25  1  0  0  0  0
 20 21  1  6  0  0  0
 20 18  1  0  0  0  0
 22 23  1  0  0  0  0
 22 24  1  0  0  0  0
 22 53  1  0  0  0  0
 23 54  1  0  0  0  0
 23 55  1  0  0  0  0
 23 56  1  0  0  0  0
 24 57  1  0  0  0  0
 24 58  1  0  0  0  0
 24 59  1  0  0  0  0
 25 26  1  0  0  0  0
 25 60  1  0  0  0  0
 26 27  2  0  0  0  0
 26 28  1  0  0  0  0
 28 29  1  0  0  0  0
 28 61  1  0  0  0  0
 28 62  1  0  0  0  0
 29 30  1  0  0  0  0
 29 31  1  0  0  0  0
 29 63  1  0  0  0  0
 30 64  1  0  0  0  0
 30 65  1  0  0  0  0
 30 66  1  0  0  0  0
 31 67  1  0  0  0  0
 31 68  1  0  0  0  0
 31 69  1  0  0  0  0
 32 33  1  0  0  0  0
 32 70  1  0  0  0  0
 32 71  1  0  0  0  0
 33 34  2  0  0  0  0
 33 35  1  0  0  0  0
 35 72  1  0  0  0  0
 35 73  1  0  0  0  0
 36 37  1  0  0  0  0
 36 74  1  0  0  0  0
 36 75  1  0  0  0  0
 37 38  1  0  0  0  0
 37 39  1  0  0  0  0
 37 76  1  0  0  0  0
 38 77  1  0  0  0  0
 38 78  1  0  0  0  0
 38 79  1  0  0  0  0
 39 80  1  0  0  0  0
 39 81  1  0  0  0  0
 39 82  1  0  0  0  0
 40 83  1  0  0  0  0
 41 42  1  0  0  0  0
 41 84  1  0  0  0  0
 41 85  1  0  0  0  0
 42 43  2  0  0  0  0
 42 47  1  0  0  0  0
 43 44  1  0  0  0  0
 43 86  1  0  0  0  0
 44 45  2  0  0  0  0
 44 87  1  0  0  0  0
 45 46  1  0  0  0  0
 45 88  1  0  0  0  0
 46 47  2  0  0  0  0
 46 89  1  0  0  0  0
 47 90  1  0  0  0  0
M  END
$$$$
