PR9
 OpenBabel04121316173D

 18 18  0  0  1  0  0  0  0  0999 V2000
    0.9431    0.0022   -0.0037 N   0  0  0  0  0  0  0  0  0  0  0  0
    2.3043    0.0737    0.0553 C   0  0  0  0  0  0  0  0  0  0  0  0
    2.8444    1.0174    0.6209 O   0  0  0  0  0  0  0  0  0  0  0  0
    3.0711   -1.0422   -0.6688 C   0  0  1  0  0  0  0  0  0  0  0  0
    3.0545   -0.8305   -1.7450 H   0  0  0  0  0  0  0  0  0  0  0  0
    4.4954   -1.1413   -0.1559 C   0  0  0  0  0  0  0  0  0  0  0  0
    4.8887   -2.5550   -0.5056 C   0  0  0  0  0  0  0  0  0  0  0  0
    3.6001   -3.3375   -0.3223 C   0  0  0  0  0  0  0  0  0  0  0  0
    2.4755   -2.3878   -0.4412 N   0  0  0  0  0  0  0  0  0  0  0  0
    0.4157    0.7443    0.4367 H   0  0  0  0  0  0  0  0  0  0  0  0
    0.4659   -0.7292   -0.5130 H   0  0  0  0  0  0  0  0  0  0  0  0
    4.5327   -1.0039    0.9323 H   0  0  0  0  0  0  0  0  0  0  0  0
    5.1556   -0.3976   -0.6122 H   0  0  0  0  0  0  0  0  0  0  0  0
    5.6976   -2.9215    0.1343 H   0  0  0  0  0  0  0  0  0  0  0  0
    5.2246   -2.6071   -1.5478 H   0  0  0  0  0  0  0  0  0  0  0  0
    3.5823   -3.7975    0.6729 H   0  0  0  0  0  0  0  0  0  0  0  0
    3.5183   -4.1430   -1.0591 H   0  0  0  0  0  0  0  0  0  0  0  0
    1.9829   -2.3777    0.4538 H   0  0  0  0  0  0  0  0  0  0  0  0
  1  2  1  0  0  0  0
  1 10  1  0  0  0  0
  1 11  1  0  0  0  0
  2  3  2  0  0  0  0
  2  4  1  0  0  0  0
  4  5  1  6  0  0  0
  4  6  1  0  0  0  0
  4  9  1  0  0  0  0
  6  7  1  0  0  0  0
  6 12  1  0  0  0  0
  6 13  1  0  0  0  0
  7  8  1  0  0  0  0
  7 14  1  0  0  0  0
  7 15  1  0  0  0  0
  8  9  1  0  0  0  0
  8 16  1  0  0  0  0
  8 17  1  0  0  0  0
  9 18  1  0  0  0  0
M  END
$$$$
