PRF
 OpenBabel04121316173D

 22 23  0  0  0  0  0  0  0  0999 V2000
    1.0818   -0.0206    0.0131 N   0  0  0  0  0  0  0  0  0  0  0  0
    2.5371   -0.0418    0.0019 C   0  0  0  0  0  0  0  0  0  0  0  0
    2.9713   -0.8086    1.1977 C   0  0  0  0  0  0  0  0  0  0  0  0
    3.5456   -0.3241    2.3620 C   0  0  0  0  0  0  0  0  0  0  0  0
    3.7037   -1.3749    3.2404 N   0  0  0  0  0  0  0  0  0  0  0  0
    4.0674   -1.3057    4.1805 H   0  0  0  0  0  0  0  0  0  0  0  0
    3.2698   -2.5314    2.6487 C   0  0  0  0  0  0  0  0  0  0  0  0
    2.8417   -2.2091    1.3818 C   0  0  0  0  0  0  0  0  0  0  0  0
    2.3446   -3.2676    0.5455 C   0  0  0  0  0  0  0  0  0  0  0  0
    1.9875   -3.1431   -0.6235 O   0  0  0  0  0  0  0  0  0  0  0  0
    2.3430   -4.4903    1.1807 N   0  0  0  0  0  0  0  0  0  0  0  0
    2.0055   -5.2514    0.6201 H   0  0  0  0  0  0  0  0  0  0  0  0
    2.7920   -4.7035    2.4670 C   0  0  0  0  0  0  0  0  0  0  0  0
    3.2654   -3.7564    3.2352 N   0  0  0  0  0  0  0  0  0  0  0  0
    2.7143   -5.9852    2.8970 N   0  0  0  0  0  0  0  0  0  0  0  0
    0.7425    0.5003   -0.7889 H   0  0  0  0  0  0  0  0  0  0  0  0
    0.7583    0.4510    0.8535 H   0  0  0  0  0  0  0  0  0  0  0  0
    2.9244    0.9817    0.0319 H   0  0  0  0  0  0  0  0  0  0  0  0
    2.9075   -0.5152   -0.9132 H   0  0  0  0  0  0  0  0  0  0  0  0
    3.8291    0.6823    2.6422 H   0  0  0  0  0  0  0  0  0  0  0  0
    2.3421   -6.7369    2.3372 H   0  0  0  0  0  0  0  0  0  0  0  0
    3.0067   -6.1942    3.8422 H   0  0  0  0  0  0  0  0  0  0  0  0
  1  2  1  0  0  0  0
  1 16  1  0  0  0  0
  1 17  1  0  0  0  0
  2  3  1  0  0  0  0
  2 18  1  0  0  0  0
  2 19  1  0  0  0  0
  3  4  2  0  0  0  0
  3  8  1  0  0  0  0
  4  5  1  0  0  0  0
  4 20  1  0  0  0  0
  5  6  1  0  0  0  0
  5  7  1  0  0  0  0
  7  8  2  0  0  0  0
  7 14  1  0  0  0  0
  8  9  1  0  0  0  0
  9 10  2  0  0  0  0
  9 11  1  0  0  0  0
 11 12  1  0  0  0  0
 11 13  1  0  0  0  0
 13 14  2  0  0  0  0
 13 15  1  0  0  0  0
 15 21  1  0  0  0  0
 15 22  1  0  0  0  0
M  END
$$$$
