PRP
 OpenBabel04121316173D

 35 35  0  0  1  0  0  0  0  0999 V2000
    1.9338    2.8086   -1.0719 O   0  0  0  0  0  0  0  0  0  0  0  0
    1.9165    4.1065   -0.5621 C   0  0  1  0  0  0  0  0  0  0  0  0
    1.6016    4.7493   -1.3834 H   0  0  0  0  0  0  0  0  0  0  0  0
    1.0273    4.3207    0.6424 C   0  0  2  0  0  0  0  0  0  0  0  0
   -0.0391    4.4029    0.4004 H   0  0  0  0  0  0  0  0  0  0  0  0
    1.5182    5.6058    1.1191 O   0  0  0  0  0  0  0  0  0  0  0  0
    2.9605    5.6804    0.8798 C   0  0  1  0  0  0  0  0  0  0  0  0
    3.4442    5.5687    1.8566 H   0  0  0  0  0  0  0  0  0  0  0  0
    3.2917    4.4989   -0.0373 C   0  0  1  0  0  0  0  0  0  0  0  0
    3.9545    4.7348   -0.8723 H   0  0  0  0  0  0  0  0  0  0  0  0
    3.9123    3.4147    0.6758 O   0  0  0  0  0  0  0  0  0  0  0  0
    3.3866    7.0267    0.2374 C   0  0  0  0  0  0  0  0  0  0  0  0
    4.8046    7.1419    0.2091 O   0  0  0  0  0  0  0  0  0  0  0  0
    5.6481    7.7866   -1.0037 P   0  0  0  0  0  0  0  0  0  0  0  0
    6.9753    7.2034   -1.2444 O   0  0  0  0  0  0  0  0  0  0  0  0
    4.6492    7.7597   -2.2560 O   0  0  0  0  0  0  0  0  0  0  0  0
    5.7204    9.3551   -0.6867 O   0  0  0  0  0  0  0  0  0  0  0  0
    1.2668    3.2791    1.5698 O   0  0  0  0  0  0  0  0  0  0  0  0
    0.5909    1.8121    1.5505 P   0  0  2  0  0  0  0  0  0  0  0  0
    1.0812    0.9497    2.6560 O   0  0  0  0  0  0  0  0  0  0  0  0
    0.7356    1.1349    0.0699 O   0  0  0  0  0  0  0  0  0  0  0  0
    2.2891    0.3797   -0.0264 P   0  0  0  0  0  0  0  0  0  0  0  0
    1.6647   -1.0064    0.1326 O   0  0  0  0  0  0  0  0  0  0  0  0
    2.3264    0.6131   -1.6454 O   0  0  0  0  0  0  0  0  0  0  0  0
    3.8426   -0.3756   -0.1228 O   0  0  0  0  0  0  0  0  0  0  0  0
   -0.9755    2.1412    1.5448 O   0  0  0  0  0  0  0  0  0  0  0  0
    1.0206    2.4455   -0.9984 H   0  0  0  0  0  0  0  0  0  0  0  0
    3.4818    3.3037    1.5443 H   0  0  0  0  0  0  0  0  0  0  0  0
    2.9798    7.8655    0.8060 H   0  0  0  0  0  0  0  0  0  0  0  0
    2.9580    7.0829   -0.7677 H   0  0  0  0  0  0  0  0  0  0  0  0
    4.3144    6.8701   -2.4365 H   0  0  0  0  0  0  0  0  0  0  0  0
    6.5767    9.7036   -1.0091 H   0  0  0  0  0  0  0  0  0  0  0  0
    2.6184    1.5450   -1.7851 H   0  0  0  0  0  0  0  0  0  0  0  0
    3.6797   -1.2973    0.1648 H   0  0  0  0  0  0  0  0  0  0  0  0
   -1.4929    1.3926    1.1902 H   0  0  0  0  0  0  0  0  0  0  0  0
  1  2  1  0  0  0  0
  1 27  1  0  0  0  0
  2  3  1  6  0  0  0
  2  4  1  0  0  0  0
  2  9  1  0  0  0  0
  4  5  1  6  0  0  0
  4  6  1  0  0  0  0
  4 18  1  0  0  0  0
  6  7  1  0  0  0  0
  7  8  1  1  0  0  0
  7  9  1  0  0  0  0
  7 12  1  0  0  0  0
  9 11  1  0  0  0  0
  9 10  1  6  0  0  0
 11 28  1  0  0  0  0
 12 13  1  0  0  0  0
 12 29  1  0  0  0  0
 12 30  1  0  0  0  0
 13 14  1  0  0  0  0
 14 15  2  0  0  0  0
 14 16  1  0  0  0  0
 14 17  1  0  0  0  0
 16 31  1  0  0  0  0
 17 32  1  0  0  0  0
 19 21  1  6  0  0  0
 19 26  1  0  0  0  0
 19 20  2  0  0  0  0
 19 18  1  0  0  0  0
 21 22  1  0  0  0  0
 22 23  2  0  0  0  0
 22 24  1  0  0  0  0
 22 25  1  0  0  0  0
 24 33  1  0  0  0  0
 25 34  1  0  0  0  0
 26 35  1  0  0  0  0
M  END
$$$$
