PRX
 OpenBabel04121316173D

 46 48  0  0  1  0  0  0  0  0999 V2000
    8.1993    1.0923    0.7593 C   0  0  0  0  0  0  0  0  0  0  0  0
    8.1595   -0.4271    0.8009 C   0  0  0  0  0  0  0  0  0  0  0  0
    6.7095   -0.8847    0.8396 C   0  0  0  0  0  0  0  0  0  0  0  0
    6.6131   -2.2752    1.0633 O   0  0  0  0  0  0  0  0  0  0  0  0
    5.1641   -2.9298    0.8001 P   0  0  2  0  0  0  0  0  0  0  0  0
    4.3734   -2.3990   -0.3384 O   0  0  0  0  0  0  0  0  0  0  0  0
    4.4367   -2.8294    2.2384 O   0  0  0  0  0  0  0  0  0  0  0  0
    3.5319   -1.7478    2.3893 C   0  0  0  0  0  0  0  0  0  0  0  0
    2.7336   -1.7817    3.6999 C   0  0  1  0  0  0  0  0  0  0  0  0
    1.6733   -1.9396    3.4519 H   0  0  0  0  0  0  0  0  0  0  0  0
    3.1357   -2.8131    4.6209 O   0  0  0  0  0  0  0  0  0  0  0  0
    2.6408   -2.3936    5.9088 C   0  0  2  0  0  0  0  0  0  0  0  0
    1.5719   -2.6371    5.9893 H   0  0  0  0  0  0  0  0  0  0  0  0
    2.8486   -0.8664    5.9292 C   0  0  1  0  0  0  0  0  0  0  0  0
    3.8272   -0.5928    6.3305 H   0  0  0  0  0  0  0  0  0  0  0  0
    2.8926   -0.4660    4.4582 C   0  0  2  0  0  0  0  0  0  0  0  0
    3.8775   -0.0270    4.2605 H   0  0  0  0  0  0  0  0  0  0  0  0
    1.9256    0.4995    4.0786 O   0  0  0  0  0  0  0  0  0  0  0  0
    1.8745   -0.1342    6.6645 O   0  0  0  0  0  0  0  0  0  0  0  0
    3.3188   -3.1329    6.9647 N   0  0  0  0  0  0  0  0  0  0  0  0
    4.1971   -2.6306    7.8933 C   0  0  0  0  0  0  0  0  0  0  0  0
    4.5313   -3.5118    8.8072 N   0  0  0  0  0  0  0  0  0  0  0  0
    3.8494   -4.6513    8.4538 C   0  0  0  0  0  0  0  0  0  0  0  0
    3.0843   -4.4435    7.3146 C   0  0  0  0  0  0  0  0  0  0  0  0
    2.2794   -5.3410    6.7199 N   0  0  0  0  0  0  0  0  0  0  0  0
    2.3248   -6.5300    7.3640 C   0  0  0  0  0  0  0  0  0  0  0  0
    3.0186   -6.8660    8.4757 N   0  0  0  0  0  0  0  0  0  0  0  0
    3.7911   -5.9205    9.0513 C   0  0  0  0  0  0  0  0  0  0  0  0
    4.4746   -6.2244   10.2082 N   0  0  0  0  0  0  0  0  0  0  0  0
    5.4946   -4.4957    0.7480 O   0  0  0  0  0  0  0  0  0  0  0  0
    9.2282    1.4601    0.7533 H   0  0  0  0  0  0  0  0  0  0  0  0
    7.6906    1.5119    1.6343 H   0  0  0  0  0  0  0  0  0  0  0  0
    7.6917    1.4683   -0.1357 H   0  0  0  0  0  0  0  0  0  0  0  0
    8.7065   -0.8010    1.6739 H   0  0  0  0  0  0  0  0  0  0  0  0
    8.6636   -0.8438   -0.0799 H   0  0  0  0  0  0  0  0  0  0  0  0
    6.2301   -0.6306   -0.1110 H   0  0  0  0  0  0  0  0  0  0  0  0
    6.1829   -0.3728    1.6485 H   0  0  0  0  0  0  0  0  0  0  0  0
    2.8209   -1.7458    1.5559 H   0  0  0  0  0  0  0  0  0  0  0  0
    4.1004   -0.8182    2.3024 H   0  0  0  0  0  0  0  0  0  0  0  0
    1.9109    1.1674    4.7924 H   0  0  0  0  0  0  0  0  0  0  0  0
    1.8554   -0.4768    7.5773 H   0  0  0  0  0  0  0  0  0  0  0  0
    4.5666   -1.6152    7.8954 H   0  0  0  0  0  0  0  0  0  0  0  0
    1.7201   -7.3260    6.9371 H   0  0  0  0  0  0  0  0  0  0  0  0
    4.4531   -7.1729   10.5450 H   0  0  0  0  0  0  0  0  0  0  0  0
    5.1013   -5.5313   10.5936 H   0  0  0  0  0  0  0  0  0  0  0  0
    4.7481   -5.0218    1.0774 H   0  0  0  0  0  0  0  0  0  0  0  0
  1  2  1  0  0  0  0
  1 31  1  0  0  0  0
  1 32  1  0  0  0  0
  1 33  1  0  0  0  0
  2  3  1  0  0  0  0
  2 34  1  0  0  0  0
  2 35  1  0  0  0  0
  3  4  1  0  0  0  0
  3 36  1  0  0  0  0
  3 37  1  0  0  0  0
  5  7  1  1  0  0  0
  5 30  1  0  0  0  0
  5  6  2  0  0  0  0
  5  4  1  0  0  0  0
  7  8  1  0  0  0  0
  8  9  1  0  0  0  0
  8 38  1  0  0  0  0
  8 39  1  0  0  0  0
  9 10  1  6  0  0  0
  9 11  1  0  0  0  0
  9 16  1  0  0  0  0
 11 12  1  0  0  0  0
 12 14  1  0  0  0  0
 12 20  1  0  0  0  0
 12 13  1  1  0  0  0
 14 15  1  1  0  0  0
 14 16  1  0  0  0  0
 14 19  1  0  0  0  0
 16 17  1  6  0  0  0
 16 18  1  0  0  0  0
 18 40  1  0  0  0  0
 19 41  1  0  0  0  0
 20 21  1  0  0  0  0
 20 24  1  0  0  0  0
 21 22  2  0  0  0  0
 21 42  1  0  0  0  0
 22 23  1  0  0  0  0
 23 24  2  0  0  0  0
 23 28  1  0  0  0  0
 24 25  1  0  0  0  0
 25 26  2  0  0  0  0
 26 27  1  0  0  0  0
 26 43  1  0  0  0  0
 27 28  2  0  0  0  0
 28 29  1  0  0  0  0
 29 44  1  0  0  0  0
 29 45  1  0  0  0  0
 30 46  1  0  0  0  0
M  END
$$$$
