PSE
 OpenBabel04121316173D

 20 19  0  0  1  0  0  0  0  0999 V2000
    3.1526    2.6634   -1.5151 O   0  0  0  0  0  0  0  0  0  0  0  0
    2.3908    2.5344   -0.3236 C   0  0  0  0  0  0  0  0  0  0  0  0
    2.9103    1.3701    0.5391 C   0  0  2  0  0  0  0  0  0  0  0  0
    2.5578    0.4316    0.0972 H   0  0  0  0  0  0  0  0  0  0  0  0
    2.3647    1.4934    1.9579 C   0  0  0  0  0  0  0  0  0  0  0  0
    0.9320    1.5209    2.0495 O   0  0  0  0  0  0  0  0  0  0  0  0
    0.3553    1.6937    3.6714 P   0  0  0  0  0  0  0  0  0  0  0  0
    1.6963    1.3658    4.3257 O   0  0  0  0  0  0  0  0  0  0  0  0
    0.3097    3.3034    3.4451 O   0  0  0  0  0  0  0  0  0  0  0  0
   -0.2213    1.8665    5.2932 O   0  0  0  0  0  0  0  0  0  0  0  0
    4.3856    1.3144    0.5988 N   0  0  0  0  0  0  0  0  0  0  0  0
    2.8858    3.5021   -1.9447 H   0  0  0  0  0  0  0  0  0  0  0  0
    1.3498    2.3464   -0.6084 H   0  0  0  0  0  0  0  0  0  0  0  0
    2.4330    3.4808    0.2273 H   0  0  0  0  0  0  0  0  0  0  0  0
    2.7534    2.4145    2.4142 H   0  0  0  0  0  0  0  0  0  0  0  0
    2.7355    0.6269    2.5191 H   0  0  0  0  0  0  0  0  0  0  0  0
    0.1758    3.4989    2.5007 H   0  0  0  0  0  0  0  0  0  0  0  0
    0.3117    1.2421    5.8222 H   0  0  0  0  0  0  0  0  0  0  0  0
    4.6866    0.5911    1.2516 H   0  0  0  0  0  0  0  0  0  0  0  0
    4.7491    2.1979    0.9524 H   0  0  0  0  0  0  0  0  0  0  0  0
  1  2  1  0  0  0  0
  1 12  1  0  0  0  0
  2 13  1  0  0  0  0
  2 14  1  0  0  0  0
  3  5  1  0  0  0  0
  3 11  1  0  0  0  0
  3  4  1  6  0  0  0
  3  2  1  0  0  0  0
  5  6  1  0  0  0  0
  5 15  1  0  0  0  0
  5 16  1  0  0  0  0
  6  7  1  0  0  0  0
  7  8  2  0  0  0  0
  7  9  1  0  0  0  0
  7 10  1  0  0  0  0
  9 17  1  0  0  0  0
 10 18  1  0  0  0  0
 11 19  1  0  0  0  0
 11 20  1  0  0  0  0
M  END
$$$$
