PSQ
 OpenBabel04121316173D

 32 31  0  0  1  0  0  0  0  0999 V2000
    3.1716    3.5201   -0.8500 O   0  0  0  0  0  0  0  0  0  0  0  0
    2.7434    2.2381   -0.9634 C   0  0  0  0  0  0  0  0  0  0  0  0
    2.1626    1.8504   -1.9677 O   0  0  0  0  0  0  0  0  0  0  0  0
    3.1132    1.3196    0.2223 C   0  0  2  0  0  0  0  0  0  0  0  0
    2.5758    0.3741    0.0772 H   0  0  0  0  0  0  0  0  0  0  0  0
    2.7190    1.8927    1.5799 C   0  0  0  0  0  0  0  0  0  0  0  0
    1.2055    2.0928    1.6508 C   0  0  0  0  0  0  0  0  0  0  0  0
    0.7816    2.5351    3.0353 C   0  0  0  0  0  0  0  0  0  0  0  0
   -0.5861    3.1444    2.9619 N   0  0  0  0  0  0  0  0  0  0  0  0
   -1.0161    3.8995    4.5153 P   0  0  1  0  0  0  0  0  0  0  0  0
   -0.2151    2.9014    5.3441 O   0  0  0  0  0  0  0  0  0  0  0  0
   -0.0064    5.3198    4.0333 N   0  0  0  0  0  0  0  0  0  0  0  0
    0.4909    5.5472    2.4093 S   0  0  0  0  0  0  0  0  0  0  0  0
    1.7531    4.8702    2.1116 O   0  0  0  0  0  0  0  0  0  0  0  0
   -0.6052    5.5124    1.4888 O   0  0  0  0  0  0  0  0  0  0  0  0
    1.0577    7.0419    2.4232 O   0  0  0  0  0  0  0  0  0  0  0  0
   -1.4462    4.6547    6.0688 N   0  0  0  0  0  0  0  0  0  0  0  0
    4.5590    1.0358    0.2041 N   0  0  0  0  0  0  0  0  0  0  0  0
    2.8374    3.9477   -0.0365 H   0  0  0  0  0  0  0  0  0  0  0  0
    3.2497    2.8374    1.7580 H   0  0  0  0  0  0  0  0  0  0  0  0
    3.0301    1.2177    2.3877 H   0  0  0  0  0  0  0  0  0  0  0  0
    0.6843    1.1588    1.4225 H   0  0  0  0  0  0  0  0  0  0  0  0
    0.8947    2.8181    0.8893 H   0  0  0  0  0  0  0  0  0  0  0  0
    1.4907    3.2433    3.4817 H   0  0  0  0  0  0  0  0  0  0  0  0
    0.8421    1.6832    3.7195 H   0  0  0  0  0  0  0  0  0  0  0  0
   -1.2142    2.3516    2.8455 H   0  0  0  0  0  0  0  0  0  0  0  0
    0.7499    5.4373    4.6920 H   0  0  0  0  0  0  0  0  0  0  0  0
    2.0344    6.9201    2.4526 H   0  0  0  0  0  0  0  0  0  0  0  0
   -1.9875    3.9802    6.5972 H   0  0  0  0  0  0  0  0  0  0  0  0
   -2.0294    5.4642    5.8960 H   0  0  0  0  0  0  0  0  0  0  0  0
    4.8061    0.4414    0.9931 H   0  0  0  0  0  0  0  0  0  0  0  0
    5.0773    1.9068    0.3104 H   0  0  0  0  0  0  0  0  0  0  0  0
  1  2  1  0  0  0  0
  1 19  1  0  0  0  0
  2  3  2  0  0  0  0
  4  6  1  0  0  0  0
  4 18  1  0  0  0  0
  4  5  1  6  0  0  0
  4  2  1  0  0  0  0
  6  7  1  0  0  0  0
  6 20  1  0  0  0  0
  6 21  1  0  0  0  0
  7  8  1  0  0  0  0
  7 22  1  0  0  0  0
  7 23  1  0  0  0  0
  8  9  1  0  0  0  0
  8 24  1  0  0  0  0
  8 25  1  0  0  0  0
  9 26  1  0  0  0  0
 10  9  1  6  0  0  0
 10 11  2  0  0  0  0
 10 12  1  0  0  0  0
 10 17  1  0  0  0  0
 12 13  1  0  0  0  0
 12 27  1  0  0  0  0
 13 14  2  0  0  0  0
 13 15  2  0  0  0  0
 13 16  1  0  0  0  0
 16 28  1  0  0  0  0
 17 29  1  0  0  0  0
 17 30  1  0  0  0  0
 18 31  1  0  0  0  0
 18 32  1  0  0  0  0
M  END
$$$$
