PSV
 OpenBabel04121316173D

 24 24  0  0  1  0  0  0  0  0999 V2000
    1.0691    0.0266   -0.0716 O   0  0  0  0  0  0  0  0  0  0  0  0
    2.4934    0.0729   -0.0578 C   0  0  0  0  0  0  0  0  0  0  0  0
    3.0061    0.9606   -1.1922 C   0  0  1  0  0  0  0  0  0  0  0  0
    2.5097    0.6593   -2.1239 H   0  0  0  0  0  0  0  0  0  0  0  0
    2.7045    2.3545   -0.9558 O   0  0  0  0  0  0  0  0  0  0  0  0
    3.5979    3.0972   -1.7956 C   0  0  1  0  0  0  0  0  0  0  0  0
    4.9271    2.3136   -1.7485 C   0  0  1  0  0  0  0  0  0  0  0  0
    5.5802    2.6761   -0.9504 H   0  0  0  0  0  0  0  0  0  0  0  0
    4.5247    0.9002   -1.3262 C   0  0  2  0  0  0  0  0  0  0  0  0
    4.9805    0.6833   -0.3528 H   0  0  0  0  0  0  0  0  0  0  0  0
    4.9603   -0.1033   -2.2320 O   0  0  0  0  0  0  0  0  0  0  0  0
    5.6867    2.3443   -2.9546 O   0  0  0  0  0  0  0  0  0  0  0  0
    3.0524    3.1508   -3.1169 O   0  0  0  0  0  0  0  0  0  0  0  0
    3.7336    4.5642   -1.3175 C   0  0  0  0  0  0  0  0  0  0  0  0
    4.7716    4.7700   -0.3540 O   0  0  0  0  0  0  0  0  0  0  0  0
    0.7932   -0.5212    0.6866 H   0  0  0  0  0  0  0  0  0  0  0  0
    2.8608   -0.9516   -0.1780 H   0  0  0  0  0  0  0  0  0  0  0  0
    2.8100    0.4607    0.9157 H   0  0  0  0  0  0  0  0  0  0  0  0
    5.8459    0.1791   -2.5367 H   0  0  0  0  0  0  0  0  0  0  0  0
    5.6989    3.2706   -3.2668 H   0  0  0  0  0  0  0  0  0  0  0  0
    3.1604    2.2711   -3.5140 H   0  0  0  0  0  0  0  0  0  0  0  0
    3.9370    5.2316   -2.1640 H   0  0  0  0  0  0  0  0  0  0  0  0
    2.7988    4.9020   -0.8588 H   0  0  0  0  0  0  0  0  0  0  0  0
    5.6198    4.7566   -0.8259 H   0  0  0  0  0  0  0  0  0  0  0  0
  1  2  1  0  0  0  0
  1 16  1  0  0  0  0
  2  3  1  0  0  0  0
  2 17  1  0  0  0  0
  2 18  1  0  0  0  0
  3  4  1  6  0  0  0
  3  5  1  0  0  0  0
  3  9  1  0  0  0  0
  5  6  1  0  0  0  0
  6  7  1  0  0  0  0
  6 14  1  1  0  0  0
  6 13  1  0  0  0  0
  7  8  1  1  0  0  0
  7  9  1  0  0  0  0
  7 12  1  0  0  0  0
  9 10  1  1  0  0  0
  9 11  1  0  0  0  0
 11 19  1  0  0  0  0
 12 20  1  0  0  0  0
 13 21  1  0  0  0  0
 14 15  1  0  0  0  0
 14 22  1  0  0  0  0
 14 23  1  0  0  0  0
 15 24  1  0  0  0  0
M  END
$$$$
