PTI
 OpenBabel04121316173D

 64 68  0  0  1  0  0  0  0  0999 V2000
    1.0040   -0.1283    0.0086 O   0  0  0  0  0  0  0  0  0  0  0  0
    2.3654   -0.0784   -0.0257 C   0  0  0  0  0  0  0  0  0  0  0  0
    3.0253    1.1371   -0.1070 C   0  0  0  0  0  0  0  0  0  0  0  0
    4.4113    1.1413   -0.1441 C   0  0  0  0  0  0  0  0  0  0  0  0
    5.1536   -0.0580   -0.0484 C   0  0  0  0  0  0  0  0  0  0  0  0
    4.4698   -1.2837    0.0031 C   0  0  0  0  0  0  0  0  0  0  0  0
    3.0684   -1.2805    0.0233 C   0  0  0  0  0  0  0  0  0  0  0  0
    5.2305   -2.5841    0.1049 C   0  0  0  0  0  0  0  0  0  0  0  0
    6.7029   -2.4227   -0.2903 C   0  0  0  0  0  0  0  0  0  0  0  0
    7.2950   -1.2957    0.4621 N   0  0  0  0  0  0  0  0  0  0  0  0
    6.6842    0.0117    0.0060 C   0  0  2  0  0  0  0  0  0  0  0  0
    7.0119    0.1473   -1.0354 H   0  0  0  0  0  0  0  0  0  0  0  0
    7.0996    1.2467    0.7865 C   0  0  0  0  0  0  0  0  0  0  0  0
    7.9044    2.2076    0.1467 C   0  0  0  0  0  0  0  0  0  0  0  0
    8.6717    3.0732    0.9081 C   0  0  0  0  0  0  0  0  0  0  0  0
    8.5672    3.0511    2.2889 C   0  0  0  0  0  0  0  0  0  0  0  0
    7.5743    2.2537    2.9146 C   0  0  0  0  0  0  0  0  0  0  0  0
    6.8374    1.3450    2.1623 C   0  0  0  0  0  0  0  0  0  0  0  0
    9.5793    3.7786    2.9046 O   0  0  0  0  0  0  0  0  0  0  0  0
    9.3818    3.7534    4.2957 C   0  0  0  0  0  0  0  0  0  0  0  0
   10.3157    4.5172    5.2189 C   0  0  0  0  0  0  0  0  0  0  0  0
    9.9748    4.4079    6.6607 N   0  0  0  0  0  0  0  0  0  0  0  0
    8.6308    4.8993    7.0016 C   0  0  0  0  0  0  0  0  0  0  0  0
    7.4758    3.9420    6.6817 C   0  0  0  0  0  0  0  0  0  0  0  0
    7.7405    2.5135    7.1477 C   0  0  0  0  0  0  0  0  0  0  0  0
    9.1752    2.0136    6.9662 C   0  0  0  0  0  0  0  0  0  0  0  0
   10.2146    3.0940    7.2764 C   0  0  0  0  0  0  0  0  0  0  0  0
    8.3518   -1.5095    1.3480 C   0  0  0  0  0  0  0  0  0  0  0  0
    9.1779   -0.4806    1.8349 C   0  0  0  0  0  0  0  0  0  0  0  0
   10.1725   -0.6077    2.8142 C   0  0  0  0  0  0  0  0  0  0  0  0
   10.4734   -1.8439    3.2970 C   0  0  0  0  0  0  0  0  0  0  0  0
    9.7328   -2.9297    2.8327 C   0  0  0  0  0  0  0  0  0  0  0  0
    8.6975   -2.7543    1.8778 C   0  0  0  0  0  0  0  0  0  0  0  0
    0.6691    0.7824   -0.0405 H   0  0  0  0  0  0  0  0  0  0  0  0
    2.4982    2.0849   -0.1254 H   0  0  0  0  0  0  0  0  0  0  0  0
    4.9170    2.1047   -0.1962 H   0  0  0  0  0  0  0  0  0  0  0  0
    2.5170   -2.2138    0.0917 H   0  0  0  0  0  0  0  0  0  0  0  0
    4.7657   -3.3307   -0.5507 H   0  0  0  0  0  0  0  0  0  0  0  0
    5.1648   -2.9481    1.1368 H   0  0  0  0  0  0  0  0  0  0  0  0
    6.7663   -2.2013   -1.3665 H   0  0  0  0  0  0  0  0  0  0  0  0
    7.2263   -3.3754   -0.1770 H   0  0  0  0  0  0  0  0  0  0  0  0
    8.0615    2.1766   -0.9264 H   0  0  0  0  0  0  0  0  0  0  0  0
    9.4428    3.6792    0.4465 H   0  0  0  0  0  0  0  0  0  0  0  0
    7.4336    2.1904    3.9909 H   0  0  0  0  0  0  0  0  0  0  0  0
    6.2270    0.5870    2.6593 H   0  0  0  0  0  0  0  0  0  0  0  0
    9.4238    2.7108    4.5742 H   0  0  0  0  0  0  0  0  0  0  0  0
    8.4176    4.2261    4.3973 H   0  0  0  0  0  0  0  0  0  0  0  0
   10.2778    5.5752    4.9314 H   0  0  0  0  0  0  0  0  0  0  0  0
   11.3556    4.2165    5.0486 H   0  0  0  0  0  0  0  0  0  0  0  0
    8.4605    5.8784    6.5366 H   0  0  0  0  0  0  0  0  0  0  0  0
    8.6053    5.0907    8.0829 H   0  0  0  0  0  0  0  0  0  0  0  0
    7.2141    3.9207    5.6274 H   0  0  0  0  0  0  0  0  0  0  0  0
    6.5511    4.3261    7.1251 H   0  0  0  0  0  0  0  0  0  0  0  0
    7.0518    1.8348    6.6305 H   0  0  0  0  0  0  0  0  0  0  0  0
    7.5012    2.4691    8.2132 H   0  0  0  0  0  0  0  0  0  0  0  0
    9.3258    1.5863    5.9739 H   0  0  0  0  0  0  0  0  0  0  0  0
    9.3354    1.1464    7.6172 H   0  0  0  0  0  0  0  0  0  0  0  0
   11.2237    2.7364    7.0383 H   0  0  0  0  0  0  0  0  0  0  0  0
   10.2138    3.2299    8.3674 H   0  0  0  0  0  0  0  0  0  0  0  0
    9.1103    0.5144    1.4700 H   0  0  0  0  0  0  0  0  0  0  0  0
   10.6903    0.2932    3.1481 H   0  0  0  0  0  0  0  0  0  0  0  0
   11.2845   -1.9676    4.0095 H   0  0  0  0  0  0  0  0  0  0  0  0
    9.9488   -3.9166    3.2186 H   0  0  0  0  0  0  0  0  0  0  0  0
    8.1756   -3.6605    1.5824 H   0  0  0  0  0  0  0  0  0  0  0  0
  1  2  1  0  0  0  0
  1 34  1  0  0  0  0
  2  3  2  0  0  0  0
  2  7  1  0  0  0  0
  3  4  1  0  0  0  0
  3 35  1  0  0  0  0
  4  5  2  0  0  0  0
  4 36  1  0  0  0  0
  5  6  1  0  0  0  0
  5 11  1  0  0  0  0
  6  7  2  0  0  0  0
  6  8  1  0  0  0  0
  7 37  1  0  0  0  0
  8  9  1  0  0  0  0
  8 38  1  0  0  0  0
  8 39  1  0  0  0  0
  9 10  1  0  0  0  0
  9 40  1  0  0  0  0
  9 41  1  0  0  0  0
 10 11  1  0  0  0  0
 10 28  1  0  0  0  0
 11 13  1  0  0  0  0
 11 12  1  6  0  0  0
 13 14  2  0  0  0  0
 13 18  1  0  0  0  0
 14 15  1  0  0  0  0
 14 42  1  0  0  0  0
 15 16  2  0  0  0  0
 15 43  1  0  0  0  0
 16 17  1  0  0  0  0
 16 19  1  0  0  0  0
 17 18  2  0  0  0  0
 17 44  1  0  0  0  0
 18 45  1  0  0  0  0
 19 20  1  0  0  0  0
 20 21  1  0  0  0  0
 20 46  1  0  0  0  0
 20 47  1  0  0  0  0
 21 22  1  0  0  0  0
 21 48  1  0  0  0  0
 21 49  1  0  0  0  0
 22 23  1  0  0  0  0
 22 27  1  0  0  0  0
 23 24  1  0  0  0  0
 23 50  1  0  0  0  0
 23 51  1  0  0  0  0
 24 25  1  0  0  0  0
 24 52  1  0  0  0  0
 24 53  1  0  0  0  0
 25 26  1  0  0  0  0
 25 54  1  0  0  0  0
 25 55  1  0  0  0  0
 26 27  1  0  0  0  0
 26 56  1  0  0  0  0
 26 57  1  0  0  0  0
 27 58  1  0  0  0  0
 27 59  1  0  0  0  0
 28 29  2  0  0  0  0
 28 33  1  0  0  0  0
 29 30  1  0  0  0  0
 29 60  1  0  0  0  0
 30 31  2  0  0  0  0
 30 61  1  0  0  0  0
 31 32  1  0  0  0  0
 31 62  1  0  0  0  0
 32 33  2  0  0  0  0
 32 63  1  0  0  0  0
 33 64  1  0  0  0  0
M  END
$$$$
