PTR
 OpenBabel04121316173D

 29 29  0  0  1  0  0  0  0  0999 V2000
    3.8372   -0.4773    3.4603 O   0  0  0  0  0  0  0  0  0  0  0  0
    2.8776   -0.1446    2.5730 C   0  0  0  0  0  0  0  0  0  0  0  0
    1.8380    0.3766    2.9794 O   0  0  0  0  0  0  0  0  0  0  0  0
    3.1697   -0.6909    1.1605 C   0  0  2  0  0  0  0  0  0  0  0  0
    2.6523   -0.0812    0.4096 H   0  0  0  0  0  0  0  0  0  0  0  0
    2.7148   -2.1768    1.0961 C   0  0  0  0  0  0  0  0  0  0  0  0
    1.2183   -2.3743    1.2429 C   0  0  0  0  0  0  0  0  0  0  0  0
    0.6236   -3.6342    1.3844 C   0  0  0  0  0  0  0  0  0  0  0  0
   -0.7817   -3.7515    1.3172 C   0  0  0  0  0  0  0  0  0  0  0  0
   -1.5839   -2.6040    1.2195 C   0  0  0  0  0  0  0  0  0  0  0  0
   -0.9943   -1.3625    1.2277 C   0  0  0  0  0  0  0  0  0  0  0  0
    0.3733   -1.2650    1.1639 C   0  0  0  0  0  0  0  0  0  0  0  0
   -2.9352   -2.6853    1.0384 O   0  0  0  0  0  0  0  0  0  0  0  0
   -4.0271   -1.7509    1.7751 P   0  0  0  0  0  0  0  0  0  0  0  0
   -5.2326   -2.4832    2.2537 O   0  0  0  0  0  0  0  0  0  0  0  0
   -3.2616   -0.9208    2.9088 O   0  0  0  0  0  0  0  0  0  0  0  0
   -4.4086   -0.5866    0.7384 O   0  0  0  0  0  0  0  0  0  0  0  0
    4.6082   -0.5431    0.8641 N   0  0  0  0  0  0  0  0  0  0  0  0
    3.3935   -0.3597    4.3248 H   0  0  0  0  0  0  0  0  0  0  0  0
    3.2411   -2.7594    1.8641 H   0  0  0  0  0  0  0  0  0  0  0  0
    2.9990   -2.5913    0.1189 H   0  0  0  0  0  0  0  0  0  0  0  0
    1.2381   -4.5285    1.4986 H   0  0  0  0  0  0  0  0  0  0  0  0
   -1.2283   -4.7443    1.3250 H   0  0  0  0  0  0  0  0  0  0  0  0
   -1.5570   -0.4360    1.2311 H   0  0  0  0  0  0  0  0  0  0  0  0
    0.7327   -0.2527    1.0358 H   0  0  0  0  0  0  0  0  0  0  0  0
   -2.4698   -1.3826    3.2407 H   0  0  0  0  0  0  0  0  0  0  0  0
   -5.3576   -0.3683    0.8458 H   0  0  0  0  0  0  0  0  0  0  0  0
    4.8256   -0.9984   -0.0185 H   0  0  0  0  0  0  0  0  0  0  0  0
    5.1195   -1.0302    1.6015 H   0  0  0  0  0  0  0  0  0  0  0  0
  1  2  1  0  0  0  0
  1 19  1  0  0  0  0
  2  3  2  0  0  0  0
  4  6  1  0  0  0  0
  4 18  1  0  0  0  0
  4  5  1  6  0  0  0
  4  2  1  0  0  0  0
  6  7  1  0  0  0  0
  6 20  1  0  0  0  0
  6 21  1  0  0  0  0
  7  8  2  0  0  0  0
  7 12  1  0  0  0  0
  8  9  1  0  0  0  0
  8 22  1  0  0  0  0
  9 10  2  0  0  0  0
  9 23  1  0  0  0  0
 10 11  1  0  0  0  0
 10 13  1  0  0  0  0
 11 12  2  0  0  0  0
 11 24  1  0  0  0  0
 12 25  1  0  0  0  0
 13 14  1  0  0  0  0
 14 15  2  0  0  0  0
 14 16  1  0  0  0  0
 14 17  1  0  0  0  0
 16 26  1  0  0  0  0
 17 27  1  0  0  0  0
 18 28  1  0  0  0  0
 18 29  1  0  0  0  0
M  END
$$$$
