PU1
 OpenBabel04121316173D

 51 53  0  0  0  0  0  0  0  0999 V2000
    0.9451   -0.0533    0.0644 C   0  0  0  0  0  0  0  0  0  0  0  0
    2.1353   -0.0533    0.0644 C   0  0  0  0  0  0  0  0  0  0  0  0
    3.5793   -0.0533    0.0644 C   0  0  0  0  0  0  0  0  0  0  0  0
    4.1038   -0.5566    1.4524 C   0  0  0  0  0  0  0  0  0  0  0  0
    5.6375   -0.5906    1.6293 C   0  0  0  0  0  0  0  0  0  0  0  0
    6.0943   -1.0855    2.9383 N   0  0  0  0  0  0  0  0  0  0  0  0
    6.1539   -2.4248    3.3456 C   0  0  0  0  0  0  0  0  0  0  0  0
    5.6424   -3.6980    2.7147 C   0  0  0  0  0  0  0  0  0  0  0  0
    5.6916   -4.9572    3.6485 C   0  0  0  0  0  0  0  0  0  0  0  0
    5.7720   -4.8533    5.0559 C   0  0  0  0  0  0  0  0  0  0  0  0
    5.8913   -5.9337    5.9288 C   0  0  0  0  0  0  0  0  0  0  0  0
    6.0808   -5.5310    7.2307 O   0  0  0  0  0  0  0  0  0  0  0  0
    6.1475   -6.5208    8.2481 C   0  0  0  0  0  0  0  0  0  0  0  0
    5.7973   -7.2229    5.4104 C   0  0  0  0  0  0  0  0  0  0  0  0
    5.6381   -7.3993    4.0049 C   0  0  0  0  0  0  0  0  0  0  0  0
    5.6073   -6.2644    3.1332 C   0  0  0  0  0  0  0  0  0  0  0  0
    5.4243   -6.3806    1.4047 Cl  0  0  0  0  0  0  0  0  0  0  0  0
    5.5195   -8.7145    3.6538 O   0  0  0  0  0  0  0  0  0  0  0  0
    5.3338   -9.1444    2.3293 C   0  0  0  0  0  0  0  0  0  0  0  0
    5.8450   -8.2091    6.3581 O   0  0  0  0  0  0  0  0  0  0  0  0
    5.6919   -9.5754    6.0451 C   0  0  0  0  0  0  0  0  0  0  0  0
    6.8033   -2.5063    4.4833 N   0  0  0  0  0  0  0  0  0  0  0  0
    6.9402   -1.2753    4.9636 C   0  0  0  0  0  0  0  0  0  0  0  0
    6.6373   -0.3307    3.9983 C   0  0  0  0  0  0  0  0  0  0  0  0
    6.8522    0.9876    4.1644 N   0  0  0  0  0  0  0  0  0  0  0  0
    7.3598    1.2520    5.4216 C   0  0  0  0  0  0  0  0  0  0  0  0
    7.6776    2.5297    5.6801 F   0  0  0  0  0  0  0  0  0  0  0  0
    7.5870    0.4031    6.4583 N   0  0  0  0  0  0  0  0  0  0  0  0
    7.3631   -0.8933    6.2410 C   0  0  0  0  0  0  0  0  0  0  0  0
    7.5392   -1.8360    7.2369 N   0  0  0  0  0  0  0  0  0  0  0  0
   -0.1209   -0.0516    0.0646 H   0  0  0  0  0  0  0  0  0  0  0  0
    3.9637    0.9566   -0.1157 H   0  0  0  0  0  0  0  0  0  0  0  0
    3.9703   -0.6993   -0.7289 H   0  0  0  0  0  0  0  0  0  0  0  0
    3.7078   -1.5657    1.6219 H   0  0  0  0  0  0  0  0  0  0  0  0
    3.6792    0.0718    2.2459 H   0  0  0  0  0  0  0  0  0  0  0  0
    6.0636    0.4086    1.4790 H   0  0  0  0  0  0  0  0  0  0  0  0
    6.0842   -1.2494    0.8737 H   0  0  0  0  0  0  0  0  0  0  0  0
    6.2833   -3.8795    1.8426 H   0  0  0  0  0  0  0  0  0  0  0  0
    4.6058   -3.5848    2.3827 H   0  0  0  0  0  0  0  0  0  0  0  0
    5.7522   -3.8958    5.5617 H   0  0  0  0  0  0  0  0  0  0  0  0
    6.2924   -6.0234    9.2111 H   0  0  0  0  0  0  0  0  0  0  0  0
    7.0081   -7.1827    8.1016 H   0  0  0  0  0  0  0  0  0  0  0  0
    5.2015   -7.0683    8.3119 H   0  0  0  0  0  0  0  0  0  0  0  0
    5.2540  -10.2343    2.3445 H   0  0  0  0  0  0  0  0  0  0  0  0
    6.2094   -8.8954    1.7266 H   0  0  0  0  0  0  0  0  0  0  0  0
    4.3925   -8.7616    1.9290 H   0  0  0  0  0  0  0  0  0  0  0  0
    5.7442  -10.1348    6.9837 H   0  0  0  0  0  0  0  0  0  0  0  0
    6.5185   -9.9186    5.4183 H   0  0  0  0  0  0  0  0  0  0  0  0
    4.7076   -9.7690    5.6100 H   0  0  0  0  0  0  0  0  0  0  0  0
    7.8480   -1.5619    8.1540 H   0  0  0  0  0  0  0  0  0  0  0  0
    7.3079   -2.8032    7.0336 H   0  0  0  0  0  0  0  0  0  0  0  0
  1  2  3  0  0  0  0
  1 31  1  0  0  0  0
  2  3  1  0  0  0  0
  3  4  1  0  0  0  0
  3 32  1  0  0  0  0
  3 33  1  0  0  0  0
  4  5  1  0  0  0  0
  4 34  1  0  0  0  0
  4 35  1  0  0  0  0
  5  6  1  0  0  0  0
  5 36  1  0  0  0  0
  5 37  1  0  0  0  0
  6  7  1  0  0  0  0
  6 24  1  0  0  0  0
  7  8  1  0  0  0  0
  7 22  2  0  0  0  0
  8  9  1  0  0  0  0
  8 38  1  0  0  0  0
  8 39  1  0  0  0  0
  9 10  2  0  0  0  0
  9 16  1  0  0  0  0
 10 11  1  0  0  0  0
 10 40  1  0  0  0  0
 11 12  1  0  0  0  0
 11 14  2  0  0  0  0
 12 13  1  0  0  0  0
 13 41  1  0  0  0  0
 13 42  1  0  0  0  0
 13 43  1  0  0  0  0
 14 15  1  0  0  0  0
 14 20  1  0  0  0  0
 15 16  2  0  0  0  0
 15 18  1  0  0  0  0
 16 17  1  0  0  0  0
 18 19  1  0  0  0  0
 19 44  1  0  0  0  0
 19 45  1  0  0  0  0
 19 46  1  0  0  0  0
 20 21  1  0  0  0  0
 21 47  1  0  0  0  0
 21 48  1  0  0  0  0
 21 49  1  0  0  0  0
 22 23  1  0  0  0  0
 23 24  2  0  0  0  0
 23 29  1  0  0  0  0
 24 25  1  0  0  0  0
 25 26  2  0  0  0  0
 26 27  1  0  0  0  0
 26 28  1  0  0  0  0
 28 29  2  0  0  0  0
 29 30  1  0  0  0  0
 30 50  1  0  0  0  0
 30 51  1  0  0  0  0
M  END
$$$$
