PU4
 OpenBabel04121316173D

 44 46  0  0  0  0  0  0  0  0999 V2000
    0.8499    0.0064    0.0152 C   0  0  0  0  0  0  0  0  0  0  0  0
    2.3406   -0.1199   -0.0570 C   0  0  0  0  0  0  0  0  0  0  0  0
    2.6797   -1.3003   -0.9748 C   0  0  0  0  0  0  0  0  0  0  0  0
    4.1691   -1.3514   -1.0515 C   0  0  0  0  0  0  0  0  0  0  0  0
    4.8339   -2.2140   -1.9652 N   0  0  0  0  0  0  0  0  0  0  0  0
    5.6532   -1.9290   -3.0547 C   0  0  0  0  0  0  0  0  0  0  0  0
    6.2434   -0.5735   -3.5173 C   0  0  0  0  0  0  0  0  0  0  0  0
    6.2728    0.6390   -2.5970 C   0  0  0  0  0  0  0  0  0  0  0  0
    6.1059    0.5440   -1.2315 C   0  0  0  0  0  0  0  0  0  0  0  0
    5.4191    1.5451   -0.5618 C   0  0  0  0  0  0  0  0  0  0  0  0
    5.6016    2.8229   -0.9930 C   0  0  0  0  0  0  0  0  0  0  0  0
    6.3965    2.9973   -2.1222 C   0  0  0  0  0  0  0  0  0  0  0  0
    6.6064    1.9205   -3.0033 C   0  0  0  0  0  0  0  0  0  0  0  0
    5.0804    3.7624   -0.1606 O   0  0  0  0  0  0  0  0  0  0  0  0
    5.6506    5.0410   -0.3424 C   0  0  0  0  0  0  0  0  0  0  0  0
    5.8563   -3.0626   -3.7271 N   0  0  0  0  0  0  0  0  0  0  0  0
    5.2839   -4.0705   -2.9584 C   0  0  0  0  0  0  0  0  0  0  0  0
    4.7510   -3.5626   -1.8200 C   0  0  0  0  0  0  0  0  0  0  0  0
    4.1550   -4.2095   -0.7938 N   0  0  0  0  0  0  0  0  0  0  0  0
    4.0861   -5.5181   -1.0540 C   0  0  0  0  0  0  0  0  0  0  0  0
    4.5203   -6.1698   -2.1499 N   0  0  0  0  0  0  0  0  0  0  0  0
    5.1380   -5.4587   -3.1328 C   0  0  0  0  0  0  0  0  0  0  0  0
    5.5677   -6.1143   -4.2517 N   0  0  0  0  0  0  0  0  0  0  0  0
    0.5682    0.8041    0.7032 H   0  0  0  0  0  0  0  0  0  0  0  0
    0.4198   -0.9410    0.3453 H   0  0  0  0  0  0  0  0  0  0  0  0
    0.4719    0.2454   -0.9833 H   0  0  0  0  0  0  0  0  0  0  0  0
    2.7903   -0.2425    0.9383 H   0  0  0  0  0  0  0  0  0  0  0  0
    2.7333    0.8222   -0.4633 H   0  0  0  0  0  0  0  0  0  0  0  0
    2.3115   -1.0868   -1.9852 H   0  0  0  0  0  0  0  0  0  0  0  0
    2.2463   -2.2393   -0.6330 H   0  0  0  0  0  0  0  0  0  0  0  0
    4.6386   -1.4512   -0.0593 H   0  0  0  0  0  0  0  0  0  0  0  0
    4.2807   -0.3892   -1.4988 H   0  0  0  0  0  0  0  0  0  0  0  0
    5.7062   -0.3157   -4.4464 H   0  0  0  0  0  0  0  0  0  0  0  0
    7.2841   -0.7596   -3.8016 H   0  0  0  0  0  0  0  0  0  0  0  0
    6.2650   -0.4015   -0.7399 H   0  0  0  0  0  0  0  0  0  0  0  0
    4.8261    1.3423    0.3263 H   0  0  0  0  0  0  0  0  0  0  0  0
    6.8894    3.9394   -2.3183 H   0  0  0  0  0  0  0  0  0  0  0  0
    7.1162    2.0844   -3.9478 H   0  0  0  0  0  0  0  0  0  0  0  0
    5.2028    5.7246    0.3802 H   0  0  0  0  0  0  0  0  0  0  0  0
    5.4339    5.4059   -1.3497 H   0  0  0  0  0  0  0  0  0  0  0  0
    6.7274    4.9891   -0.1516 H   0  0  0  0  0  0  0  0  0  0  0  0
    3.5984   -6.1154   -0.2856 H   0  0  0  0  0  0  0  0  0  0  0  0
    5.3973   -7.1043   -4.3209 H   0  0  0  0  0  0  0  0  0  0  0  0
    5.9974   -5.5756   -4.9927 H   0  0  0  0  0  0  0  0  0  0  0  0
  1  2  1  0  0  0  0
  1 24  1  0  0  0  0
  1 25  1  0  0  0  0
  1 26  1  0  0  0  0
  2  3  1  0  0  0  0
  2 27  1  0  0  0  0
  2 28  1  0  0  0  0
  3  4  1  0  0  0  0
  3 29  1  0  0  0  0
  3 30  1  0  0  0  0
  4  5  1  0  0  0  0
  4 31  1  0  0  0  0
  4 32  1  0  0  0  0
  5  6  1  0  0  0  0
  5 18  1  0  0  0  0
  6  7  1  0  0  0  0
  6 16  2  0  0  0  0
  7  8  1  0  0  0  0
  7 33  1  0  0  0  0
  7 34  1  0  0  0  0
  8  9  2  0  0  0  0
  8 13  1  0  0  0  0
  9 10  1  0  0  0  0
  9 35  1  0  0  0  0
 10 11  2  0  0  0  0
 10 36  1  0  0  0  0
 11 12  1  0  0  0  0
 11 14  1  0  0  0  0
 12 13  2  0  0  0  0
 12 37  1  0  0  0  0
 13 38  1  0  0  0  0
 14 15  1  0  0  0  0
 15 39  1  0  0  0  0
 15 40  1  0  0  0  0
 15 41  1  0  0  0  0
 16 17  1  0  0  0  0
 17 18  2  0  0  0  0
 17 22  1  0  0  0  0
 18 19  1  0  0  0  0
 19 20  2  0  0  0  0
 20 21  1  0  0  0  0
 20 42  1  0  0  0  0
 21 22  2  0  0  0  0
 22 23  1  0  0  0  0
 23 43  1  0  0  0  0
 23 44  1  0  0  0  0
M  END
$$$$
