PU5
 OpenBabel04121316173D

 44 46  0  0  0  0  0  0  0  0999 V2000
    0.9011   -0.0805   -0.1177 C   0  0  0  0  0  0  0  0  0  0  0  0
    2.4152   -0.2135   -0.2695 C   0  0  0  0  0  0  0  0  0  0  0  0
    2.9431    0.8848   -1.1840 C   0  0  0  0  0  0  0  0  0  0  0  0
    4.4576    0.8797   -1.3236 C   0  0  0  0  0  0  0  0  0  0  0  0
    4.9607    2.1196   -1.9002 N   0  0  0  0  0  0  0  0  0  0  0  0
    4.7520    3.4494   -1.5482 C   0  0  0  0  0  0  0  0  0  0  0  0
    4.1304    4.0323   -0.3022 C   0  0  0  0  0  0  0  0  0  0  0  0
    3.9157    3.1324    0.8806 C   0  0  0  0  0  0  0  0  0  0  0  0
    4.8197    2.2319    1.4368 C   0  0  0  0  0  0  0  0  0  0  0  0
    4.3978    1.3811    2.5192 C   0  0  0  0  0  0  0  0  0  0  0  0
    3.0708    1.4702    2.9455 C   0  0  0  0  0  0  0  0  0  0  0  0
    2.3106    1.8446    1.9218 C   0  0  0  0  0  0  0  0  0  0  0  0
    2.6278    3.0570    1.3578 C   0  0  0  0  0  0  0  0  0  0  0  0
    2.5080    1.8176    4.1686 O   0  0  0  0  0  0  0  0  0  0  0  0
    1.3860    2.8112    4.0864 C   0  0  0  0  0  0  0  0  0  0  0  0
    5.1746    4.2411   -2.5318 N   0  0  0  0  0  0  0  0  0  0  0  0
    5.7744    3.4292   -3.4559 C   0  0  0  0  0  0  0  0  0  0  0  0
    5.7124    2.0937   -3.0475 C   0  0  0  0  0  0  0  0  0  0  0  0
    6.2205    1.0368   -3.6687 N   0  0  0  0  0  0  0  0  0  0  0  0
    6.8300    1.3852   -4.8206 C   0  0  0  0  0  0  0  0  0  0  0  0
    6.9360    2.6235   -5.3583 N   0  0  0  0  0  0  0  0  0  0  0  0
    6.4068    3.6620   -4.6802 C   0  0  0  0  0  0  0  0  0  0  0  0
    6.5062    4.9312   -5.2218 N   0  0  0  0  0  0  0  0  0  0  0  0
    0.5313   -0.7968    0.6214 H   0  0  0  0  0  0  0  0  0  0  0  0
    0.3976   -0.2297   -1.0711 H   0  0  0  0  0  0  0  0  0  0  0  0
    0.5862    0.9183    0.2044 H   0  0  0  0  0  0  0  0  0  0  0  0
    2.6816   -1.2007   -0.6492 H   0  0  0  0  0  0  0  0  0  0  0  0
    2.8943   -0.1715    0.7114 H   0  0  0  0  0  0  0  0  0  0  0  0
    2.5795    1.8506   -0.8375 H   0  0  0  0  0  0  0  0  0  0  0  0
    2.4983    0.7892   -2.1769 H   0  0  0  0  0  0  0  0  0  0  0  0
    4.7245    0.0482   -1.9850 H   0  0  0  0  0  0  0  0  0  0  0  0
    5.0255    0.6629   -0.4197 H   0  0  0  0  0  0  0  0  0  0  0  0
    3.1590    4.4646   -0.6072 H   0  0  0  0  0  0  0  0  0  0  0  0
    4.7243    4.8871    0.0375 H   0  0  0  0  0  0  0  0  0  0  0  0
    5.7593    2.0697    0.9077 H   0  0  0  0  0  0  0  0  0  0  0  0
    4.8036    0.3586    2.3322 H   0  0  0  0  0  0  0  0  0  0  0  0
    1.3990    1.2849    1.8479 H   0  0  0  0  0  0  0  0  0  0  0  0
    2.3531    3.9811    1.8941 H   0  0  0  0  0  0  0  0  0  0  0  0
    0.5839    2.6250    4.8088 H   0  0  0  0  0  0  0  0  0  0  0  0
    0.8175    2.8902    3.1362 H   0  0  0  0  0  0  0  0  0  0  0  0
    1.8211    3.7996    4.2583 H   0  0  0  0  0  0  0  0  0  0  0  0
    7.2768    0.5769   -5.3815 H   0  0  0  0  0  0  0  0  0  0  0  0
    6.9146    5.0263   -6.1365 H   0  0  0  0  0  0  0  0  0  0  0  0
    6.0612    5.6934   -4.7387 H   0  0  0  0  0  0  0  0  0  0  0  0
  1  2  1  0  0  0  0
  1 24  1  0  0  0  0
  1 25  1  0  0  0  0
  1 26  1  0  0  0  0
  2  3  1  0  0  0  0
  2 27  1  0  0  0  0
  2 28  1  0  0  0  0
  3  4  1  0  0  0  0
  3 29  1  0  0  0  0
  3 30  1  0  0  0  0
  4  5  1  0  0  0  0
  4 31  1  0  0  0  0
  4 32  1  0  0  0  0
  5  6  1  0  0  0  0
  5 18  1  0  0  0  0
  6  7  1  0  0  0  0
  6 16  2  0  0  0  0
  7  8  1  0  0  0  0
  7 33  1  0  0  0  0
  7 34  1  0  0  0  0
  8  9  2  0  0  0  0
  8 13  1  0  0  0  0
  9 10  1  0  0  0  0
  9 35  1  0  0  0  0
 10 11  2  0  0  0  0
 10 36  1  0  0  0  0
 11 12  1  0  0  0  0
 11 37  1  0  0  0  0
 12 13  2  0  0  0  0
 12 14  1  0  0  0  0
 13 38  1  0  0  0  0
 14 15  1  0  0  0  0
 15 39  1  0  0  0  0
 15 40  1  0  0  0  0
 15 41  1  0  0  0  0
 16 17  1  0  0  0  0
 17 18  2  0  0  0  0
 17 22  1  0  0  0  0
 18 19  1  0  0  0  0
 19 20  2  0  0  0  0
 20 21  1  0  0  0  0
 20 42  1  0  0  0  0
 21 22  2  0  0  0  0
 22 23  1  0  0  0  0
 23 43  1  0  0  0  0
 23 44  1  0  0  0  0
M  END
$$$$
