PU8
 OpenBabel04121316173D

 52 54  0  0  0  0  0  0  0  0999 V2000
    0.6997    0.0382    0.0959 C   0  0  0  0  0  0  0  0  0  0  0  0
    2.1902   -0.1214    0.1296 C   0  0  0  0  0  0  0  0  0  0  0  0
    2.5432   -1.5536    0.5050 C   0  0  0  0  0  0  0  0  0  0  0  0
    4.0443   -1.6390    0.5625 C   0  0  0  0  0  0  0  0  0  0  0  0
    4.7197   -2.8619    0.8711 N   0  0  0  0  0  0  0  0  0  0  0  0
    5.9185   -3.0736    1.5421 C   0  0  0  0  0  0  0  0  0  0  0  0
    6.9147   -2.0603    2.0953 C   0  0  0  0  0  0  0  0  0  0  0  0
    6.8329   -0.5842    1.7315 C   0  0  0  0  0  0  0  0  0  0  0  0
    6.3190   -0.1519    0.5143 C   0  0  0  0  0  0  0  0  0  0  0  0
    5.7315    1.1078    0.3709 C   0  0  0  0  0  0  0  0  0  0  0  0
    4.7998    1.1973   -0.6337 O   0  0  0  0  0  0  0  0  0  0  0  0
    4.0413    2.4020   -0.8100 C   0  0  0  0  0  0  0  0  0  0  0  0
    6.1354    2.1031    1.2424 C   0  0  0  0  0  0  0  0  0  0  0  0
    7.0728    1.7799    2.2562 C   0  0  0  0  0  0  0  0  0  0  0  0
    7.3564    0.4174    2.5490 C   0  0  0  0  0  0  0  0  0  0  0  0
    8.4433   -0.1416    3.7937 Cl  0  0  0  0  0  0  0  0  0  0  0  0
    7.6269    2.8788    2.8447 O   0  0  0  0  0  0  0  0  0  0  0  0
    8.7677    2.7353    3.6524 C   0  0  0  0  0  0  0  0  0  0  0  0
    5.6045    3.3291    0.9705 O   0  0  0  0  0  0  0  0  0  0  0  0
    6.2859    4.4982    1.3562 C   0  0  0  0  0  0  0  0  0  0  0  0
    6.1038   -4.3829    1.6941 N   0  0  0  0  0  0  0  0  0  0  0  0
    5.0841   -4.9928    0.9896 C   0  0  0  0  0  0  0  0  0  0  0  0
    4.2836   -4.0592    0.3991 C   0  0  0  0  0  0  0  0  0  0  0  0
    3.2366   -4.2622   -0.4193 N   0  0  0  0  0  0  0  0  0  0  0  0
    2.9787   -5.5627   -0.5555 C   0  0  0  0  0  0  0  0  0  0  0  0
    3.6423   -6.5956   -0.0043 N   0  0  0  0  0  0  0  0  0  0  0  0
    4.7226   -6.3298    0.7748 C   0  0  0  0  0  0  0  0  0  0  0  0
    5.4054   -7.3760    1.3346 N   0  0  0  0  0  0  0  0  0  0  0  0
    0.4360    1.0608   -0.1798 H   0  0  0  0  0  0  0  0  0  0  0  0
    0.2890   -0.1930    1.0810 H   0  0  0  0  0  0  0  0  0  0  0  0
    0.2805   -0.6516   -0.6414 H   0  0  0  0  0  0  0  0  0  0  0  0
    2.6283    0.5883    0.8426 H   0  0  0  0  0  0  0  0  0  0  0  0
    2.5874    0.1016   -0.8679 H   0  0  0  0  0  0  0  0  0  0  0  0
    2.1308   -2.2105   -0.2618 H   0  0  0  0  0  0  0  0  0  0  0  0
    2.1276   -1.8279    1.4765 H   0  0  0  0  0  0  0  0  0  0  0  0
    4.3092   -0.9466    1.3586 H   0  0  0  0  0  0  0  0  0  0  0  0
    4.3887   -1.3669   -0.4404 H   0  0  0  0  0  0  0  0  0  0  0  0
    7.9217   -2.3950    1.8187 H   0  0  0  0  0  0  0  0  0  0  0  0
    6.8299   -2.1761    3.1884 H   0  0  0  0  0  0  0  0  0  0  0  0
    6.2179   -0.8778   -0.2834 H   0  0  0  0  0  0  0  0  0  0  0  0
    3.2017    2.2056   -1.4873 H   0  0  0  0  0  0  0  0  0  0  0  0
    4.6740    3.1483   -1.2934 H   0  0  0  0  0  0  0  0  0  0  0  0
    3.5801    2.7799    0.1136 H   0  0  0  0  0  0  0  0  0  0  0  0
    9.1511    3.7310    3.8743 H   0  0  0  0  0  0  0  0  0  0  0  0
    9.5625    2.1858    3.1362 H   0  0  0  0  0  0  0  0  0  0  0  0
    8.4579    2.2893    4.5976 H   0  0  0  0  0  0  0  0  0  0  0  0
    5.8079    5.3400    0.8489 H   0  0  0  0  0  0  0  0  0  0  0  0
    7.3299    4.4674    1.0321 H   0  0  0  0  0  0  0  0  0  0  0  0
    6.1652    4.6482    2.4300 H   0  0  0  0  0  0  0  0  0  0  0  0
    2.1163   -5.7976   -1.1731 H   0  0  0  0  0  0  0  0  0  0  0  0
    5.0762   -8.3091    1.1532 H   0  0  0  0  0  0  0  0  0  0  0  0
    6.2029   -7.1723    1.9210 H   0  0  0  0  0  0  0  0  0  0  0  0
  1  2  1  0  0  0  0
  1 29  1  0  0  0  0
  1 30  1  0  0  0  0
  1 31  1  0  0  0  0
  2  3  1  0  0  0  0
  2 32  1  0  0  0  0
  2 33  1  0  0  0  0
  3  4  1  0  0  0  0
  3 34  1  0  0  0  0
  3 35  1  0  0  0  0
  4  5  1  0  0  0  0
  4 36  1  0  0  0  0
  4 37  1  0  0  0  0
  5  6  1  0  0  0  0
  5 23  1  0  0  0  0
  6  7  1  0  0  0  0
  6 21  2  0  0  0  0
  7  8  1  0  0  0  0
  7 38  1  0  0  0  0
  7 39  1  0  0  0  0
  8  9  2  0  0  0  0
  8 15  1  0  0  0  0
  9 10  1  0  0  0  0
  9 40  1  0  0  0  0
 10 11  1  0  0  0  0
 10 13  2  0  0  0  0
 11 12  1  0  0  0  0
 12 41  1  0  0  0  0
 12 42  1  0  0  0  0
 12 43  1  0  0  0  0
 13 14  1  0  0  0  0
 13 19  1  0  0  0  0
 14 15  2  0  0  0  0
 14 17  1  0  0  0  0
 15 16  1  0  0  0  0
 17 18  1  0  0  0  0
 18 44  1  0  0  0  0
 18 45  1  0  0  0  0
 18 46  1  0  0  0  0
 19 20  1  0  0  0  0
 20 47  1  0  0  0  0
 20 48  1  0  0  0  0
 20 49  1  0  0  0  0
 21 22  1  0  0  0  0
 22 23  2  0  0  0  0
 22 27  1  0  0  0  0
 23 24  1  0  0  0  0
 24 25  2  0  0  0  0
 25 26  1  0  0  0  0
 25 50  1  0  0  0  0
 26 27  2  0  0  0  0
 27 28  1  0  0  0  0
 28 51  1  0  0  0  0
 28 52  1  0  0  0  0
M  END
$$$$
