PU9
 OpenBabel04121316173D

 51 53  0  0  0  0  0  0  0  0999 V2000
    0.9663    0.0942   -0.0008 C   0  0  0  0  0  0  0  0  0  0  0  0
    2.1565    0.0942   -0.0008 C   0  0  0  0  0  0  0  0  0  0  0  0
    3.6005    0.0942   -0.0008 C   0  0  0  0  0  0  0  0  0  0  0  0
    3.8335   -1.2146    0.7756 C   0  0  0  0  0  0  0  0  0  0  0  0
    5.2972   -1.3254    0.8772 C   0  0  0  0  0  0  0  0  0  0  0  0
    5.8749   -2.3849    1.6331 N   0  0  0  0  0  0  0  0  0  0  0  0
    6.7749   -2.3071    2.6728 C   0  0  0  0  0  0  0  0  0  0  0  0
    7.4515   -1.0796    3.2439 C   0  0  0  0  0  0  0  0  0  0  0  0
    7.5033    0.2352    2.4662 C   0  0  0  0  0  0  0  0  0  0  0  0
    7.5000    0.2774    1.0655 C   0  0  0  0  0  0  0  0  0  0  0  0
    6.9832    1.3876    0.3858 C   0  0  0  0  0  0  0  0  0  0  0  0
    6.4585    1.0834   -0.8511 O   0  0  0  0  0  0  0  0  0  0  0  0
    5.9401    2.1289   -1.6763 C   0  0  0  0  0  0  0  0  0  0  0  0
    6.9631    2.6106    1.0466 C   0  0  0  0  0  0  0  0  0  0  0  0
    7.3565    2.6666    2.4109 C   0  0  0  0  0  0  0  0  0  0  0  0
    7.5401    1.4627    3.1372 C   0  0  0  0  0  0  0  0  0  0  0  0
    7.8727    1.3771    4.8484 Cl  0  0  0  0  0  0  0  0  0  0  0  0
    7.4969    3.9354    2.8934 O   0  0  0  0  0  0  0  0  0  0  0  0
    8.1400    4.1608    4.1251 C   0  0  0  0  0  0  0  0  0  0  0  0
    6.5600    3.6663    0.2775 O   0  0  0  0  0  0  0  0  0  0  0  0
    6.9744    4.9739    0.6064 C   0  0  0  0  0  0  0  0  0  0  0  0
    6.9359   -3.5201    3.1901 N   0  0  0  0  0  0  0  0  0  0  0  0
    6.2555   -4.3804    2.3557 C   0  0  0  0  0  0  0  0  0  0  0  0
    5.6644   -3.6830    1.3140 C   0  0  0  0  0  0  0  0  0  0  0  0
    4.9843   -4.1688    0.2768 N   0  0  0  0  0  0  0  0  0  0  0  0
    4.8688   -5.5032    0.3624 C   0  0  0  0  0  0  0  0  0  0  0  0
    5.3418   -6.3135    1.3383 N   0  0  0  0  0  0  0  0  0  0  0  0
    6.0466   -5.7557    2.3506 C   0  0  0  0  0  0  0  0  0  0  0  0
    6.5319   -6.5635    3.3573 N   0  0  0  0  0  0  0  0  0  0  0  0
   -0.0995    0.0926   -0.0008 H   0  0  0  0  0  0  0  0  0  0  0  0
    3.9920    0.9799    0.5058 H   0  0  0  0  0  0  0  0  0  0  0  0
    3.9863    0.0311   -1.0220 H   0  0  0  0  0  0  0  0  0  0  0  0
    3.3748   -2.0811    0.2846 H   0  0  0  0  0  0  0  0  0  0  0  0
    3.3998   -1.1546    1.7863 H   0  0  0  0  0  0  0  0  0  0  0  0
    5.4760   -0.4269    1.4426 H   0  0  0  0  0  0  0  0  0  0  0  0
    5.7440   -1.3392   -0.1222 H   0  0  0  0  0  0  0  0  0  0  0  0
    8.4872   -1.3379    3.4836 H   0  0  0  0  0  0  0  0  0  0  0  0
    6.9218   -0.9283    4.1975 H   0  0  0  0  0  0  0  0  0  0  0  0
    7.6437   -0.6437    0.5060 H   0  0  0  0  0  0  0  0  0  0  0  0
    5.5055    1.6876   -2.5801 H   0  0  0  0  0  0  0  0  0  0  0  0
    6.7664    2.7704   -1.9890 H   0  0  0  0  0  0  0  0  0  0  0  0
    5.1256    2.6973   -1.2066 H   0  0  0  0  0  0  0  0  0  0  0  0
    8.3523    5.2271    4.2067 H   0  0  0  0  0  0  0  0  0  0  0  0
    9.0982    3.6339    4.1888 H   0  0  0  0  0  0  0  0  0  0  0  0
    7.4423    3.9098    4.9253 H   0  0  0  0  0  0  0  0  0  0  0  0
    6.7747    5.6136   -0.2567 H   0  0  0  0  0  0  0  0  0  0  0  0
    8.0506    5.0114    0.8006 H   0  0  0  0  0  0  0  0  0  0  0  0
    6.3715    5.3480    1.4364 H   0  0  0  0  0  0  0  0  0  0  0  0
    4.3177   -5.9772   -0.4404 H   0  0  0  0  0  0  0  0  0  0  0  0
    6.3189   -7.5433    3.3263 H   0  0  0  0  0  0  0  0  0  0  0  0
    7.0262   -6.1254    4.1201 H   0  0  0  0  0  0  0  0  0  0  0  0
  1  2  3  0  0  0  0
  1 30  1  0  0  0  0
  2  3  1  0  0  0  0
  3  4  1  0  0  0  0
  3 31  1  0  0  0  0
  3 32  1  0  0  0  0
  4  5  1  0  0  0  0
  4 33  1  0  0  0  0
  4 34  1  0  0  0  0
  5  6  1  0  0  0  0
  5 35  1  0  0  0  0
  5 36  1  0  0  0  0
  6  7  1  0  0  0  0
  6 24  1  0  0  0  0
  7  8  1  0  0  0  0
  7 22  2  0  0  0  0
  8  9  1  0  0  0  0
  8 37  1  0  0  0  0
  8 38  1  0  0  0  0
  9 10  2  0  0  0  0
  9 16  1  0  0  0  0
 10 11  1  0  0  0  0
 10 39  1  0  0  0  0
 11 12  1  0  0  0  0
 11 14  2  0  0  0  0
 12 13  1  0  0  0  0
 13 40  1  0  0  0  0
 13 41  1  0  0  0  0
 13 42  1  0  0  0  0
 14 15  1  0  0  0  0
 14 20  1  0  0  0  0
 15 16  2  0  0  0  0
 15 18  1  0  0  0  0
 16 17  1  0  0  0  0
 18 19  1  0  0  0  0
 19 43  1  0  0  0  0
 19 44  1  0  0  0  0
 19 45  1  0  0  0  0
 20 21  1  0  0  0  0
 21 46  1  0  0  0  0
 21 47  1  0  0  0  0
 21 48  1  0  0  0  0
 22 23  1  0  0  0  0
 23 24  2  0  0  0  0
 23 28  1  0  0  0  0
 24 25  1  0  0  0  0
 25 26  2  0  0  0  0
 26 27  1  0  0  0  0
 26 49  1  0  0  0  0
 27 28  2  0  0  0  0
 28 29  1  0  0  0  0
 29 50  1  0  0  0  0
 29 51  1  0  0  0  0
M  END
$$$$
