PUG
 OpenBabel04121316173D

 35 36  0  0  1  0  0  0  0  0999 V2000
    4.2310   -1.6532   -2.8447 O   0  0  0  0  0  0  0  0  0  0  0  0
    4.2127   -1.8808   -1.4334 C   0  0  0  0  0  0  0  0  0  0  0  0
    2.8232   -2.4153   -1.1388 C   0  0  2  0  0  0  0  0  0  0  0  0
    2.0939   -1.8387   -1.7165 H   0  0  0  0  0  0  0  0  0  0  0  0
    2.4647   -2.3552    0.3691 C   0  0  2  0  0  0  0  0  0  0  0  0
    3.0033   -1.5031    0.7977 H   0  0  0  0  0  0  0  0  0  0  0  0
    2.8497   -3.6264    1.1594 C   0  0  1  0  0  0  0  0  0  0  0  0
    2.4858   -3.5066    2.1881 H   0  0  0  0  0  0  0  0  0  0  0  0
    2.2908   -4.9838    0.6372 C   0  0  0  0  0  0  0  0  0  0  0  0
    0.8376   -5.0269    0.5280 N   0  0  0  0  0  0  0  0  0  0  0  0
    0.0248   -4.2617   -0.3691 C   0  0  0  0  0  0  0  0  0  0  0  0
    0.3259   -3.6144   -1.3453 O   0  0  0  0  0  0  0  0  0  0  0  0
   -1.2824   -4.4504    0.0683 N   0  0  0  0  0  0  0  0  0  0  0  0
   -2.0908   -4.0098   -0.3455 H   0  0  0  0  0  0  0  0  0  0  0  0
   -1.2690   -5.4593    0.9688 C   0  0  0  0  0  0  0  0  0  0  0  0
   -0.0148   -5.8244    1.2471 C   0  0  0  0  0  0  0  0  0  0  0  0
    0.2600   -6.8720    2.0542 N   0  0  0  0  0  0  0  0  0  0  0  0
    1.2098   -7.1807    2.2190 H   0  0  0  0  0  0  0  0  0  0  0  0
   -0.7444   -7.6399    2.5974 C   0  0  0  0  0  0  0  0  0  0  0  0
   -0.5066   -8.6124    3.3031 O   0  0  0  0  0  0  0  0  0  0  0  0
   -2.0343   -7.2517    2.2995 N   0  0  0  0  0  0  0  0  0  0  0  0
   -2.7810   -7.8100    2.6816 H   0  0  0  0  0  0  0  0  0  0  0  0
   -2.4026   -6.1883    1.5124 C   0  0  0  0  0  0  0  0  0  0  0  0
   -3.5594   -5.8791    1.2576 O   0  0  0  0  0  0  0  0  0  0  0  0
    4.2808   -3.7018    1.2545 O   0  0  0  0  0  0  0  0  0  0  0  0
    1.0959   -1.9591    0.5687 O   0  0  0  0  0  0  0  0  0  0  0  0
    2.8211   -3.7349   -1.7040 O   0  0  0  0  0  0  0  0  0  0  0  0
    5.1177   -1.3829   -3.1114 H   0  0  0  0  0  0  0  0  0  0  0  0
    4.3959   -0.9346   -0.9195 H   0  0  0  0  0  0  0  0  0  0  0  0
    4.9968   -2.6027   -1.1694 H   0  0  0  0  0  0  0  0  0  0  0  0
    2.6374   -5.7700    1.3196 H   0  0  0  0  0  0  0  0  0  0  0  0
    2.7330   -5.3015   -0.3074 H   0  0  0  0  0  0  0  0  0  0  0  0
    4.6143   -2.8256    1.5213 H   0  0  0  0  0  0  0  0  0  0  0  0
    0.7349   -2.3593    1.3760 H   0  0  0  0  0  0  0  0  0  0  0  0
    1.8765   -3.9443   -1.8552 H   0  0  0  0  0  0  0  0  0  0  0  0
  1  2  1  0  0  0  0
  1 28  1  0  0  0  0
  2 29  1  0  0  0  0
  2 30  1  0  0  0  0
  3 27  1  0  0  0  0
  3  4  1  6  0  0  0
  3  2  1  0  0  0  0
  5  7  1  0  0  0  0
  5 26  1  0  0  0  0
  5  6  1  1  0  0  0
  5  3  1  0  0  0  0
  7  8  1  1  0  0  0
  7  9  1  0  0  0  0
  7 25  1  0  0  0  0
  9 10  1  0  0  0  0
  9 31  1  0  0  0  0
  9 32  1  0  0  0  0
 10 11  1  0  0  0  0
 10 16  1  0  0  0  0
 11 12  2  0  0  0  0
 11 13  1  0  0  0  0
 13 14  1  0  0  0  0
 13 15  1  0  0  0  0
 15 16  2  0  0  0  0
 15 23  1  0  0  0  0
 16 17  1  0  0  0  0
 17 18  1  0  0  0  0
 17 19  1  0  0  0  0
 19 20  2  0  0  0  0
 19 21  1  0  0  0  0
 21 22  1  0  0  0  0
 21 23  1  0  0  0  0
 23 24  2  0  0  0  0
 25 33  1  0  0  0  0
 26 34  1  0  0  0  0
 27 35  1  0  0  0  0
M  END
$$$$
