PUZ
 OpenBabel04121316173D

 47 49  0  0  0  0  0  0  0  0999 V2000
    0.9921    0.0873   -0.0482 C   0  0  0  0  0  0  0  0  0  0  0  0
    2.1822    0.0873   -0.0482 C   0  0  0  0  0  0  0  0  0  0  0  0
    3.6262    0.0873   -0.0482 C   0  0  0  0  0  0  0  0  0  0  0  0
    4.1832   -1.3623    0.0962 C   0  0  0  0  0  0  0  0  0  0  0  0
    5.7301   -1.5831    0.1340 C   0  0  0  0  0  0  0  0  0  0  0  0
    6.2289   -2.9730    0.2882 N   0  0  0  0  0  0  0  0  0  0  0  0
    5.5220   -4.1742    0.1446 C   0  0  0  0  0  0  0  0  0  0  0  0
    4.0645   -4.4123   -0.1460 C   0  0  0  0  0  0  0  0  0  0  0  0
    3.6599   -5.8837   -0.3501 C   0  0  0  0  0  0  0  0  0  0  0  0
    4.2402   -6.8391    0.5277 C   0  0  0  0  0  0  0  0  0  0  0  0
    4.1695   -8.2157    0.3163 C   0  0  0  0  0  0  0  0  0  0  0  0
    4.8894   -9.1618    0.9959 O   0  0  0  0  0  0  0  0  0  0  0  0
    5.8277   -8.6616    1.9438 C   0  0  0  0  0  0  0  0  0  0  0  0
    3.3151   -8.6848   -0.6635 C   0  0  0  0  0  0  0  0  0  0  0  0
    2.5693   -7.7744   -1.4164 C   0  0  0  0  0  0  0  0  0  0  0  0
    2.7629   -6.3785   -1.3107 C   0  0  0  0  0  0  0  0  0  0  0  0
    1.9854   -5.7037   -2.2137 O   0  0  0  0  0  0  0  0  0  0  0  0
    2.1661   -4.3133   -2.3841 C   0  0  0  0  0  0  0  0  0  0  0  0
    6.3372   -5.2046    0.1855 N   0  0  0  0  0  0  0  0  0  0  0  0
    7.5404   -4.7418    0.5140 C   0  0  0  0  0  0  0  0  0  0  0  0
    7.5622   -3.3581    0.5638 C   0  0  0  0  0  0  0  0  0  0  0  0
    8.6749   -2.6479    0.8370 N   0  0  0  0  0  0  0  0  0  0  0  0
    9.7483   -3.4806    1.0890 C   0  0  0  0  0  0  0  0  0  0  0  0
   10.9158   -2.8819    1.3715 F   0  0  0  0  0  0  0  0  0  0  0  0
    9.8069   -4.8370    1.0995 N   0  0  0  0  0  0  0  0  0  0  0  0
    8.6860   -5.4907    0.8030 C   0  0  0  0  0  0  0  0  0  0  0  0
    8.6239   -6.8754    0.8058 N   0  0  0  0  0  0  0  0  0  0  0  0
   -0.0742    0.0909   -0.0468 H   0  0  0  0  0  0  0  0  0  0  0  0
    4.0077    0.6935    0.7811 H   0  0  0  0  0  0  0  0  0  0  0  0
    4.0127    0.5290   -0.9733 H   0  0  0  0  0  0  0  0  0  0  0  0
    3.7783   -1.9078   -0.7599 H   0  0  0  0  0  0  0  0  0  0  0  0
    3.7559   -1.8014    1.0059 H   0  0  0  0  0  0  0  0  0  0  0  0
    6.1569   -1.0076    0.9637 H   0  0  0  0  0  0  0  0  0  0  0  0
    6.1694   -1.2086   -0.7995 H   0  0  0  0  0  0  0  0  0  0  0  0
    3.9744   -3.8801   -1.0788 H   0  0  0  0  0  0  0  0  0  0  0  0
    3.4119   -3.9791    0.6158 H   0  0  0  0  0  0  0  0  0  0  0  0
    4.8321   -6.4679    1.3590 H   0  0  0  0  0  0  0  0  0  0  0  0
    6.4424   -9.4877    2.3114 H   0  0  0  0  0  0  0  0  0  0  0  0
    5.3117   -8.2022    2.7912 H   0  0  0  0  0  0  0  0  0  0  0  0
    6.5009   -7.9417    1.4867 H   0  0  0  0  0  0  0  0  0  0  0  0
    3.2167   -9.7534   -0.8342 H   0  0  0  0  0  0  0  0  0  0  0  0
    1.8365   -8.1642   -2.1207 H   0  0  0  0  0  0  0  0  0  0  0  0
    1.4605   -3.9387   -3.1267 H   0  0  0  0  0  0  0  0  0  0  0  0
    3.1649   -4.1081   -2.7858 H   0  0  0  0  0  0  0  0  0  0  0  0
    1.9505   -3.7812   -1.4516 H   0  0  0  0  0  0  0  0  0  0  0  0
    9.4770   -7.4043    0.8804 H   0  0  0  0  0  0  0  0  0  0  0  0
    7.8544   -7.2520    0.2578 H   0  0  0  0  0  0  0  0  0  0  0  0
  1  2  3  0  0  0  0
  1 28  1  0  0  0  0
  2  3  1  0  0  0  0
  3  4  1  0  0  0  0
  3 29  1  0  0  0  0
  3 30  1  0  0  0  0
  4  5  1  0  0  0  0
  4 31  1  0  0  0  0
  4 32  1  0  0  0  0
  5  6  1  0  0  0  0
  5 33  1  0  0  0  0
  5 34  1  0  0  0  0
  6  7  1  0  0  0  0
  6 21  1  0  0  0  0
  7  8  1  0  0  0  0
  7 19  2  0  0  0  0
  8  9  1  0  0  0  0
  8 35  1  0  0  0  0
  8 36  1  0  0  0  0
  9 10  2  0  0  0  0
  9 16  1  0  0  0  0
 10 11  1  0  0  0  0
 10 37  1  0  0  0  0
 11 12  1  0  0  0  0
 11 14  2  0  0  0  0
 12 13  1  0  0  0  0
 13 38  1  0  0  0  0
 13 39  1  0  0  0  0
 13 40  1  0  0  0  0
 14 15  1  0  0  0  0
 14 41  1  0  0  0  0
 15 16  2  0  0  0  0
 15 42  1  0  0  0  0
 16 17  1  0  0  0  0
 17 18  1  0  0  0  0
 18 43  1  0  0  0  0
 18 44  1  0  0  0  0
 18 45  1  0  0  0  0
 19 20  1  0  0  0  0
 20 21  2  0  0  0  0
 20 26  1  0  0  0  0
 21 22  1  0  0  0  0
 22 23  2  0  0  0  0
 23 24  1  0  0  0  0
 23 25  1  0  0  0  0
 25 26  2  0  0  0  0
 26 27  1  0  0  0  0
 27 46  1  0  0  0  0
 27 47  1  0  0  0  0
M  END
$$$$
