PXE
 OpenBabel04121316173D

 26 26  0  0  0  0  0  0  0  0999 V2000
    0.9122    0.0129   -0.0536 O   0  0  0  0  0  0  0  0  0  0  0  0
    2.2957    0.1642    0.0780 N   0  0  0  0  0  0  0  0  0  0  0  0
    2.9620   -0.6783   -0.6529 C   0  0  0  0  0  0  0  0  0  0  0  0
    2.3726   -1.7331   -1.5054 C   0  0  0  0  0  0  0  0  0  0  0  0
    3.0643   -2.3701   -2.4655 C   0  0  0  0  0  0  0  0  0  0  0  0
    2.3739   -3.4097   -3.3241 C   0  0  0  0  0  0  0  0  0  0  0  0
    1.1660   -2.7963   -4.0445 C   0  0  0  0  0  0  0  0  0  0  0  0
    3.2785   -4.0918   -4.3469 C   0  0  0  0  0  0  0  0  0  0  0  0
    4.4982   -2.0079   -2.6626 C   0  0  0  0  0  0  0  0  0  0  0  0
    5.1707   -2.3103   -3.6432 O   0  0  0  0  0  0  0  0  0  0  0  0
    5.1549   -1.2620   -1.5851 C   0  0  0  0  0  0  0  0  0  0  0  0
    4.4478   -0.6350   -0.6413 C   0  0  0  0  0  0  0  0  0  0  0  0
    5.0823    0.1370    0.4591 C   0  0  0  0  0  0  0  0  0  0  0  0
    0.5758    0.7182    0.5308 H   0  0  0  0  0  0  0  0  0  0  0  0
    1.3256   -1.9521   -1.3276 H   0  0  0  0  0  0  0  0  0  0  0  0
    2.0049   -4.1969   -2.6496 H   0  0  0  0  0  0  0  0  0  0  0  0
    1.4819   -1.9853   -4.7095 H   0  0  0  0  0  0  0  0  0  0  0  0
    0.4347   -2.3819   -3.3412 H   0  0  0  0  0  0  0  0  0  0  0  0
    0.6424   -3.5507   -4.6388 H   0  0  0  0  0  0  0  0  0  0  0  0
    3.6406   -3.3676   -5.0852 H   0  0  0  0  0  0  0  0  0  0  0  0
    2.7464   -4.8717   -4.8961 H   0  0  0  0  0  0  0  0  0  0  0  0
    4.1368   -4.5614   -3.8526 H   0  0  0  0  0  0  0  0  0  0  0  0
    6.2375   -1.2324   -1.6271 H   0  0  0  0  0  0  0  0  0  0  0  0
    6.1732    0.1040    0.3951 H   0  0  0  0  0  0  0  0  0  0  0  0
    4.7842   -0.2907    1.4214 H   0  0  0  0  0  0  0  0  0  0  0  0
    4.7681    1.1835    0.4159 H   0  0  0  0  0  0  0  0  0  0  0  0
  1  2  1  0  0  0  0
  1 14  1  0  0  0  0
  2  3  2  0  0  0  0
  3  4  1  0  0  0  0
  3 12  1  0  0  0  0
  4  5  2  0  0  0  0
  4 15  1  0  0  0  0
  5  6  1  0  0  0  0
  5  9  1  0  0  0  0
  6  7  1  0  0  0  0
  6  8  1  0  0  0  0
  6 16  1  0  0  0  0
  7 17  1  0  0  0  0
  7 18  1  0  0  0  0
  7 19  1  0  0  0  0
  8 20  1  0  0  0  0
  8 21  1  0  0  0  0
  8 22  1  0  0  0  0
  9 10  2  0  0  0  0
  9 11  1  0  0  0  0
 11 12  2  0  0  0  0
 11 23  1  0  0  0  0
 12 13  1  0  0  0  0
 13 24  1  0  0  0  0
 13 25  1  0  0  0  0
 13 26  1  0  0  0  0
M  END
$$$$
