PXP
 OpenBabel04121316173D

 28 28  0  0  0  0  0  0  0  0999 V2000
    0.9759    0.0407    0.1140 O   0  0  0  0  0  0  0  0  0  0  0  0
    2.3619   -0.2642    0.2515 C   0  0  0  0  0  0  0  0  0  0  0  0
    2.8627   -0.7931   -1.0714 C   0  0  0  0  0  0  0  0  0  0  0  0
    3.3736   -0.0007   -2.1198 C   0  0  0  0  0  0  0  0  0  0  0  0
    3.7201   -0.6224   -3.3251 C   0  0  0  0  0  0  0  0  0  0  0  0
    3.5919   -1.9295   -3.5723 N   0  0  0  0  0  0  0  0  0  0  0  0
    3.1047   -2.6873   -2.5593 C   0  0  0  0  0  0  0  0  0  0  0  0
    2.7476   -2.1574   -1.3154 C   0  0  0  0  0  0  0  0  0  0  0  0
    2.2830   -2.9429   -0.2900 O   0  0  0  0  0  0  0  0  0  0  0  0
    2.9559   -4.1408   -2.8550 C   0  0  0  0  0  0  0  0  0  0  0  0
    3.6519    1.4569   -2.0542 C   0  0  0  0  0  0  0  0  0  0  0  0
    3.3330    1.9866   -0.7978 O   0  0  0  0  0  0  0  0  0  0  0  0
    3.5831    3.6885   -0.6142 P   0  0  0  0  0  0  0  0  0  0  0  0
    4.1310    3.5207    0.7988 O   0  0  0  0  0  0  0  0  0  0  0  0
    4.8485    3.7134   -1.6419 O   0  0  0  0  0  0  0  0  0  0  0  0
    3.8333    5.3904   -0.4307 O   0  0  0  0  0  0  0  0  0  0  0  0
    0.6981    0.4048    0.9694 H   0  0  0  0  0  0  0  0  0  0  0  0
    2.4986   -1.0006    1.0499 H   0  0  0  0  0  0  0  0  0  0  0  0
    2.8774    0.6083    0.6457 H   0  0  0  0  0  0  0  0  0  0  0  0
    4.1395   -0.0474   -4.1535 H   0  0  0  0  0  0  0  0  0  0  0  0
    2.1346   -3.8424   -0.6001 H   0  0  0  0  0  0  0  0  0  0  0  0
    3.2822   -4.3703   -3.8729 H   0  0  0  0  0  0  0  0  0  0  0  0
    1.9035   -4.4242   -2.7594 H   0  0  0  0  0  0  0  0  0  0  0  0
    3.5636   -4.7224   -2.1561 H   0  0  0  0  0  0  0  0  0  0  0  0
    3.0977    1.9972   -2.8305 H   0  0  0  0  0  0  0  0  0  0  0  0
    4.7295    1.5667   -2.2276 H   0  0  0  0  0  0  0  0  0  0  0  0
    4.5828    4.0113   -2.5312 H   0  0  0  0  0  0  0  0  0  0  0  0
    4.0294    5.4775    0.5268 H   0  0  0  0  0  0  0  0  0  0  0  0
  1  2  1  0  0  0  0
  1 17  1  0  0  0  0
  2  3  1  0  0  0  0
  2 18  1  0  0  0  0
  2 19  1  0  0  0  0
  3  4  2  0  0  0  0
  3  8  1  0  0  0  0
  4  5  1  0  0  0  0
  4 11  1  0  0  0  0
  5  6  2  0  0  0  0
  5 20  1  0  0  0  0
  6  7  1  0  0  0  0
  7  8  2  0  0  0  0
  7 10  1  0  0  0  0
  8  9  1  0  0  0  0
  9 21  1  0  0  0  0
 10 22  1  0  0  0  0
 10 23  1  0  0  0  0
 10 24  1  0  0  0  0
 11 12  1  0  0  0  0
 11 25  1  0  0  0  0
 11 26  1  0  0  0  0
 12 13  1  0  0  0  0
 13 14  2  0  0  0  0
 13 15  1  0  0  0  0
 13 16  1  0  0  0  0
 15 27  1  0  0  0  0
 16 28  1  0  0  0  0
M  END
$$$$
