PYG
 OpenBabel04121316173D

 15 15  0  0  0  0  0  0  0  0999 V2000
    0.9155   -0.0144   -0.2566 O   0  0  0  0  0  0  0  0  0  0  0  0
    2.2791    0.0309   -0.1282 C   0  0  0  0  0  0  0  0  0  0  0  0
    2.9961    1.2237   -0.0240 C   0  0  0  0  0  0  0  0  0  0  0  0
    2.4429    2.4701   -0.0706 O   0  0  0  0  0  0  0  0  0  0  0  0
    4.3829    1.1921    0.1419 C   0  0  0  0  0  0  0  0  0  0  0  0
    5.0427   -0.0259    0.2892 C   0  0  0  0  0  0  0  0  0  0  0  0
    4.3429   -1.2215    0.1316 C   0  0  0  0  0  0  0  0  0  0  0  0
    2.9685   -1.1834   -0.1127 C   0  0  0  0  0  0  0  0  0  0  0  0
    2.2859   -2.3500   -0.3358 O   0  0  0  0  0  0  0  0  0  0  0  0
    0.5164    0.8272   -0.0283 H   0  0  0  0  0  0  0  0  0  0  0  0
    1.4801    2.4197   -0.0131 H   0  0  0  0  0  0  0  0  0  0  0  0
    4.9438    2.1223    0.1723 H   0  0  0  0  0  0  0  0  0  0  0  0
    6.1050   -0.0408    0.5228 H   0  0  0  0  0  0  0  0  0  0  0  0
    4.8750   -2.1631    0.2063 H   0  0  0  0  0  0  0  0  0  0  0  0
    2.9241   -3.0644   -0.4764 H   0  0  0  0  0  0  0  0  0  0  0  0
  1  2  1  0  0  0  0
  1 10  1  0  0  0  0
  2  3  2  0  0  0  0
  2  8  1  0  0  0  0
  3  4  1  0  0  0  0
  3  5  1  0  0  0  0
  4 11  1  0  0  0  0
  5  6  2  0  0  0  0
  5 12  1  0  0  0  0
  6  7  1  0  0  0  0
  6 13  1  0  0  0  0
  7  8  2  0  0  0  0
  7 14  1  0  0  0  0
  8  9  1  0  0  0  0
  9 15  1  0  0  0  0
M  END
$$$$
