PYN
 OpenBabel04121316173D

 67 71  0  0  0  0  0  0  0  0999 V2000
    0.9768    0.0792   -0.0683 O   0  0  0  0  0  0  0  0  0  0  0  0
    2.2033    0.0844   -0.1074 C   0  0  0  0  0  0  0  0  0  0  0  0
    2.9622   -0.3585   -1.1662 N   0  0  0  0  0  0  0  0  0  0  0  0
    2.3190   -0.9489   -2.2423 C   0  0  0  0  0  0  0  0  0  0  0  0
    2.4612   -2.3167   -2.4409 C   0  0  0  0  0  0  0  0  0  0  0  0
    1.8427   -2.8807   -3.5337 C   0  0  0  0  0  0  0  0  0  0  0  0
    1.1405   -2.0539   -4.4121 C   0  0  0  0  0  0  0  0  0  0  0  0
    0.9998   -0.6593   -4.2212 C   0  0  0  0  0  0  0  0  0  0  0  0
    1.5866   -0.1297   -3.1014 C   0  0  0  0  0  0  0  0  0  0  0  0
    0.3444    0.1506   -5.0791 N   0  0  0  0  0  0  0  0  0  0  0  0
   -0.2139   -0.4028   -6.1663 C   0  0  0  0  0  0  0  0  0  0  0  0
   -0.1077   -1.7955   -6.3915 C   0  0  0  0  0  0  0  0  0  0  0  0
    0.5641   -2.6174   -5.5188 C   0  0  0  0  0  0  0  0  0  0  0  0
   -0.6601   -2.4065   -7.4820 C   0  0  0  0  0  0  0  0  0  0  0  0
   -1.3384   -1.6330   -8.3786 C   0  0  0  0  0  0  0  0  0  0  0  0
   -1.4854   -0.2555   -8.2209 C   0  0  0  0  0  0  0  0  0  0  0  0
   -0.9132    0.3620   -7.1040 C   0  0  0  0  0  0  0  0  0  0  0  0
   -2.2059    0.4785   -9.1837 N   0  0  0  0  0  0  0  0  0  0  0  0
   -2.7867   -0.1178  -10.2932 C   0  0  0  0  0  0  0  0  0  0  0  0
   -2.7668   -1.3118  -10.6053 O   0  0  0  0  0  0  0  0  0  0  0  0
   -3.4848    0.8208  -11.1882 C   0  0  0  0  0  0  0  0  0  0  0  0
   -4.0681    0.0473  -12.3821 C   0  0  0  0  0  0  0  0  0  0  0  0
   -4.8216    0.8830  -13.3164 N   0  0  0  0  0  0  0  0  0  0  0  0
   -6.2653    0.7526  -13.1378 C   0  0  0  0  0  0  0  0  0  0  0  0
   -6.7997    1.9906  -13.8294 C   0  0  0  0  0  0  0  0  0  0  0  0
   -5.7628    3.0562  -13.5454 C   0  0  0  0  0  0  0  0  0  0  0  0
   -4.4848    2.3048  -13.2608 C   0  0  0  0  0  0  0  0  0  0  0  0
    2.9709    0.6056    1.0637 C   0  0  0  0  0  0  0  0  0  0  0  0
    4.4985    0.5523    0.9686 C   0  0  0  0  0  0  0  0  0  0  0  0
    5.1825    1.0928    2.1411 N   0  0  0  0  0  0  0  0  0  0  0  0
    4.8464    2.4959    2.3892 C   0  0  0  0  0  0  0  0  0  0  0  0
    5.1505    2.6865    3.8547 C   0  0  0  0  0  0  0  0  0  0  0  0
    4.8051    1.3475    4.4801 C   0  0  0  0  0  0  0  0  0  0  0  0
    4.9037    0.3282    3.3600 C   0  0  0  0  0  0  0  0  0  0  0  0
    3.9160   -0.6503   -1.0127 H   0  0  0  0  0  0  0  0  0  0  0  0
    2.9872   -2.9470   -1.7314 H   0  0  0  0  0  0  0  0  0  0  0  0
    1.9086   -3.9525   -3.7013 H   0  0  0  0  0  0  0  0  0  0  0  0
    1.5086    0.9359   -2.9071 H   0  0  0  0  0  0  0  0  0  0  0  0
    0.6389   -3.6841   -5.7085 H   0  0  0  0  0  0  0  0  0  0  0  0
   -0.5900   -3.4715   -7.6712 H   0  0  0  0  0  0  0  0  0  0  0  0
   -1.7379   -2.1999   -9.2015 H   0  0  0  0  0  0  0  0  0  0  0  0
   -0.9981    1.4335   -6.9347 H   0  0  0  0  0  0  0  0  0  0  0  0
   -2.2946    1.4824   -9.0523 H   0  0  0  0  0  0  0  0  0  0  0  0
   -2.7261    1.5371  -11.5254 H   0  0  0  0  0  0  0  0  0  0  0  0
   -4.2799    1.3169  -10.6202 H   0  0  0  0  0  0  0  0  0  0  0  0
   -4.6912   -0.7892  -12.0252 H   0  0  0  0  0  0  0  0  0  0  0  0
   -3.2502   -0.4389  -12.9335 H   0  0  0  0  0  0  0  0  0  0  0  0
   -6.5438    0.7510  -12.0770 H   0  0  0  0  0  0  0  0  0  0  0  0
   -6.6556   -0.1623  -13.6000 H   0  0  0  0  0  0  0  0  0  0  0  0
   -7.7841    2.2753  -13.4494 H   0  0  0  0  0  0  0  0  0  0  0  0
   -6.8718    1.8312  -14.9103 H   0  0  0  0  0  0  0  0  0  0  0  0
   -6.0502    3.6148  -12.6449 H   0  0  0  0  0  0  0  0  0  0  0  0
   -5.6354    3.7648  -14.3648 H   0  0  0  0  0  0  0  0  0  0  0  0
   -4.1790    2.6771  -12.2817 H   0  0  0  0  0  0  0  0  0  0  0  0
   -3.6677    2.5308  -13.9514 H   0  0  0  0  0  0  0  0  0  0  0  0
    2.6094    0.0379    1.9251 H   0  0  0  0  0  0  0  0  0  0  0  0
    2.6205    1.6344    1.1691 H   0  0  0  0  0  0  0  0  0  0  0  0
    4.8409    1.0980    0.0782 H   0  0  0  0  0  0  0  0  0  0  0  0
    4.8355   -0.4839    0.8220 H   0  0  0  0  0  0  0  0  0  0  0  0
    3.7893    2.7280    2.2455 H   0  0  0  0  0  0  0  0  0  0  0  0
    5.4185    3.1712    1.7446 H   0  0  0  0  0  0  0  0  0  0  0  0
    4.5485    3.4952    4.2810 H   0  0  0  0  0  0  0  0  0  0  0  0
    6.2086    2.9206    4.0014 H   0  0  0  0  0  0  0  0  0  0  0  0
    3.7765    1.3679    4.8607 H   0  0  0  0  0  0  0  0  0  0  0  0
    5.4732    1.1063    5.3099 H   0  0  0  0  0  0  0  0  0  0  0  0
    3.9734   -0.2461    3.3311 H   0  0  0  0  0  0  0  0  0  0  0  0
    5.6987   -0.4031    3.5389 H   0  0  0  0  0  0  0  0  0  0  0  0
  1  2  2  0  0  0  0
  2  3  1  0  0  0  0
  2 28  1  0  0  0  0
  3  4  1  0  0  0  0
  3 35  1  0  0  0  0
  4  5  2  0  0  0  0
  4  9  1  0  0  0  0
  5  6  1  0  0  0  0
  5 36  1  0  0  0  0
  6  7  2  0  0  0  0
  6 37  1  0  0  0  0
  7  8  1  0  0  0  0
  7 13  1  0  0  0  0
  8  9  2  0  0  0  0
  8 10  1  0  0  0  0
  9 38  1  0  0  0  0
 10 11  2  0  0  0  0
 11 12  1  0  0  0  0
 11 17  1  0  0  0  0
 12 13  2  0  0  0  0
 12 14  1  0  0  0  0
 13 39  1  0  0  0  0
 14 15  2  0  0  0  0
 14 40  1  0  0  0  0
 15 16  1  0  0  0  0
 15 41  1  0  0  0  0
 16 17  2  0  0  0  0
 16 18  1  0  0  0  0
 17 42  1  0  0  0  0
 18 19  1  0  0  0  0
 18 43  1  0  0  0  0
 19 20  2  0  0  0  0
 19 21  1  0  0  0  0
 21 22  1  0  0  0  0
 21 44  1  0  0  0  0
 21 45  1  0  0  0  0
 22 23  1  0  0  0  0
 22 46  1  0  0  0  0
 22 47  1  0  0  0  0
 23 24  1  0  0  0  0
 23 27  1  0  0  0  0
 24 25  1  0  0  0  0
 24 48  1  0  0  0  0
 24 49  1  0  0  0  0
 25 26  1  0  0  0  0
 25 50  1  0  0  0  0
 25 51  1  0  0  0  0
 26 27  1  0  0  0  0
 26 52  1  0  0  0  0
 26 53  1  0  0  0  0
 27 54  1  0  0  0  0
 27 55  1  0  0  0  0
 28 29  1  0  0  0  0
 28 56  1  0  0  0  0
 28 57  1  0  0  0  0
 29 30  1  0  0  0  0
 29 58  1  0  0  0  0
 29 59  1  0  0  0  0
 30 31  1  0  0  0  0
 30 34  1  0  0  0  0
 31 32  1  0  0  0  0
 31 60  1  0  0  0  0
 31 61  1  0  0  0  0
 32 33  1  0  0  0  0
 32 62  1  0  0  0  0
 32 63  1  0  0  0  0
 33 34  1  0  0  0  0
 33 64  1  0  0  0  0
 33 65  1  0  0  0  0
 34 66  1  0  0  0  0
 34 67  1  0  0  0  0
M  END
$$$$
