PYS
 OpenBabel04121316173D

 12 12  0  0  0  0  0  0  0  0999 V2000
    1.0231   -0.0357    0.0493 S   0  0  0  0  0  0  0  0  0  0  0  0
    2.7958    0.0737   -0.0279 C   0  0  0  0  0  0  0  0  0  0  0  0
    3.4419    1.3054   -0.0787 C   0  0  0  0  0  0  0  0  0  0  0  0
    4.8223    1.3258   -0.2761 C   0  0  0  0  0  0  0  0  0  0  0  0
    5.5185    0.1287   -0.3523 C   0  0  0  0  0  0  0  0  0  0  0  0
    4.8057   -1.0493   -0.2047 C   0  0  0  0  0  0  0  0  0  0  0  0
    3.4622   -1.0992   -0.0679 N   0  0  0  0  0  0  0  0  0  0  0  0
    0.7597    1.2750   -0.0151 H   0  0  0  0  0  0  0  0  0  0  0  0
    2.8963    2.2353    0.0195 H   0  0  0  0  0  0  0  0  0  0  0  0
    5.3482    2.2729   -0.3702 H   0  0  0  0  0  0  0  0  0  0  0  0
    6.5918    0.1091   -0.5096 H   0  0  0  0  0  0  0  0  0  0  0  0
    5.3083   -2.0108   -0.1898 H   0  0  0  0  0  0  0  0  0  0  0  0
  1  2  1  0  0  0  0
  1  8  1  0  0  0  0
  2  3  2  0  0  0  0
  2  7  1  0  0  0  0
  3  4  1  0  0  0  0
  3  9  1  0  0  0  0
  4  5  2  0  0  0  0
  4 10  1  0  0  0  0
  5  6  1  0  0  0  0
  5 11  1  0  0  0  0
  6  7  2  0  0  0  0
  6 12  1  0  0  0  0
M  END
$$$$
