PYV
 OpenBabel04121316173D

 35 37  0  0  0  0  0  0  0  0999 V2000
    0.9989   -0.1051    0.0991 Br  0  0  0  0  0  0  0  0  0  0  0  0
    2.9052   -0.0187    0.1459 C   0  0  0  0  0  0  0  0  0  0  0  0
    3.5820   -1.2355    0.0547 C   0  0  0  0  0  0  0  0  0  0  0  0
    4.9740   -1.2689    0.0640 C   0  0  0  0  0  0  0  0  0  0  0  0
    5.6979   -0.0760    0.1423 C   0  0  0  0  0  0  0  0  0  0  0  0
    5.0355    1.1780    0.1826 C   0  0  0  0  0  0  0  0  0  0  0  0
    3.6128    1.2044    0.2042 C   0  0  0  0  0  0  0  0  0  0  0  0
    2.9674    2.4587    0.2505 C   0  0  0  0  0  0  0  0  0  0  0  0
    3.6738    3.6417    0.0591 C   0  0  0  0  0  0  0  0  0  0  0  0
    5.0490    3.6057   -0.0686 C   0  0  0  0  0  0  0  0  0  0  0  0
    5.7220    2.4109    0.1427 C   0  0  0  0  0  0  0  0  0  0  0  0
    7.4765   -0.1131    0.0962 S   0  0  0  0  0  0  0  0  0  0  0  0
    7.8971    0.4895   -1.1456 O   0  0  0  0  0  0  0  0  0  0  0  0
    7.9579    0.3696    1.3775 O   0  0  0  0  0  0  0  0  0  0  0  0
    7.9158   -1.7334   -0.0175 N   0  0  0  0  0  0  0  0  0  0  0  0
    9.3937   -1.9038    0.0294 C   0  0  0  0  0  0  0  0  0  0  0  0
    9.8431   -3.3474   -0.0955 C   0  0  0  0  0  0  0  0  0  0  0  0
   11.0286   -3.6298   -0.7716 C   0  0  0  0  0  0  0  0  0  0  0  0
   11.3430   -4.9551   -1.0498 C   0  0  0  0  0  0  0  0  0  0  0  0
   10.5377   -5.9649   -0.5418 C   0  0  0  0  0  0  0  0  0  0  0  0
    9.4577   -5.6031    0.2443 C   0  0  0  0  0  0  0  0  0  0  0  0
    9.0679   -4.3242    0.4410 N   0  0  0  0  0  0  0  0  0  0  0  0
    3.0267   -2.1666   -0.0281 H   0  0  0  0  0  0  0  0  0  0  0  0
    5.4679   -2.2329    0.0005 H   0  0  0  0  0  0  0  0  0  0  0  0
    1.8912    2.5337    0.3840 H   0  0  0  0  0  0  0  0  0  0  0  0
    3.1465    4.5884    0.0082 H   0  0  0  0  0  0  0  0  0  0  0  0
    5.6102    4.4989   -0.3243 H   0  0  0  0  0  0  0  0  0  0  0  0
    6.8052    2.4706    0.2266 H   0  0  0  0  0  0  0  0  0  0  0  0
    7.5484   -2.1692   -0.8631 H   0  0  0  0  0  0  0  0  0  0  0  0
    9.8029   -1.4875    0.9540 H   0  0  0  0  0  0  0  0  0  0  0  0
    9.8105   -1.3550   -0.8261 H   0  0  0  0  0  0  0  0  0  0  0  0
   11.6855   -2.8321   -1.1038 H   0  0  0  0  0  0  0  0  0  0  0  0
   12.2124   -5.1959   -1.6544 H   0  0  0  0  0  0  0  0  0  0  0  0
   10.7615   -7.0078   -0.7340 H   0  0  0  0  0  0  0  0  0  0  0  0
    8.8637   -6.3548    0.7562 H   0  0  0  0  0  0  0  0  0  0  0  0
  1  2  1  0  0  0  0
  2  3  2  0  0  0  0
  2  7  1  0  0  0  0
  3  4  1  0  0  0  0
  3 23  1  0  0  0  0
  4  5  2  0  0  0  0
  4 24  1  0  0  0  0
  5  6  1  0  0  0  0
  5 12  1  0  0  0  0
  6  7  2  0  0  0  0
  6 11  1  0  0  0  0
  7  8  1  0  0  0  0
  8  9  2  0  0  0  0
  8 25  1  0  0  0  0
  9 10  1  0  0  0  0
  9 26  1  0  0  0  0
 10 11  2  0  0  0  0
 10 27  1  0  0  0  0
 11 28  1  0  0  0  0
 12 13  2  0  0  0  0
 12 14  2  0  0  0  0
 12 15  1  0  0  0  0
 15 16  1  0  0  0  0
 15 29  1  0  0  0  0
 16 17  1  0  0  0  0
 16 30  1  0  0  0  0
 16 31  1  0  0  0  0
 17 18  2  0  0  0  0
 17 22  1  0  0  0  0
 18 19  1  0  0  0  0
 18 32  1  0  0  0  0
 19 20  2  0  0  0  0
 19 33  1  0  0  0  0
 20 21  1  0  0  0  0
 20 34  1  0  0  0  0
 21 22  2  0  0  0  0
 21 35  1  0  0  0  0
M  END
$$$$
