PYZ
 OpenBabel04121316173D

  9  9  0  0  0  0  0  0  0  0999 V2000
    1.0546    0.0838    0.0716 I   0  0  0  0  0  0  0  0  0  0  0  0
    3.0629    0.0876    0.0764 C   0  0  0  0  0  0  0  0  0  0  0  0
    3.8864    1.1820    0.0786 C   0  0  0  0  0  0  0  0  0  0  0  0
    5.1570    0.6806    0.0859 N   0  0  0  0  0  0  0  0  0  0  0  0
    6.0341    1.1915    0.0922 H   0  0  0  0  0  0  0  0  0  0  0  0
    5.2037   -0.6647    0.0844 N   0  0  0  0  0  0  0  0  0  0  0  0
    3.9152   -1.0243    0.0782 C   0  0  0  0  0  0  0  0  0  0  0  0
    3.6987    2.2459    0.0769 H   0  0  0  0  0  0  0  0  0  0  0  0
    3.6654   -2.0775    0.0756 H   0  0  0  0  0  0  0  0  0  0  0  0
  1  2  1  0  0  0  0
  2  3  2  0  0  0  0
  2  7  1  0  0  0  0
  3  4  1  0  0  0  0
  3  8  1  0  0  0  0
  4  5  1  0  0  0  0
  4  6  1  0  0  0  0
  6  7  2  0  0  0  0
  7  9  1  0  0  0  0
M  END
$$$$
