PZ1
 OpenBabel04121316173D

 84 88  0  0  1  0  0  0  0  0999 V2000
   11.0657   13.6230   -7.8530 O   0  0  0  0  0  0  0  0  0  0  0  0
   11.5712   12.2830   -7.9623 C   0  0  0  0  0  0  0  0  0  0  0  0
   11.7332   11.6501   -6.5565 C   0  0  0  0  0  0  0  0  0  0  0  0
   12.1301   10.0598   -6.5111 C   0  0  0  0  0  0  0  0  0  0  0  0
   12.2091    9.4894   -5.0556 N   0  0  0  0  0  0  0  0  0  0  0  0
   13.2935   10.2611   -4.4595 C   0  0  0  0  0  0  0  0  0  0  0  0
   13.7783   10.0941   -3.1882 C   0  0  0  0  0  0  0  0  0  0  0  0
   13.0378    9.1472   -2.3991 C   0  0  0  0  0  0  0  0  0  0  0  0
   12.1020    8.3893   -3.0236 C   0  0  0  0  0  0  0  0  0  0  0  0
   12.1456    7.8517   -4.4245 C   0  0  1  0  0  0  0  0  0  0  0  0
   12.6657    7.3480   -5.2323 H   0  0  0  0  0  0  0  0  0  0  0  0
   11.3990    6.2557   -3.8276 C   0  0  0  0  0  0  0  0  0  0  0  0
   10.1127    6.0385   -3.4151 C   0  0  0  0  0  0  0  0  0  0  0  0
    9.4344    4.8761   -3.8639 O   0  0  0  0  0  0  0  0  0  0  0  0
    8.3356    4.0111   -3.3248 C   0  0  0  0  0  0  0  0  0  0  0  0
    6.9194    3.7839   -4.3254 C   0  0  1  0  0  0  0  0  0  0  0  0
    6.9436    2.8721   -3.7073 H   0  0  0  0  0  0  0  0  0  0  0  0
    7.2467    5.0618   -5.0572 C   0  0  0  0  0  0  0  0  0  0  0  0
    8.1986    4.8922   -6.1813 N   0  0  0  0  0  0  0  0  0  0  0  0
    7.4733    4.1948   -7.2318 C   0  0  0  0  0  0  0  0  0  0  0  0
    7.0016    2.8214   -6.7395 C   0  0  0  0  0  0  0  0  0  0  0  0
    7.0069    1.8474   -7.4621 O   0  0  0  0  0  0  0  0  0  0  0  0
    6.4592    2.8372   -5.4382 N   0  0  0  0  0  0  0  0  0  0  0  0
    5.0504    2.4604   -5.3379 C   0  0  0  0  0  0  0  0  0  0  0  0
    3.9806    3.3460   -5.5841 C   0  0  0  0  0  0  0  0  0  0  0  0
    2.6625    3.0088   -5.2025 C   0  0  0  0  0  0  0  0  0  0  0  0
    2.3797    1.7450   -4.6904 C   0  0  0  0  0  0  0  0  0  0  0  0
    3.4127    0.8145   -4.5984 C   0  0  0  0  0  0  0  0  0  0  0  0
    4.7391    1.1903   -4.8540 C   0  0  0  0  0  0  0  0  0  0  0  0
    1.0849    1.5286   -4.3059 O   0  0  0  0  0  0  0  0  0  0  0  0
    0.8323    0.2467   -3.7416 C   0  0  0  0  0  0  0  0  0  0  0  0
   -0.6059    0.1919   -3.2984 C   0  0  0  0  0  0  0  0  0  0  0  0
   -0.8942   -1.1710   -2.7453 C   0  0  0  0  0  0  0  0  0  0  0  0
   -2.2578   -1.1500   -2.3521 O   0  0  0  0  0  0  0  0  0  0  0  0
   -2.5723   -2.4353   -1.8587 C   0  0  0  0  0  0  0  0  0  0  0  0
   -3.9785   -2.6182   -1.3982 C   0  0  0  0  0  0  0  0  0  0  0  0
   -4.8150   -1.4877   -1.3756 C   0  0  0  0  0  0  0  0  0  0  0  0
   -6.0570   -1.5316   -0.7627 C   0  0  0  0  0  0  0  0  0  0  0  0
   -6.5442   -2.7473   -0.3060 C   0  0  0  0  0  0  0  0  0  0  0  0
   -5.7829   -3.9107   -0.4642 C   0  0  0  0  0  0  0  0  0  0  0  0
   -4.4636   -3.8542   -0.9368 C   0  0  0  0  0  0  0  0  0  0  0  0
   -3.8021   -5.0576   -0.8603 O   0  0  0  0  0  0  0  0  0  0  0  0
   -2.4226   -5.1365   -1.1981 C   0  0  0  0  0  0  0  0  0  0  0  0
    9.7366    7.4622   -3.3502 C   0  0  0  0  0  0  0  0  0  0  0  0
   10.6569    8.1723   -2.5412 C   0  0  0  0  0  0  0  0  0  0  0  0
   10.9099   13.9655   -8.7538 H   0  0  0  0  0  0  0  0  0  0  0  0
   12.5246   12.3570   -8.4987 H   0  0  0  0  0  0  0  0  0  0  0  0
   10.8587   11.7143   -8.5594 H   0  0  0  0  0  0  0  0  0  0  0  0
   10.8121   11.8135   -5.9887 H   0  0  0  0  0  0  0  0  0  0  0  0
   12.4745   12.2971   -6.0517 H   0  0  0  0  0  0  0  0  0  0  0  0
   13.1476   10.0571   -6.9499 H   0  0  0  0  0  0  0  0  0  0  0  0
   11.4752    9.4986   -7.1709 H   0  0  0  0  0  0  0  0  0  0  0  0
   13.7405   11.0600   -5.0430 H   0  0  0  0  0  0  0  0  0  0  0  0
   14.4786   10.8253   -2.7909 H   0  0  0  0  0  0  0  0  0  0  0  0
   13.0315    9.3841   -1.3437 H   0  0  0  0  0  0  0  0  0  0  0  0
   11.7888    5.9914   -2.7671 H   0  0  0  0  0  0  0  0  0  0  0  0
    7.8989    4.4754   -2.4254 H   0  0  0  0  0  0  0  0  0  0  0  0
    8.7391    3.0295   -3.0057 H   0  0  0  0  0  0  0  0  0  0  0  0
    7.5972    5.8440   -4.3829 H   0  0  0  0  0  0  0  0  0  0  0  0
    6.3261    5.5282   -5.4023 H   0  0  0  0  0  0  0  0  0  0  0  0
    8.9915    4.3012   -5.8867 H   0  0  0  0  0  0  0  0  0  0  0  0
    8.0943    4.0935   -8.1247 H   0  0  0  0  0  0  0  0  0  0  0  0
    6.5995    4.7993   -7.4982 H   0  0  0  0  0  0  0  0  0  0  0  0
    4.1313    4.3101   -6.0610 H   0  0  0  0  0  0  0  0  0  0  0  0
    1.8489    3.7299   -5.2952 H   0  0  0  0  0  0  0  0  0  0  0  0
    3.2257   -0.2138   -4.3079 H   0  0  0  0  0  0  0  0  0  0  0  0
    5.5300    0.4759   -4.6550 H   0  0  0  0  0  0  0  0  0  0  0  0
    1.4757    0.0643   -2.8695 H   0  0  0  0  0  0  0  0  0  0  0  0
    0.9995   -0.5310   -4.4975 H   0  0  0  0  0  0  0  0  0  0  0  0
   -1.2849    0.4051   -4.1318 H   0  0  0  0  0  0  0  0  0  0  0  0
   -0.8207    0.9530   -2.5394 H   0  0  0  0  0  0  0  0  0  0  0  0
   -0.2558   -1.3961   -1.8797 H   0  0  0  0  0  0  0  0  0  0  0  0
   -0.7294   -1.9479   -3.5054 H   0  0  0  0  0  0  0  0  0  0  0  0
   -1.9159   -2.5938   -0.9983 H   0  0  0  0  0  0  0  0  0  0  0  0
   -2.3837   -3.1180   -2.6855 H   0  0  0  0  0  0  0  0  0  0  0  0
   -4.4746   -0.5510   -1.8140 H   0  0  0  0  0  0  0  0  0  0  0  0
   -6.6322   -0.6178   -0.6501 H   0  0  0  0  0  0  0  0  0  0  0  0
   -7.5197   -2.7879    0.1690 H   0  0  0  0  0  0  0  0  0  0  0  0
   -6.2209   -4.8678   -0.1911 H   0  0  0  0  0  0  0  0  0  0  0  0
   -2.0383   -6.1418   -1.0210 H   0  0  0  0  0  0  0  0  0  0  0  0
   -1.8158   -4.4810   -0.5662 H   0  0  0  0  0  0  0  0  0  0  0  0
   -2.2800   -4.9612   -2.2670 H   0  0  0  0  0  0  0  0  0  0  0  0
    9.6615    7.6869   -4.4496 H   0  0  0  0  0  0  0  0  0  0  0  0
   10.8833    7.7814   -1.5443 H   0  0  0  0  0  0  0  0  0  0  0  0
  1  2  1  0  0  0  0
  1 46  1  0  0  0  0
  2  3  1  0  0  0  0
  2 47  1  0  0  0  0
  2 48  1  0  0  0  0
  3  4  1  0  0  0  0
  3 49  1  0  0  0  0
  3 50  1  0  0  0  0
  4  5  1  0  0  0  0
  4 51  1  0  0  0  0
  4 52  1  0  0  0  0
  5  6  1  0  0  0  0
  5 10  1  0  0  0  0
  6  7  2  0  0  0  0
  6 53  1  0  0  0  0
  7  8  1  0  0  0  0
  7 54  1  0  0  0  0
  8  9  2  0  0  0  0
  8 55  1  0  0  0  0
  9 10  1  0  0  0  0
  9 45  1  0  0  0  0
 10 11  1  6  0  0  0
 10 12  1  0  0  0  0
 12 13  2  0  0  0  0
 12 56  1  0  0  0  0
 13 14  1  0  0  0  0
 13 44  1  0  0  0  0
 14 15  1  0  0  0  0
 15 57  1  0  0  0  0
 15 58  1  0  0  0  0
 16 18  1  0  0  0  0
 16 23  1  0  0  0  0
 16 17  1  1  0  0  0
 16 15  1  0  0  0  0
 18 19  1  0  0  0  0
 18 59  1  0  0  0  0
 18 60  1  0  0  0  0
 19 20  1  0  0  0  0
 19 61  1  0  0  0  0
 20 21  1  0  0  0  0
 20 62  1  0  0  0  0
 20 63  1  0  0  0  0
 21 22  2  0  0  0  0
 21 23  1  0  0  0  0
 23 24  1  0  0  0  0
 24 25  2  0  0  0  0
 24 29  1  0  0  0  0
 25 26  1  0  0  0  0
 25 64  1  0  0  0  0
 26 27  2  0  0  0  0
 26 65  1  0  0  0  0
 27 28  1  0  0  0  0
 27 30  1  0  0  0  0
 28 29  2  0  0  0  0
 28 66  1  0  0  0  0
 29 67  1  0  0  0  0
 30 31  1  0  0  0  0
 31 32  1  0  0  0  0
 31 68  1  0  0  0  0
 31 69  1  0  0  0  0
 32 33  1  0  0  0  0
 32 70  1  0  0  0  0
 32 71  1  0  0  0  0
 33 34  1  0  0  0  0
 33 72  1  0  0  0  0
 33 73  1  0  0  0  0
 34 35  1  0  0  0  0
 35 36  1  0  0  0  0
 35 74  1  0  0  0  0
 35 75  1  0  0  0  0
 36 37  2  0  0  0  0
 36 41  1  0  0  0  0
 37 38  1  0  0  0  0
 37 76  1  0  0  0  0
 38 39  2  0  0  0  0
 38 77  1  0  0  0  0
 39 40  1  0  0  0  0
 39 78  1  0  0  0  0
 40 41  2  0  0  0  0
 40 79  1  0  0  0  0
 41 42  1  0  0  0  0
 42 43  1  0  0  0  0
 43 80  1  0  0  0  0
 43 81  1  0  0  0  0
 43 82  1  0  0  0  0
 44 45  2  0  0  0  0
 44 83  1  0  0  0  0
 45 84  1  0  0  0  0
M  END
$$$$
