PZN
 OpenBabel04121316173D

 85 86  0  0  1  0  0  0  0  0999 V2000
    0.8668    0.0286    0.0105 C   0  0  0  0  0  0  0  0  0  0  0  0
    2.3773    0.0343    0.0385 C   0  0  0  0  0  0  0  0  0  0  0  0
    2.9461   -0.5076   -1.2529 C   0  0  0  0  0  0  0  0  0  0  0  0
    4.4691   -0.4939   -1.1467 C   0  0  0  0  0  0  0  0  0  0  0  0
    5.0144   -0.9973   -2.4442 C   0  0  0  0  0  0  0  0  0  0  0  0
    6.5293   -1.0396   -2.5381 C   0  0  0  0  0  0  0  0  0  0  0  0
    6.9744   -1.6090   -3.8129 N   0  0  0  0  0  0  0  0  0  0  0  0
    6.4456   -0.8459   -4.9600 C   0  0  0  0  0  0  0  0  0  0  0  0
    4.9397   -1.0363   -5.2340 C   0  0  0  0  0  0  0  0  0  0  0  0
    4.3455   -2.0719   -4.9052 O   0  0  0  0  0  0  0  0  0  0  0  0
    4.2485    0.0005   -6.1267 C   0  0  1  0  0  0  0  0  0  0  0  0
    4.6255    1.0199   -5.9623 H   0  0  0  0  0  0  0  0  0  0  0  0
    4.6748   -0.5245   -7.4097 N   0  0  0  0  0  0  0  0  0  0  0  0
    5.9569   -0.2620   -7.8344 C   0  0  0  0  0  0  0  0  0  0  0  0
    6.7736    0.3846   -7.1785 O   0  0  0  0  0  0  0  0  0  0  0  0
    6.3186   -0.8582   -9.1749 C   0  0  1  0  0  0  0  0  0  0  0  0
    5.9946   -1.9076   -9.2007 H   0  0  0  0  0  0  0  0  0  0  0  0
    5.5689   -0.0569  -10.1101 N   0  0  0  0  0  0  0  0  0  0  0  0
    4.7783   -0.6226  -11.0648 C   0  0  0  0  0  0  0  0  0  0  0  0
    4.2406    0.1264  -12.0395 C   0  0  0  0  0  0  0  0  0  0  0  0
    4.4394    1.4946  -12.1419 N   0  0  0  0  0  0  0  0  0  0  0  0
    5.1654    2.0845  -11.2265 C   0  0  0  0  0  0  0  0  0  0  0  0
    5.8166    1.2952  -10.1133 C   0  0  0  0  0  0  0  0  0  0  0  0
    6.5783    1.8882   -9.3460 O   0  0  0  0  0  0  0  0  0  0  0  0
    5.3924    3.4376  -11.2934 N   0  0  0  0  0  0  0  0  0  0  0  0
    6.1451    4.2244  -10.3099 C   0  0  0  0  0  0  0  0  0  0  0  0
    6.2425    5.6744  -10.6281 C   0  0  0  0  0  0  0  0  0  0  0  0
    6.1725    6.6510   -9.7209 N   0  0  0  0  0  0  0  0  0  0  0  0
    6.2586    7.8272  -10.4672 O   0  0  0  0  0  0  0  0  0  0  0  0
    6.4161    7.5551  -11.8285 N   0  0  0  0  0  0  0  0  0  0  0  0
    6.4191    6.2245  -11.9059 C   0  0  0  0  0  0  0  0  0  0  0  0
    6.5783    5.4900  -13.1769 C   0  0  0  0  0  0  0  0  0  0  0  0
    3.3749   -0.5532  -13.1052 C   0  0  0  0  0  0  0  0  0  0  0  0
    4.2021   -1.6163  -13.8611 C   0  0  0  0  0  0  0  0  0  0  0  0
    2.1675   -1.2402  -12.4340 C   0  0  0  0  0  0  0  0  0  0  0  0
    2.8524    0.4725  -14.1243 C   0  0  0  0  0  0  0  0  0  0  0  0
    7.8322   -0.7595   -9.4111 C   0  0  0  0  0  0  0  0  0  0  0  0
    8.2082   -1.2165  -10.8042 C   0  0  0  0  0  0  0  0  0  0  0  0
    2.7401   -0.0713   -5.9137 C   0  0  0  0  0  0  0  0  0  0  0  0
    1.9307    0.7431   -6.9060 C   0  0  0  0  0  0  0  0  0  0  0  0
    2.5876    1.3732   -7.7792 O   0  0  0  0  0  0  0  0  0  0  0  0
    0.6797    0.6434   -6.7689 O   0  5  0  0  0  0  0  0  0  0  0  0
    8.4379   -1.5947   -3.8958 C   0  0  0  0  0  0  0  0  0  0  0  0
    0.4818    0.4165    0.9562 H   0  0  0  0  0  0  0  0  0  0  0  0
    0.4863   -0.9876   -0.1317 H   0  0  0  0  0  0  0  0  0  0  0  0
    0.4907    0.6555   -0.8039 H   0  0  0  0  0  0  0  0  0  0  0  0
    2.7381   -0.5773    0.8724 H   0  0  0  0  0  0  0  0  0  0  0  0
    2.7436    1.0555    0.1926 H   0  0  0  0  0  0  0  0  0  0  0  0
    2.6076    0.1022   -2.1038 H   0  0  0  0  0  0  0  0  0  0  0  0
    2.5825   -1.5271   -1.4427 H   0  0  0  0  0  0  0  0  0  0  0  0
    4.8152   -1.1265   -0.3262 H   0  0  0  0  0  0  0  0  0  0  0  0
    4.8260    0.5290   -0.9865 H   0  0  0  0  0  0  0  0  0  0  0  0
    4.6236   -0.2795   -3.1693 H   0  0  0  0  0  0  0  0  0  0  0  0
    4.6040   -1.9971   -2.6298 H   0  0  0  0  0  0  0  0  0  0  0  0
    6.9135   -1.6689   -1.7300 H   0  0  0  0  0  0  0  0  0  0  0  0
    6.9278   -0.0268   -2.4074 H   0  0  0  0  0  0  0  0  0  0  0  0
    6.9317   -1.2953   -5.8291 H   0  0  0  0  0  0  0  0  0  0  0  0
    6.7039    0.2182   -4.8671 H   0  0  0  0  0  0  0  0  0  0  0  0
    3.9440   -0.6242   -8.1079 H   0  0  0  0  0  0  0  0  0  0  0  0
    4.6286   -1.6961  -11.0040 H   0  0  0  0  0  0  0  0  0  0  0  0
    4.7270    3.9235  -11.8735 H   0  0  0  0  0  0  0  0  0  0  0  0
    7.1854    3.8633  -10.2995 H   0  0  0  0  0  0  0  0  0  0  0  0
    5.7298    4.0951   -9.3026 H   0  0  0  0  0  0  0  0  0  0  0  0
    6.6979    6.1595  -14.0279 H   0  0  0  0  0  0  0  0  0  0  0  0
    5.7011    4.8696  -13.3827 H   0  0  0  0  0  0  0  0  0  0  0  0
    7.4488    4.8266  -13.1144 H   0  0  0  0  0  0  0  0  0  0  0  0
    4.5713   -2.4048  -13.1941 H   0  0  0  0  0  0  0  0  0  0  0  0
    5.0740   -1.1668  -14.3502 H   0  0  0  0  0  0  0  0  0  0  0  0
    3.5994   -2.1105  -14.6308 H   0  0  0  0  0  0  0  0  0  0  0  0
    2.4766   -2.0182  -11.7254 H   0  0  0  0  0  0  0  0  0  0  0  0
    1.5264   -1.7259  -13.1770 H   0  0  0  0  0  0  0  0  0  0  0  0
    1.5595   -0.5157  -11.8803 H   0  0  0  0  0  0  0  0  0  0  0  0
    3.6810    0.9731  -14.6398 H   0  0  0  0  0  0  0  0  0  0  0  0
    2.2468    1.2424  -13.6315 H   0  0  0  0  0  0  0  0  0  0  0  0
    2.2284   -0.0057  -14.8853 H   0  0  0  0  0  0  0  0  0  0  0  0
    8.3628   -1.3448   -8.6525 H   0  0  0  0  0  0  0  0  0  0  0  0
    8.1959    0.2668   -9.2852 H   0  0  0  0  0  0  0  0  0  0  0  0
    7.9384   -2.2659  -10.9420 H   0  0  0  0  0  0  0  0  0  0  0  0
    9.2825   -1.0946  -10.9563 H   0  0  0  0  0  0  0  0  0  0  0  0
    7.6986   -0.6222  -11.5701 H   0  0  0  0  0  0  0  0  0  0  0  0
    2.4905    0.2631   -4.8966 H   0  0  0  0  0  0  0  0  0  0  0  0
    2.3913   -1.1088   -5.9943 H   0  0  0  0  0  0  0  0  0  0  0  0
    8.8636   -2.2297   -3.1149 H   0  0  0  0  0  0  0  0  0  0  0  0
    8.8466   -0.5822   -3.7944 H   0  0  0  0  0  0  0  0  0  0  0  0
    8.7873   -2.0008   -4.8544 H   0  0  0  0  0  0  0  0  0  0  0  0
  1  2  1  0  0  0  0
  1 44  1  0  0  0  0
  1 45  1  0  0  0  0
  1 46  1  0  0  0  0
  2  3  1  0  0  0  0
  2 47  1  0  0  0  0
  2 48  1  0  0  0  0
  3  4  1  0  0  0  0
  3 49  1  0  0  0  0
  3 50  1  0  0  0  0
  4  5  1  0  0  0  0
  4 51  1  0  0  0  0
  4 52  1  0  0  0  0
  5  6  1  0  0  0  0
  5 53  1  0  0  0  0
  5 54  1  0  0  0  0
  6  7  1  0  0  0  0
  6 55  1  0  0  0  0
  6 56  1  0  0  0  0
  7  8  1  0  0  0  0
  7 43  1  0  0  0  0
  8  9  1  0  0  0  0
  8 57  1  0  0  0  0
  8 58  1  0  0  0  0
  9 10  2  0  0  0  0
  9 11  1  0  0  0  0
 11 12  1  1  0  0  0
 11 13  1  0  0  0  0
 11 39  1  0  0  0  0
 13 14  1  0  0  0  0
 13 59  1  0  0  0  0
 14 15  2  0  0  0  0
 14 16  1  0  0  0  0
 16 17  1  6  0  0  0
 16 18  1  0  0  0  0
 16 37  1  0  0  0  0
 18 19  1  0  0  0  0
 18 23  1  0  0  0  0
 19 20  2  0  0  0  0
 19 60  1  0  0  0  0
 20 21  1  0  0  0  0
 20 33  1  0  0  0  0
 21 22  2  0  0  0  0
 22 23  1  0  0  0  0
 22 25  1  0  0  0  0
 23 24  2  0  0  0  0
 25 26  1  0  0  0  0
 25 61  1  0  0  0  0
 26 27  1  0  0  0  0
 26 62  1  0  0  0  0
 26 63  1  0  0  0  0
 27 28  2  0  0  0  0
 27 31  1  0  0  0  0
 28 29  1  0  0  0  0
 29 30  1  0  0  0  0
 30 31  2  0  0  0  0
 31 32  1  0  0  0  0
 32 64  1  0  0  0  0
 32 65  1  0  0  0  0
 32 66  1  0  0  0  0
 33 34  1  0  0  0  0
 33 35  1  0  0  0  0
 33 36  1  0  0  0  0
 34 67  1  0  0  0  0
 34 68  1  0  0  0  0
 34 69  1  0  0  0  0
 35 70  1  0  0  0  0
 35 71  1  0  0  0  0
 35 72  1  0  0  0  0
 36 73  1  0  0  0  0
 36 74  1  0  0  0  0
 36 75  1  0  0  0  0
 37 38  1  0  0  0  0
 37 76  1  0  0  0  0
 37 77  1  0  0  0  0
 38 78  1  0  0  0  0
 38 79  1  0  0  0  0
 38 80  1  0  0  0  0
 39 40  1  0  0  0  0
 39 81  1  0  0  0  0
 39 82  1  0  0  0  0
 40 41  2  0  0  0  0
 40 42  1  0  0  0  0
 43 83  1  0  0  0  0
 43 84  1  0  0  0  0
 43 85  1  0  0  0  0
M  CHG  1  42  -1
M  END
$$$$
