PZP
 OpenBabel04121316173D

 27 27  0  0  0  0  0  0  0  0999 V2000
    0.8952   -0.0189   -0.1009 N   0  0  0  0  0  0  0  0  0  0  0  0
    2.1859   -0.1882   -0.0405 C   0  0  0  0  0  0  0  0  0  0  0  0
    2.9316   -0.7619   -1.1657 C   0  0  0  0  0  0  0  0  0  0  0  0
    3.6722    0.0355   -2.0387 C   0  0  0  0  0  0  0  0  0  0  0  0
    3.8488    1.4935   -1.8817 C   0  0  0  0  0  0  0  0  0  0  0  0
    3.2103    1.9515   -0.6986 O   0  0  0  0  0  0  0  0  0  0  0  0
    3.3773    3.6566   -0.4588 P   0  0  0  0  0  0  0  0  0  0  0  0
    4.3935    3.8422   -1.5833 O   0  0  0  0  0  0  0  0  0  0  0  0
    1.8848    3.8640   -1.0635 O   0  0  0  0  0  0  0  0  0  0  0  0
    3.5443    5.3617   -0.2190 O   0  0  0  0  0  0  0  0  0  0  0  0
    4.2822   -0.5748   -3.1247 C   0  0  0  0  0  0  0  0  0  0  0  0
    4.2058   -1.8928   -3.3684 N   0  0  0  0  0  0  0  0  0  0  0  0
    3.5006   -2.6468   -2.4859 C   0  0  0  0  0  0  0  0  0  0  0  0
    2.8676   -2.1251   -1.3629 C   0  0  0  0  0  0  0  0  0  0  0  0
    2.2217   -2.8825   -0.4295 O   0  0  0  0  0  0  0  0  0  0  0  0
    3.4270   -4.1050   -2.7889 C   0  0  0  0  0  0  0  0  0  0  0  0
    0.5667    0.3952    0.7731 H   0  0  0  0  0  0  0  0  0  0  0  0
    2.7578    0.1548    0.8366 H   0  0  0  0  0  0  0  0  0  0  0  0
    3.4231    2.0077   -2.7523 H   0  0  0  0  0  0  0  0  0  0  0  0
    4.9281    1.6835   -1.8033 H   0  0  0  0  0  0  0  0  0  0  0  0
    1.4086    3.0116   -1.1045 H   0  0  0  0  0  0  0  0  0  0  0  0
    4.4981    5.5567   -0.1924 H   0  0  0  0  0  0  0  0  0  0  0  0
    4.8587    0.0003   -3.8503 H   0  0  0  0  0  0  0  0  0  0  0  0
    2.1033   -3.7864   -0.7527 H   0  0  0  0  0  0  0  0  0  0  0  0
    3.9682   -4.3417   -3.7080 H   0  0  0  0  0  0  0  0  0  0  0  0
    2.3796   -4.3923   -2.9183 H   0  0  0  0  0  0  0  0  0  0  0  0
    3.8692   -4.6693   -1.9638 H   0  0  0  0  0  0  0  0  0  0  0  0
  1  2  2  0  0  0  0
  1 17  1  0  0  0  0
  2  3  1  0  0  0  0
  2 18  1  0  0  0  0
  3  4  2  0  0  0  0
  3 14  1  0  0  0  0
  4  5  1  0  0  0  0
  4 11  1  0  0  0  0
  5  6  1  0  0  0  0
  5 19  1  0  0  0  0
  5 20  1  0  0  0  0
  6  7  1  0  0  0  0
  7  8  2  0  0  0  0
  7  9  1  0  0  0  0
  7 10  1  0  0  0  0
  9 21  1  0  0  0  0
 10 22  1  0  0  0  0
 11 12  2  0  0  0  0
 11 23  1  0  0  0  0
 12 13  1  0  0  0  0
 13 14  2  0  0  0  0
 13 16  1  0  0  0  0
 14 15  1  0  0  0  0
 15 24  1  0  0  0  0
 16 25  1  0  0  0  0
 16 26  1  0  0  0  0
 16 27  1  0  0  0  0
M  END
$$$$
