Q22
 OpenBabel04121316173D

 48 52  0  0  1  0  0  0  0  0999 V2000
   -0.5045    0.6376   -4.5312 O   0  0  0  0  0  0  0  0  0  0  0  0
    0.8558    0.6356   -4.5939 C   0  0  0  0  0  0  0  0  0  0  0  0
    1.5998   -0.4650   -5.0049 C   0  0  0  0  0  0  0  0  0  0  0  0
    3.0156   -0.4152   -5.0114 C   0  0  0  0  0  0  0  0  0  0  0  0
    3.7109    0.7660   -4.6668 C   0  0  0  0  0  0  0  0  0  0  0  0
    2.8802    1.8853   -4.3109 C   0  0  0  0  0  0  0  0  0  0  0  0
    1.4880    1.7993   -4.2243 C   0  0  0  0  0  0  0  0  0  0  0  0
    3.4326    3.1311   -3.8079 C   0  0  0  0  0  0  0  0  0  0  0  0
    4.2667    2.9719   -2.7683 C   0  0  0  0  0  0  0  0  0  0  0  0
    4.5030    1.5824   -2.3331 C   0  0  0  0  0  0  0  0  0  0  0  0
    4.5267    1.1282   -1.0685 C   0  0  0  0  0  0  0  0  0  0  0  0
    5.1732    2.1504   -0.1940 C   0  0  0  0  0  0  0  0  0  0  0  0
    6.6071    2.1861   -0.9949 C   0  0  0  0  0  0  0  0  0  0  0  0
    6.8086    1.8384   -2.3549 C   0  0  0  0  0  0  0  0  0  0  0  0
    5.6519    1.0343   -3.1013 C   0  0  2  0  0  0  0  0  0  0  0  0
    5.9031    0.0543   -2.7604 H   0  0  0  0  0  0  0  0  0  0  0  0
    5.1913    0.8629   -4.5419 N   0  0  0  0  0  0  0  0  0  0  0  0
    5.8511    0.0125   -5.5787 C   0  0  0  0  0  0  0  0  0  0  0  0
    6.7667   -1.1607   -5.2648 C   0  0  0  0  0  0  0  0  0  0  0  0
    7.0682   -1.6600   -4.0178 C   0  0  0  0  0  0  0  0  0  0  0  0
    8.0317   -2.5668   -3.7461 N   0  0  0  0  0  0  0  0  0  0  0  0
    8.6336   -3.1377   -4.7671 C   0  0  0  0  0  0  0  0  0  0  0  0
    8.2413   -2.7965   -6.0594 C   0  0  0  0  0  0  0  0  0  0  0  0
    7.3339   -1.7898   -6.3274 N   0  0  0  0  0  0  0  0  0  0  0  0
    8.8512   -3.5891   -7.0206 C   0  0  0  0  0  0  0  0  0  0  0  0
    8.5017   -3.4216   -8.3530 N   0  0  0  0  0  0  0  0  0  0  0  0
    9.7596   -4.5442   -6.7403 N   0  0  0  0  0  0  0  0  0  0  0  0
   10.0749   -4.7181   -5.4564 C   0  0  0  0  0  0  0  0  0  0  0  0
    9.5390   -4.0449   -4.4560 N   0  0  0  0  0  0  0  0  0  0  0  0
   10.9985   -5.6612   -5.1202 N   0  0  0  0  0  0  0  0  0  0  0  0
   -0.8432   -0.2016   -4.8765 H   0  0  0  0  0  0  0  0  0  0  0  0
    1.0952   -1.3787   -5.3065 H   0  0  0  0  0  0  0  0  0  0  0  0
    3.5265   -1.3385   -5.2704 H   0  0  0  0  0  0  0  0  0  0  0  0
    0.9130    2.6309   -3.8261 H   0  0  0  0  0  0  0  0  0  0  0  0
    3.1641    4.0874   -4.2123 H   0  0  0  0  0  0  0  0  0  0  0  0
    4.8660    3.8080   -2.4263 H   0  0  0  0  0  0  0  0  0  0  0  0
    4.9385    0.1250   -0.8922 H   0  0  0  0  0  0  0  0  0  0  0  0
    4.1277    2.5400   -0.0854 H   0  0  0  0  0  0  0  0  0  0  0  0
    5.2336    3.2608   -0.2348 H   0  0  0  0  0  0  0  0  0  0  0  0
    7.1324    1.5250   -0.2806 H   0  0  0  0  0  0  0  0  0  0  0  0
    7.3352    2.5801   -2.9555 H   0  0  0  0  0  0  0  0  0  0  0  0
    5.1101   -0.3939   -6.2884 H   0  0  0  0  0  0  0  0  0  0  0  0
    6.4096    0.6987   -6.2293 H   0  0  0  0  0  0  0  0  0  0  0  0
    6.5323   -1.4476   -3.1200 H   0  0  0  0  0  0  0  0  0  0  0  0
    7.8178   -2.7102   -8.5796 H   0  0  0  0  0  0  0  0  0  0  0  0
    8.9520   -3.9866   -9.0535 H   0  0  0  0  0  0  0  0  0  0  0  0
   11.4299   -6.1977   -5.8492 H   0  0  0  0  0  0  0  0  0  0  0  0
   11.2204   -5.7690   -4.1436 H   0  0  0  0  0  0  0  0  0  0  0  0
  1  2  1  0  0  0  0
  1 31  1  0  0  0  0
  2  3  2  0  0  0  0
  2  7  1  0  0  0  0
  3  4  1  0  0  0  0
  3 32  1  0  0  0  0
  4  5  2  0  0  0  0
  4 33  1  0  0  0  0
  5  6  1  0  0  0  0
  5 17  1  0  0  0  0
  6  7  2  0  0  0  0
  6  8  1  0  0  0  0
  7 34  1  0  0  0  0
  8  9  2  0  0  0  0
  8 35  1  0  0  0  0
  9 10  1  0  0  0  0
  9 36  1  0  0  0  0
 10 11  2  0  0  0  0
 10 15  1  0  0  0  0
 11 12  1  0  0  0  0
 11 37  1  0  0  0  0
 12 13  1  0  0  0  0
 12 38  1  0  0  0  0
 12 39  1  0  0  0  0
 13 14  2  0  0  0  0
 13 40  1  0  0  0  0
 14 15  1  0  0  0  0
 14 41  1  0  0  0  0
 15 17  1  0  0  0  0
 15 16  1  1  0  0  0
 17 18  1  0  0  0  0
 18 19  1  0  0  0  0
 18 42  1  0  0  0  0
 18 43  1  0  0  0  0
 19 20  2  0  0  0  0
 19 24  1  0  0  0  0
 20 21  1  0  0  0  0
 20 44  1  0  0  0  0
 21 22  2  0  0  0  0
 22 23  1  0  0  0  0
 22 29  1  0  0  0  0
 23 24  2  0  0  0  0
 23 25  1  0  0  0  0
 25 26  1  0  0  0  0
 25 27  2  0  0  0  0
 26 45  1  0  0  0  0
 26 46  1  0  0  0  0
 27 28  1  0  0  0  0
 28 29  2  0  0  0  0
 28 30  1  0  0  0  0
 30 47  1  0  0  0  0
 30 48  1  0  0  0  0
M  END
$$$$
