Q6W
 OpenBabel04121316173D

 69 74  0  0  0  0  0  0  0  0999 V2000
    0.8921    0.0144    0.0934 O   0  0  0  0  0  0  0  0  0  0  0  0
    2.1310    0.0304    0.0805 C   0  0  0  0  0  0  0  0  0  0  0  0
    2.8435    1.1556   -0.1777 N   0  0  0  0  0  0  0  0  0  0  0  0
    2.1722    2.3789   -0.4896 C   0  0  0  0  0  0  0  0  0  0  0  0
    3.1551    3.4958   -0.7241 C   0  0  0  0  0  0  0  0  0  0  0  0
    2.7378    4.7983   -0.4923 C   0  0  0  0  0  0  0  0  0  0  0  0
    3.5385    5.8396   -0.9356 C   0  0  0  0  0  0  0  0  0  0  0  0
    4.7737    5.5554   -1.5038 C   0  0  0  0  0  0  0  0  0  0  0  0
    5.1738    4.2314   -1.5773 C   0  0  0  0  0  0  0  0  0  0  0  0
    4.3825    3.1905   -1.2337 N   0  0  0  0  0  0  0  0  0  0  0  0
    2.9103   -1.2167    0.3597 C   0  0  0  0  0  0  0  0  0  0  0  0
    4.4180   -1.0451    0.4933 C   0  0  0  0  0  0  0  0  0  0  0  0
    5.1530   -2.2276    1.1044 C   0  0  0  0  0  0  0  0  0  0  0  0
    6.5356   -2.2213    0.9440 C   0  0  0  0  0  0  0  0  0  0  0  0
    7.1329   -3.4536    1.0026 C   0  0  0  0  0  0  0  0  0  0  0  0
    6.3023   -4.5820    0.8328 C   0  0  0  0  0  0  0  0  0  0  0  0
    5.1657   -4.6939    1.6081 C   0  0  0  0  0  0  0  0  0  0  0  0
    4.5121   -3.4236    1.6534 C   0  0  0  0  0  0  0  0  0  0  0  0
    4.5182   -6.1179    1.2639 C   0  0  0  0  0  0  0  0  0  0  0  0
    5.1435   -7.1504    1.1861 O   0  0  0  0  0  0  0  0  0  0  0  0
    3.2390   -6.1302    0.5465 C   0  0  0  0  0  0  0  0  0  0  0  0
    2.4935   -7.2452    0.2627 C   0  0  0  0  0  0  0  0  0  0  0  0
    1.1921   -7.1039   -0.2093 C   0  0  0  0  0  0  0  0  0  0  0  0
    0.7816   -5.8083   -0.4772 C   0  0  0  0  0  0  0  0  0  0  0  0
    1.7131   -4.8052   -0.6550 N   0  0  0  0  0  0  0  0  0  0  0  0
    3.0049   -5.1024   -0.2977 C   0  0  0  0  0  0  0  0  0  0  0  0
    4.2895   -4.4666   -0.9294 C   0  0  0  0  0  0  0  0  0  0  0  0
    5.6356   -4.7805   -0.6618 C   0  0  0  0  0  0  0  0  0  0  0  0
    0.4333   -8.3142   -0.3872 C   0  0  0  0  0  0  0  0  0  0  0  0
    0.8904   -9.6562   -0.3239 C   0  0  0  0  0  0  0  0  0  0  0  0
   -0.0877  -10.5355   -0.5050 N   0  0  0  0  0  0  0  0  0  0  0  0
   -1.1735   -9.7652   -0.6836 N   0  0  0  0  0  0  0  0  0  0  0  0
   -0.9088   -8.4247   -0.6412 C   0  0  0  0  0  0  0  0  0  0  0  0
   -2.4993  -10.3354   -0.8565 C   0  0  0  0  0  0  0  0  0  0  0  0
   -2.7578  -10.7573   -2.2992 C   0  0  0  0  0  0  0  0  0  0  0  0
   -2.0669  -12.0749   -2.6223 C   0  0  0  0  0  0  0  0  0  0  0  0
   -2.4841  -13.1237   -1.6881 N   0  0  0  0  0  0  0  0  0  0  0  0
   -2.1344  -12.7772   -0.3066 C   0  0  0  0  0  0  0  0  0  0  0  0
   -2.8000  -11.4710    0.1188 C   0  0  0  0  0  0  0  0  0  0  0  0
    3.8479    1.1701   -0.3156 H   0  0  0  0  0  0  0  0  0  0  0  0
    1.5073    2.6099    0.3490 H   0  0  0  0  0  0  0  0  0  0  0  0
    1.5634    2.2196   -1.3875 H   0  0  0  0  0  0  0  0  0  0  0  0
    1.7957    4.9926    0.0089 H   0  0  0  0  0  0  0  0  0  0  0  0
    3.1951    6.8641   -0.8378 H   0  0  0  0  0  0  0  0  0  0  0  0
    5.4159    6.3522   -1.8599 H   0  0  0  0  0  0  0  0  0  0  0  0
    6.1714    3.9712   -1.9210 H   0  0  0  0  0  0  0  0  0  0  0  0
    2.6572   -1.9127   -0.4481 H   0  0  0  0  0  0  0  0  0  0  0  0
    2.5115   -1.6036    1.2986 H   0  0  0  0  0  0  0  0  0  0  0  0
    4.6765   -0.1666    1.0892 H   0  0  0  0  0  0  0  0  0  0  0  0
    4.8082   -0.8490   -0.5280 H   0  0  0  0  0  0  0  0  0  0  0  0
    7.1141   -1.3173    0.7554 H   0  0  0  0  0  0  0  0  0  0  0  0
    8.1832   -3.5293    1.2874 H   0  0  0  0  0  0  0  0  0  0  0  0
    3.4301   -3.4135    1.7489 H   0  0  0  0  0  0  0  0  0  0  0  0
    2.9641   -8.2172    0.3361 H   0  0  0  0  0  0  0  0  0  0  0  0
   -0.2742   -5.5693   -0.6421 H   0  0  0  0  0  0  0  0  0  0  0  0
    4.0375   -3.4149   -0.9589 H   0  0  0  0  0  0  0  0  0  0  0  0
    6.0082   -5.8111   -0.7826 H   0  0  0  0  0  0  0  0  0  0  0  0
    1.8949  -10.0234   -0.1442 H   0  0  0  0  0  0  0  0  0  0  0  0
   -1.7003   -7.7027   -0.7706 H   0  0  0  0  0  0  0  0  0  0  0  0
   -3.1804   -9.5088   -0.6214 H   0  0  0  0  0  0  0  0  0  0  0  0
   -2.4348   -9.9816   -3.0040 H   0  0  0  0  0  0  0  0  0  0  0  0
   -3.8410  -10.8761   -2.4320 H   0  0  0  0  0  0  0  0  0  0  0  0
   -0.9772  -11.9594   -2.6145 H   0  0  0  0  0  0  0  0  0  0  0  0
   -2.3432  -12.3749   -3.6386 H   0  0  0  0  0  0  0  0  0  0  0  0
   -1.9907  -13.9828   -1.9336 H   0  0  0  0  0  0  0  0  0  0  0  0
   -1.0467  -12.7369   -0.1940 H   0  0  0  0  0  0  0  0  0  0  0  0
   -2.4715  -13.5772    0.3606 H   0  0  0  0  0  0  0  0  0  0  0  0
   -2.4954  -11.2003    1.1371 H   0  0  0  0  0  0  0  0  0  0  0  0
   -3.8877  -11.6160    0.1403 H   0  0  0  0  0  0  0  0  0  0  0  0
  1  2  2  0  0  0  0
  2  3  1  0  0  0  0
  2 11  1  0  0  0  0
  3  4  1  0  0  0  0
  3 40  1  0  0  0  0
  4  5  1  0  0  0  0
  4 41  1  0  0  0  0
  4 42  1  0  0  0  0
  5  6  2  0  0  0  0
  5 10  1  0  0  0  0
  6  7  1  0  0  0  0
  6 43  1  0  0  0  0
  7  8  2  0  0  0  0
  7 44  1  0  0  0  0
  8  9  1  0  0  0  0
  8 45  1  0  0  0  0
  9 10  2  0  0  0  0
  9 46  1  0  0  0  0
 11 12  1  0  0  0  0
 11 47  1  0  0  0  0
 11 48  1  0  0  0  0
 12 13  1  0  0  0  0
 12 49  1  0  0  0  0
 12 50  1  0  0  0  0
 13 14  2  0  0  0  0
 13 18  1  0  0  0  0
 14 15  1  0  0  0  0
 14 51  1  0  0  0  0
 15 16  2  0  0  0  0
 15 52  1  0  0  0  0
 16 17  1  0  0  0  0
 16 28  1  0  0  0  0
 17 18  2  0  0  0  0
 17 19  1  0  0  0  0
 18 53  1  0  0  0  0
 19 20  2  0  0  0  0
 19 21  1  0  0  0  0
 21 22  2  0  0  0  0
 21 26  1  0  0  0  0
 22 23  1  0  0  0  0
 22 54  1  0  0  0  0
 23 24  2  0  0  0  0
 23 29  1  0  0  0  0
 24 25  1  0  0  0  0
 24 55  1  0  0  0  0
 25 26  2  0  0  0  0
 26 27  1  0  0  0  0
 27 28  2  0  0  0  0
 27 56  1  0  0  0  0
 28 57  1  0  0  0  0
 29 30  1  0  0  0  0
 29 33  2  0  0  0  0
 30 31  2  0  0  0  0
 30 58  1  0  0  0  0
 31 32  1  0  0  0  0
 32 33  1  0  0  0  0
 32 34  1  0  0  0  0
 33 59  1  0  0  0  0
 34 35  1  0  0  0  0
 34 39  1  0  0  0  0
 34 60  1  0  0  0  0
 35 36  1  0  0  0  0
 35 61  1  0  0  0  0
 35 62  1  0  0  0  0
 36 37  1  0  0  0  0
 36 63  1  0  0  0  0
 36 64  1  0  0  0  0
 37 38  1  0  0  0  0
 37 65  1  0  0  0  0
 38 39  1  0  0  0  0
 38 66  1  0  0  0  0
 38 67  1  0  0  0  0
 39 68  1  0  0  0  0
 39 69  1  0  0  0  0
M  END
$$$$
