Q80
 OpenBabel04121316173D

 53 56  0  0  1  0  0  0  0  0999 V2000
    0.9411    0.1308    0.0456 Cl  0  0  0  0  0  0  0  0  0  0  0  0
    2.6578    0.1300   -0.0280 C   0  0  0  0  0  0  0  0  0  0  0  0
    3.3569    1.3347   -0.0520 C   0  0  0  0  0  0  0  0  0  0  0  0
    4.7398    1.3298   -0.2407 C   0  0  0  0  0  0  0  0  0  0  0  0
    5.4382    0.1169   -0.3206 C   0  0  0  0  0  0  0  0  0  0  0  0
    4.7251   -1.0825   -0.1790 C   0  0  0  0  0  0  0  0  0  0  0  0
    3.3377   -1.0796   -0.0841 C   0  0  0  0  0  0  0  0  0  0  0  0
    6.9204    0.1499   -0.6104 C   0  0  0  0  0  0  0  0  0  0  0  0
    7.5853   -1.2311   -0.6163 C   0  0  0  0  0  0  0  0  0  0  0  0
    9.0621   -1.2072   -1.0206 C   0  0  1  0  0  0  0  0  0  0  0  0
    9.7259   -0.1092   -0.3908 O   0  0  0  0  0  0  0  0  0  0  0  0
   11.0542   -0.5650   -0.1408 C   0  0  0  0  0  0  0  0  0  0  0  0
   10.9547   -2.0736   -0.0068 C   0  0  2  0  0  0  0  0  0  0  0  0
   11.7350   -2.5567   -0.6051 H   0  0  0  0  0  0  0  0  0  0  0  0
    9.6669   -2.4253   -0.5539 O   0  0  0  0  0  0  0  0  0  0  0  0
   11.1055   -2.4918    1.4603 C   0  0  0  0  0  0  0  0  0  0  0  0
   11.4123   -4.2939    1.6151 S   0  0  0  0  0  0  0  0  0  0  0  0
   11.6737   -4.5266    3.3655 C   0  0  0  0  0  0  0  0  0  0  0  0
   11.4391   -3.5498    4.3234 C   0  0  0  0  0  0  0  0  0  0  0  0
   11.8174   -3.7874    5.6445 C   0  0  0  0  0  0  0  0  0  0  0  0
   12.3608   -5.0206    6.0043 C   0  0  0  0  0  0  0  0  0  0  0  0
   12.4521   -5.9802    5.0123 C   0  0  0  0  0  0  0  0  0  0  0  0
   12.1483   -5.7482    3.7111 N   0  0  0  0  0  0  0  0  0  0  0  0
   12.8503   -5.2729    7.3956 C   0  0  0  0  0  0  0  0  0  0  0  0
   13.8650   -4.4295    7.7378 F   0  0  0  0  0  0  0  0  0  0  0  0
   11.8813   -5.0830    8.3322 F   0  0  0  0  0  0  0  0  0  0  0  0
   13.3285   -6.5304    7.5960 F   0  0  0  0  0  0  0  0  0  0  0  0
    9.0859   -1.1006   -2.5704 C   0  0  0  0  0  0  0  0  0  0  0  0
   10.4129   -1.1163   -3.1317 N   0  0  0  0  0  0  0  0  0  0  0  0
   11.1924   -0.0234   -3.3783 C   0  0  0  0  0  0  0  0  0  0  0  0
   12.4229   -0.3788   -3.6587 N   0  0  0  0  0  0  0  0  0  0  0  0
   12.4185   -1.7533   -3.6296 C   0  0  0  0  0  0  0  0  0  0  0  0
   11.1738   -2.2315   -3.3339 C   0  0  0  0  0  0  0  0  0  0  0  0
    2.8306    2.2785    0.0539 H   0  0  0  0  0  0  0  0  0  0  0  0
    5.2681    2.2772   -0.3371 H   0  0  0  0  0  0  0  0  0  0  0  0
    5.2242   -2.0473   -0.1609 H   0  0  0  0  0  0  0  0  0  0  0  0
    2.8056   -2.0260   -0.0631 H   0  0  0  0  0  0  0  0  0  0  0  0
    7.4100    0.7910    0.1318 H   0  0  0  0  0  0  0  0  0  0  0  0
    7.0465    0.6287   -1.5903 H   0  0  0  0  0  0  0  0  0  0  0  0
    7.0536   -1.8955   -1.3146 H   0  0  0  0  0  0  0  0  0  0  0  0
    7.4730   -1.6953    0.3709 H   0  0  0  0  0  0  0  0  0  0  0  0
   11.4805   -0.0489    0.7225 H   0  0  0  0  0  0  0  0  0  0  0  0
   11.6935   -0.2941   -0.9789 H   0  0  0  0  0  0  0  0  0  0  0  0
   11.9600   -1.9618    1.9000 H   0  0  0  0  0  0  0  0  0  0  0  0
   10.1958   -2.2420    2.0125 H   0  0  0  0  0  0  0  0  0  0  0  0
   10.9831   -2.5999    4.0795 H   0  0  0  0  0  0  0  0  0  0  0  0
   11.6972   -3.0029    6.3893 H   0  0  0  0  0  0  0  0  0  0  0  0
   12.7860   -6.9943    5.2266 H   0  0  0  0  0  0  0  0  0  0  0  0
    8.6127   -0.1727   -2.9107 H   0  0  0  0  0  0  0  0  0  0  0  0
    8.5490   -1.9424   -3.0267 H   0  0  0  0  0  0  0  0  0  0  0  0
   10.8389    0.9954   -3.2439 H   0  0  0  0  0  0  0  0  0  0  0  0
   13.3252   -2.3253   -3.7924 H   0  0  0  0  0  0  0  0  0  0  0  0
   10.7876   -3.2331   -3.1642 H   0  0  0  0  0  0  0  0  0  0  0  0
  1  2  1  0  0  0  0
  2  3  2  0  0  0  0
  2  7  1  0  0  0  0
  3  4  1  0  0  0  0
  3 34  1  0  0  0  0
  4  5  2  0  0  0  0
  4 35  1  0  0  0  0
  5  6  1  0  0  0  0
  5  8  1  0  0  0  0
  6  7  2  0  0  0  0
  6 36  1  0  0  0  0
  7 37  1  0  0  0  0
  8  9  1  0  0  0  0
  8 38  1  0  0  0  0
  8 39  1  0  0  0  0
  9 40  1  0  0  0  0
  9 41  1  0  0  0  0
 10  9  1  1  0  0  0
 10 11  1  0  0  0  0
 10 15  1  0  0  0  0
 10 28  1  0  0  0  0
 11 12  1  0  0  0  0
 12 13  1  0  0  0  0
 12 42  1  0  0  0  0
 12 43  1  0  0  0  0
 13 15  1  0  0  0  0
 13 16  1  0  0  0  0
 13 14  1  6  0  0  0
 16 17  1  0  0  0  0
 16 44  1  0  0  0  0
 16 45  1  0  0  0  0
 17 18  1  0  0  0  0
 18 19  2  0  0  0  0
 18 23  1  0  0  0  0
 19 20  1  0  0  0  0
 19 46  1  0  0  0  0
 20 21  2  0  0  0  0
 20 47  1  0  0  0  0
 21 22  1  0  0  0  0
 21 24  1  0  0  0  0
 22 23  2  0  0  0  0
 22 48  1  0  0  0  0
 24 25  1  0  0  0  0
 24 26  1  0  0  0  0
 24 27  1  0  0  0  0
 28 29  1  0  0  0  0
 28 49  1  0  0  0  0
 28 50  1  0  0  0  0
 29 30  1  0  0  0  0
 29 33  1  0  0  0  0
 30 31  2  0  0  0  0
 30 51  1  0  0  0  0
 31 32  1  0  0  0  0
 32 33  2  0  0  0  0
 32 52  1  0  0  0  0
 33 53  1  0  0  0  0
M  END
$$$$
