Q88
 OpenBabel04121316173D

 17 18  0  0  0  0  0  0  0  0999 V2000
    1.0586   -0.0094   -0.0418 N   0  0  0  0  0  0  0  0  0  0  0  0
    2.3913   -0.0731   -0.0422 C   0  0  0  0  0  0  0  0  0  0  0  0
    3.1659    1.0586   -0.0425 N   0  0  0  0  0  0  0  0  0  0  0  0
    2.8399    2.0099   -0.0426 H   0  0  0  0  0  0  0  0  0  0  0  0
    4.4740    0.6638   -0.0414 C   0  0  0  0  0  0  0  0  0  0  0  0
    4.4230   -0.7178   -0.0416 C   0  0  0  0  0  0  0  0  0  0  0  0
    3.1172   -1.1626   -0.0421 N   0  0  0  0  0  0  0  0  0  0  0  0
    5.6511   -1.3955   -0.0408 C   0  0  0  0  0  0  0  0  0  0  0  0
    5.7331   -2.7688   -0.0419 N   0  0  0  0  0  0  0  0  0  0  0  0
    6.7907   -0.6663   -0.0388 N   0  0  0  0  0  0  0  0  0  0  0  0
    6.6862    0.6829   -0.0380 C   0  0  0  0  0  0  0  0  0  0  0  0
    5.5675    1.4422   -0.0399 N   0  0  0  0  0  0  0  0  0  0  0  0
    0.5029    0.8350   -0.0421 H   0  0  0  0  0  0  0  0  0  0  0  0
    0.5366   -0.8812   -0.0415 H   0  0  0  0  0  0  0  0  0  0  0  0
    4.8734   -3.2999   -0.0381 H   0  0  0  0  0  0  0  0  0  0  0  0
    6.6399   -3.2043   -0.0375 H   0  0  0  0  0  0  0  0  0  0  0  0
    7.6287    1.2246   -0.0350 H   0  0  0  0  0  0  0  0  0  0  0  0
  1  2  1  0  0  0  0
  1 13  1  0  0  0  0
  1 14  1  0  0  0  0
  2  3  1  0  0  0  0
  2  7  2  0  0  0  0
  3  4  1  0  0  0  0
  3  5  1  0  0  0  0
  5  6  2  0  0  0  0
  5 12  1  0  0  0  0
  6  7  1  0  0  0  0
  6  8  1  0  0  0  0
  8  9  1  0  0  0  0
  8 10  2  0  0  0  0
  9 15  1  0  0  0  0
  9 16  1  0  0  0  0
 10 11  1  0  0  0  0
 11 12  2  0  0  0  0
 11 17  1  0  0  0  0
M  END
$$$$
