QDK
 OpenBabel04121316173D

 20 19  0  0  1  0  0  0  0  0999 V2000
    0.9882   -0.0861   -0.1413 O   0  0  0  0  0  0  0  0  0  0  0  0
    2.4067   -0.0689   -0.1133 C   0  0  0  0  0  0  0  0  0  0  0  0
    2.9354    0.1466    1.3097 C   0  0  1  0  0  0  0  0  0  0  0  0
    2.6094    1.1261    1.6841 H   0  0  0  0  0  0  0  0  0  0  0  0
    2.4434   -0.9566    2.2793 C   0  0  1  0  0  0  0  0  0  0  0  0
    2.8561   -1.9289    1.9916 H   0  0  0  0  0  0  0  0  0  0  0  0
    2.9124   -0.6537    3.7132 C   0  0  0  0  0  0  0  0  0  0  0  0
    2.1278   -0.4278    4.6455 O   0  0  0  0  0  0  0  0  0  0  0  0
    4.4189   -0.6395    3.9683 C   0  0  0  0  0  0  0  0  0  0  0  0
    4.7376   -0.4137    5.3341 O   0  0  0  0  0  0  0  0  0  0  0  0
    1.0195   -1.0936    2.2749 O   0  0  0  0  0  0  0  0  0  0  0  0
    4.3653    0.1406    1.2242 O   0  0  0  0  0  0  0  0  0  0  0  0
    0.7194   -0.2034   -1.0710 H   0  0  0  0  0  0  0  0  0  0  0  0
    2.7716    0.7251   -0.7743 H   0  0  0  0  0  0  0  0  0  0  0  0
    2.7809   -1.0207   -0.5061 H   0  0  0  0  0  0  0  0  0  0  0  0
    4.8838    0.1766    3.4185 H   0  0  0  0  0  0  0  0  0  0  0  0
    4.8478   -1.5975    3.6624 H   0  0  0  0  0  0  0  0  0  0  0  0
    4.1573    0.3185    5.6193 H   0  0  0  0  0  0  0  0  0  0  0  0
    0.6935   -0.9214    1.3680 H   0  0  0  0  0  0  0  0  0  0  0  0
    4.6437    0.9321    0.7270 H   0  0  0  0  0  0  0  0  0  0  0  0
  1  2  1  0  0  0  0
  1 13  1  0  0  0  0
  2  3  1  0  0  0  0
  2 14  1  0  0  0  0
  2 15  1  0  0  0  0
  3  4  1  1  0  0  0
  3  5  1  0  0  0  0
  3 12  1  0  0  0  0
  5  6  1  6  0  0  0
  5  7  1  0  0  0  0
  5 11  1  0  0  0  0
  7  8  2  0  0  0  0
  7  9  1  0  0  0  0
  9 10  1  0  0  0  0
  9 16  1  0  0  0  0
  9 17  1  0  0  0  0
 10 18  1  0  0  0  0
 11 19  1  0  0  0  0
 12 20  1  0  0  0  0
M  END
$$$$
