QLI
 OpenBabel04121316183D

 27 27  0  0  1  0  0  0  0  0999 V2000
    0.8473   -0.0742    0.0265 C   0  0  0  0  0  0  0  0  0  0  0  0
    2.1763   -0.2160   -0.1026 C   0  0  0  0  0  0  0  0  0  0  0  0
    2.7019   -1.1667   -1.1743 C   0  0  0  0  0  0  0  0  0  0  0  0
    3.8180   -1.2119   -1.6726 O   0  0  0  0  0  0  0  0  0  0  0  0
    1.8368   -2.0893   -1.6324 O   0  0  0  0  0  0  0  0  0  0  0  0
    2.9016    0.5748    0.7810 O   0  0  0  0  0  0  0  0  0  0  0  0
    4.3141    0.7052    0.9984 C   0  0  1  0  0  0  0  0  0  0  0  0
    4.4786    0.3830    2.0364 H   0  0  0  0  0  0  0  0  0  0  0  0
    5.1472   -0.1789    0.1602 C   0  0  0  0  0  0  0  0  0  0  0  0
    5.8084    0.2734   -0.9153 C   0  0  0  0  0  0  0  0  0  0  0  0
    5.9630    1.6768   -1.1839 C   0  0  0  0  0  0  0  0  0  0  0  0
    5.5144    2.5995   -0.3140 C   0  0  0  0  0  0  0  0  0  0  0  0
    4.7061    2.2199    0.8994 C   0  0  2  0  0  0  0  0  0  0  0  0
    3.7742    2.8035    0.8574 H   0  0  0  0  0  0  0  0  0  0  0  0
    5.4565    2.5653    2.1276 N   0  0  0  0  0  0  0  0  0  0  0  0
    5.9091    4.0096   -0.5424 C   0  0  0  0  0  0  0  0  0  0  0  0
    6.6385    4.3700   -1.4524 O   0  0  0  0  0  0  0  0  0  0  0  0
    5.4827    4.8732    0.4068 O   0  0  0  0  0  0  0  0  0  0  0  0
    0.1117   -0.5935   -0.5616 H   0  0  0  0  0  0  0  0  0  0  0  0
    0.4339    0.6128    0.7607 H   0  0  0  0  0  0  0  0  0  0  0  0
    0.9031   -1.8546   -1.5932 H   0  0  0  0  0  0  0  0  0  0  0  0
    5.0061   -1.2405    0.3404 H   0  0  0  0  0  0  0  0  0  0  0  0
    6.1356   -0.4354   -1.6748 H   0  0  0  0  0  0  0  0  0  0  0  0
    6.5334    1.9346   -2.0749 H   0  0  0  0  0  0  0  0  0  0  0  0
    5.9678    3.4427    2.0537 H   0  0  0  0  0  0  0  0  0  0  0  0
    6.2080    1.8706    2.2019 H   0  0  0  0  0  0  0  0  0  0  0  0
    4.8460    4.5406    1.0681 H   0  0  0  0  0  0  0  0  0  0  0  0
  1  2  2  0  0  0  0
  1 19  1  0  0  0  0
  1 20  1  0  0  0  0
  2  3  1  0  0  0  0
  2  6  1  0  0  0  0
  3  4  2  0  0  0  0
  3  5  1  0  0  0  0
  5 21  1  0  0  0  0
  6  7  1  0  0  0  0
  7  8  1  1  0  0  0
  7  9  1  0  0  0  0
  7 13  1  0  0  0  0
  9 10  2  0  0  0  0
  9 22  1  0  0  0  0
 10 11  1  0  0  0  0
 10 23  1  0  0  0  0
 11 12  2  0  0  0  0
 11 24  1  0  0  0  0
 12 13  1  0  0  0  0
 12 16  1  0  0  0  0
 13 14  1  6  0  0  0
 13 15  1  0  0  0  0
 15 25  1  0  0  0  0
 15 26  1  0  0  0  0
 16 17  2  0  0  0  0
 16 18  1  0  0  0  0
 18 27  1  0  0  0  0
M  END
$$$$
