QO9
 OpenBabel04121316183D

 81 83  0  0  1  0  0  0  0  0999 V2000
    5.5164    1.2411   -1.0538 N   0  0  0  0  0  0  0  0  0  0  0  0
    4.4663    0.5310   -0.5715 C   0  0  0  0  0  0  0  0  0  0  0  0
    4.4862   -0.7965   -0.6127 C   0  0  0  0  0  0  0  0  0  0  0  0
    2.9668   -1.4178   -0.1506 S   0  0  0  0  0  0  0  0  0  0  0  0
    3.1601   -2.2833    0.9774 O   0  0  0  0  0  0  0  0  0  0  0  0
    2.1679   -1.8584   -1.2793 O   0  0  0  0  0  0  0  0  0  0  0  0
    2.3486    0.0259    0.2976 O   0  0  0  0  0  0  0  0  0  0  0  0
    3.1277    1.1534   -0.1414 C   0  0  1  0  0  0  0  0  0  0  0  0
    3.0610    2.1987    1.0066 C   0  0  1  0  0  0  0  0  0  0  0  0
    2.3359    1.8951    1.7694 H   0  0  0  0  0  0  0  0  0  0  0  0
    4.3877    2.5034    1.6689 C   0  0  0  0  0  0  0  0  0  0  0  0
    4.7314    1.6576    2.7493 O   0  0  0  0  0  0  0  0  0  0  0  0
    6.2981    1.8465    3.3522 Si  0  0  0  0  0  0  0  0  0  0  0  0
    7.7076    1.2690    1.9674 C   0  0  0  0  0  0  0  0  0  0  0  0
    7.7136    2.2147    0.7646 C   0  0  0  0  0  0  0  0  0  0  0  0
    9.1173    1.3997    2.5429 C   0  0  0  0  0  0  0  0  0  0  0  0
    7.4119   -0.1964    1.5878 C   0  0  0  0  0  0  0  0  0  0  0  0
    6.6577    3.6473    3.6930 C   0  0  0  0  0  0  0  0  0  0  0  0
    6.5677    0.7714    4.8382 C   0  0  0  0  0  0  0  0  0  0  0  0
    2.6078    3.4631    0.4921 O   0  0  0  0  0  0  0  0  0  0  0  0
    2.3981    3.3804   -0.9092 C   0  0  2  0  0  0  0  0  0  0  0  0
    1.3513    3.6696   -1.0824 H   0  0  0  0  0  0  0  0  0  0  0  0
    2.5903    1.9068   -1.3770 C   0  0  2  0  0  0  0  0  0  0  0  0
    3.3790    1.9259   -2.1012 H   0  0  0  0  0  0  0  0  0  0  0  0
    1.4804    1.3050   -2.0687 O   0  0  0  0  0  0  0  0  0  0  0  0
    1.7268    0.5392   -3.5762 Si  0  0  0  0  0  0  0  0  0  0  0  0
    2.4338    1.8209   -4.9652 C   0  0  0  0  0  0  0  0  0  0  0  0
    3.7390    2.4039   -4.4827 C   0  0  0  0  0  0  0  0  0  0  0  0
    2.7588    1.1089   -6.2724 C   0  0  0  0  0  0  0  0  0  0  0  0
    1.4379    2.9767   -5.1316 C   0  0  0  0  0  0  0  0  0  0  0  0
    3.0493   -0.7943   -3.6502 C   0  0  0  0  0  0  0  0  0  0  0  0
    0.1433   -0.1439   -4.2700 C   0  0  0  0  0  0  0  0  0  0  0  0
    3.2344    4.4625   -1.5441 N   0  0  0  0  0  0  0  0  0  0  0  0
    2.8643    5.7775   -1.3385 C   0  0  0  0  0  0  0  0  0  0  0  0
    3.3325    6.7656   -2.1140 C   0  0  0  0  0  0  0  0  0  0  0  0
    2.9440    8.1868   -1.9919 C   0  0  0  0  0  0  0  0  0  0  0  0
    4.2656    6.4418   -3.2161 C   0  0  0  0  0  0  0  0  0  0  0  0
    4.6570    7.2642   -4.0333 O   0  0  0  0  0  0  0  0  0  0  0  0
    4.7170    5.1710   -3.2055 N   0  0  0  0  0  0  0  0  0  0  0  0
    5.4414    4.9148   -3.8592 H   0  0  0  0  0  0  0  0  0  0  0  0
    4.3982    4.2580   -2.2552 C   0  0  0  0  0  0  0  0  0  0  0  0
    5.1452    3.2984   -2.1537 O   0  0  0  0  0  0  0  0  0  0  0  0
    6.4570    0.8689   -1.0174 H   0  0  0  0  0  0  0  0  0  0  0  0
    5.4719    2.2690   -1.0832 H   0  0  0  0  0  0  0  0  0  0  0  0
    5.3407   -1.3711   -0.9319 H   0  0  0  0  0  0  0  0  0  0  0  0
    5.1104    2.3400    0.9124 H   0  0  0  0  0  0  0  0  0  0  0  0
    4.4953    3.5660    1.9169 H   0  0  0  0  0  0  0  0  0  0  0  0
    7.9687    3.2492    1.0087 H   0  0  0  0  0  0  0  0  0  0  0  0
    6.7383    2.3125    0.3669 H   0  0  0  0  0  0  0  0  0  0  0  0
    8.3466    1.8528   -0.0501 H   0  0  0  0  0  0  0  0  0  0  0  0
    9.3304    2.4466    2.7891 H   0  0  0  0  0  0  0  0  0  0  0  0
    9.8467    1.0881    1.7862 H   0  0  0  0  0  0  0  0  0  0  0  0
    9.2594    0.7935    3.4372 H   0  0  0  0  0  0  0  0  0  0  0  0
    6.3867   -0.3289    1.2381 H   0  0  0  0  0  0  0  0  0  0  0  0
    7.5274   -0.8646    2.4496 H   0  0  0  0  0  0  0  0  0  0  0  0
    8.0848   -0.5488    0.8006 H   0  0  0  0  0  0  0  0  0  0  0  0
    6.5500    4.2463    2.7827 H   0  0  0  0  0  0  0  0  0  0  0  0
    7.6765    3.7775    4.0622 H   0  0  0  0  0  0  0  0  0  0  0  0
    5.9538    4.0271    4.4358 H   0  0  0  0  0  0  0  0  0  0  0  0
    6.4038   -0.2810    4.5881 H   0  0  0  0  0  0  0  0  0  0  0  0
    5.8685    1.0513    5.6282 H   0  0  0  0  0  0  0  0  0  0  0  0
    7.5875    0.8814    5.2137 H   0  0  0  0  0  0  0  0  0  0  0  0
    4.4573    1.6674   -4.1053 H   0  0  0  0  0  0  0  0  0  0  0  0
    3.4017    3.0371   -3.6887 H   0  0  0  0  0  0  0  0  0  0  0  0
    4.2397    3.0584   -5.1976 H   0  0  0  0  0  0  0  0  0  0  0  0
    3.5172    0.3322   -6.1248 H   0  0  0  0  0  0  0  0  0  0  0  0
    3.1938    1.8170   -6.9825 H   0  0  0  0  0  0  0  0  0  0  0  0
    1.8741    0.6475   -6.7100 H   0  0  0  0  0  0  0  0  0  0  0  0
    1.2372    3.4721   -4.1700 H   0  0  0  0  0  0  0  0  0  0  0  0
    0.4829    2.6298   -5.5297 H   0  0  0  0  0  0  0  0  0  0  0  0
    1.8532    3.7344   -5.8024 H   0  0  0  0  0  0  0  0  0  0  0  0
    3.9147   -0.5040   -3.0595 H   0  0  0  0  0  0  0  0  0  0  0  0
    3.4257   -1.0168   -4.6469 H   0  0  0  0  0  0  0  0  0  0  0  0
    2.6388   -1.7470   -3.3363 H   0  0  0  0  0  0  0  0  0  0  0  0
   -0.5806    0.6556   -4.4423 H   0  0  0  0  0  0  0  0  0  0  0  0
   -0.2862   -0.8700   -3.5772 H   0  0  0  0  0  0  0  0  0  0  0  0
    0.3440   -0.6444   -5.2211 H   0  0  0  0  0  0  0  0  0  0  0  0
    2.1967    5.9647   -0.5020 H   0  0  0  0  0  0  0  0  0  0  0  0
    2.2695    8.3362   -1.1463 H   0  0  0  0  0  0  0  0  0  0  0  0
    2.4274    8.4929   -2.9063 H   0  0  0  0  0  0  0  0  0  0  0  0
    3.8305    8.8117   -1.8526 H   0  0  0  0  0  0  0  0  0  0  0  0
  1  2  1  0  0  0  0
  1 43  1  0  0  0  0
  1 44  1  0  0  0  0
  2  3  2  0  0  0  0
  2  8  1  0  0  0  0
  3  4  1  0  0  0  0
  3 45  1  0  0  0  0
  4  5  2  0  0  0  0
  4  6  2  0  0  0  0
  4  7  1  0  0  0  0
  8  7  1  1  0  0  0
  8  9  1  0  0  0  0
  8 23  1  0  0  0  0
  9 20  1  0  0  0  0
  9 11  1  0  0  0  0
  9 10  1  1  0  0  0
 11 12  1  0  0  0  0
 11 46  1  0  0  0  0
 11 47  1  0  0  0  0
 12 13  1  0  0  0  0
 13 14  1  0  0  0  0
 13 18  1  0  0  0  0
 13 19  1  0  0  0  0
 14 15  1  0  0  0  0
 14 16  1  0  0  0  0
 14 17  1  0  0  0  0
 15 48  1  0  0  0  0
 15 49  1  0  0  0  0
 15 50  1  0  0  0  0
 16 51  1  0  0  0  0
 16 52  1  0  0  0  0
 16 53  1  0  0  0  0
 17 54  1  0  0  0  0
 17 55  1  0  0  0  0
 17 56  1  0  0  0  0
 18 57  1  0  0  0  0
 18 58  1  0  0  0  0
 18 59  1  0  0  0  0
 19 60  1  0  0  0  0
 19 61  1  0  0  0  0
 19 62  1  0  0  0  0
 20 21  1  0  0  0  0
 21 22  1  6  0  0  0
 21 23  1  0  0  0  0
 21 33  1  0  0  0  0
 23 25  1  0  0  0  0
 23 24  1  6  0  0  0
 25 26  1  0  0  0  0
 26 27  1  0  0  0  0
 26 31  1  0  0  0  0
 26 32  1  0  0  0  0
 27 28  1  0  0  0  0
 27 29  1  0  0  0  0
 27 30  1  0  0  0  0
 28 63  1  0  0  0  0
 28 64  1  0  0  0  0
 28 65  1  0  0  0  0
 29 66  1  0  0  0  0
 29 67  1  0  0  0  0
 29 68  1  0  0  0  0
 30 69  1  0  0  0  0
 30 70  1  0  0  0  0
 30 71  1  0  0  0  0
 31 72  1  0  0  0  0
 31 73  1  0  0  0  0
 31 74  1  0  0  0  0
 32 75  1  0  0  0  0
 32 76  1  0  0  0  0
 32 77  1  0  0  0  0
 33 34  1  0  0  0  0
 33 41  1  0  0  0  0
 34 35  2  0  0  0  0
 34 78  1  0  0  0  0
 35 36  1  0  0  0  0
 35 37  1  0  0  0  0
 36 79  1  0  0  0  0
 36 80  1  0  0  0  0
 36 81  1  0  0  0  0
 37 38  2  0  0  0  0
 37 39  1  0  0  0  0
 39 40  1  0  0  0  0
 39 41  1  0  0  0  0
 41 42  2  0  0  0  0
M  END
$$$$
