QQ2
 OpenBabel04121316183D

 60 62  0  0  1  0  0  0  0  0999 V2000
    1.0559   -0.0596    0.0576 N   0  0  0  0  0  0  0  0  0  0  0  0
    2.2069   -0.0596    0.0576 C   0  0  0  0  0  0  0  0  0  0  0  0
    3.6509   -0.0596    0.0576 C   0  0  0  0  0  0  0  0  0  0  0  0
    4.1895    0.3647    1.4177 N   0  0  0  0  0  0  0  0  0  0  0  0
    3.2770    0.6901    2.4396 C   0  0  0  0  0  0  0  0  0  0  0  0
    2.5334   -0.3443    3.0512 C   0  0  0  0  0  0  0  0  0  0  0  0
    1.4754   -0.0523    3.9192 C   0  0  0  0  0  0  0  0  0  0  0  0
    0.5345   -1.1213    4.3915 C   0  0  0  0  0  0  0  0  0  0  0  0
    1.2578    1.2749    4.2975 C   0  0  0  0  0  0  0  0  0  0  0  0
    2.0558    2.2971    3.7882 C   0  0  0  0  0  0  0  0  0  0  0  0
    3.0143    2.0181    2.8189 C   0  0  0  0  0  0  0  0  0  0  0  0
    3.7260    3.3754    2.0166 Cl  0  0  0  0  0  0  0  0  0  0  0  0
    5.5795    0.5042    1.6039 C   0  0  0  0  0  0  0  0  0  0  0  0
    6.2200    1.6705    1.5265 N   0  0  0  0  0  0  0  0  0  0  0  0
    7.5488    1.6355    1.7546 C   0  0  0  0  0  0  0  0  0  0  0  0
    8.3131    0.5409    1.8293 N   0  0  0  0  0  0  0  0  0  0  0  0
    7.6438   -0.6086    1.9100 C   0  0  0  0  0  0  0  0  0  0  0  0
    6.2607   -0.5917    2.0203 C   0  0  0  0  0  0  0  0  0  0  0  0
    8.3271   -1.8285    1.8654 N   0  0  0  0  0  0  0  0  0  0  0  0
    7.7914   -3.0875    1.5364 C   0  0  0  0  0  0  0  0  0  0  0  0
    8.4465   -4.2606    1.8329 C   0  0  0  0  0  0  0  0  0  0  0  0
    7.8805   -5.4524    1.3714 C   0  0  0  0  0  0  0  0  0  0  0  0
    6.5649   -5.4584    0.8400 C   0  0  0  0  0  0  0  0  0  0  0  0
    5.7957   -4.3532    0.8983 C   0  0  0  0  0  0  0  0  0  0  0  0
    6.4926   -3.1816    0.9986 C   0  0  0  0  0  0  0  0  0  0  0  0
    6.1146   -6.5373    0.1143 O   0  0  0  0  0  0  0  0  0  0  0  0
    4.7116   -6.8125    0.2464 C   0  0  0  0  0  0  0  0  0  0  0  0
    4.4374   -8.3201    0.1270 C   0  0  1  0  0  0  0  0  0  0  0  0
    5.0632   -8.7473   -0.6646 H   0  0  0  0  0  0  0  0  0  0  0  0
    4.6201   -9.1644    1.4437 C   0  0  0  0  0  0  0  0  0  0  0  0
    5.9622   -9.2805    2.0546 N   0  0  0  0  0  0  0  0  0  0  0  0
    6.4407   -8.0126    2.5486 C   0  0  0  0  0  0  0  0  0  0  0  0
    6.0402  -10.1772    3.1915 C   0  0  0  0  0  0  0  0  0  0  0  0
    3.0599   -8.4663   -0.2821 O   0  0  0  0  0  0  0  0  0  0  0  0
    4.0325    0.6462   -0.6888 H   0  0  0  0  0  0  0  0  0  0  0  0
    4.0371   -1.0539   -0.1893 H   0  0  0  0  0  0  0  0  0  0  0  0
    2.7384   -1.3823    2.7937 H   0  0  0  0  0  0  0  0  0  0  0  0
    0.8204   -2.1101    4.0185 H   0  0  0  0  0  0  0  0  0  0  0  0
   -0.4776   -0.9114    4.0258 H   0  0  0  0  0  0  0  0  0  0  0  0
    0.5200   -1.1566    5.4843 H   0  0  0  0  0  0  0  0  0  0  0  0
    0.4398    1.5276    4.9670 H   0  0  0  0  0  0  0  0  0  0  0  0
    1.8897    3.3222    4.1043 H   0  0  0  0  0  0  0  0  0  0  0  0
    8.0391    2.5899    1.9166 H   0  0  0  0  0  0  0  0  0  0  0  0
    5.6990   -1.4616    2.3272 H   0  0  0  0  0  0  0  0  0  0  0  0
    9.3293   -1.7183    1.7248 H   0  0  0  0  0  0  0  0  0  0  0  0
    9.4154   -4.2674    2.3316 H   0  0  0  0  0  0  0  0  0  0  0  0
    8.4641   -6.3634    1.4457 H   0  0  0  0  0  0  0  0  0  0  0  0
    4.7428   -4.3233    0.6474 H   0  0  0  0  0  0  0  0  0  0  0  0
    5.9781   -2.3429    0.5697 H   0  0  0  0  0  0  0  0  0  0  0  0
    4.1993   -6.2708   -0.5614 H   0  0  0  0  0  0  0  0  0  0  0  0
    4.2828   -6.4566    1.1937 H   0  0  0  0  0  0  0  0  0  0  0  0
    4.2882  -10.1794    1.1854 H   0  0  0  0  0  0  0  0  0  0  0  0
    3.8911   -8.8080    2.1847 H   0  0  0  0  0  0  0  0  0  0  0  0
    6.7503   -7.5639    1.6497 H   0  0  0  0  0  0  0  0  0  0  0  0
    7.3856   -8.0352    3.0983 H   0  0  0  0  0  0  0  0  0  0  0  0
    5.6997   -7.4173    3.0942 H   0  0  0  0  0  0  0  0  0  0  0  0
    5.7901  -11.1990    2.9139 H   0  0  0  0  0  0  0  0  0  0  0  0
    5.4103   -9.8302    4.0165 H   0  0  0  0  0  0  0  0  0  0  0  0
    7.0810  -10.1899    3.5484 H   0  0  0  0  0  0  0  0  0  0  0  0
    2.9420   -7.9613   -1.1069 H   0  0  0  0  0  0  0  0  0  0  0  0
  1  2  3  0  0  0  0
  2  3  1  0  0  0  0
  3  4  1  0  0  0  0
  3 35  1  0  0  0  0
  3 36  1  0  0  0  0
  4  5  1  0  0  0  0
  4 13  1  0  0  0  0
  5  6  2  0  0  0  0
  5 11  1  0  0  0  0
  6  7  1  0  0  0  0
  6 37  1  0  0  0  0
  7  8  1  0  0  0  0
  7  9  2  0  0  0  0
  8 38  1  0  0  0  0
  8 39  1  0  0  0  0
  8 40  1  0  0  0  0
  9 10  1  0  0  0  0
  9 41  1  0  0  0  0
 10 11  2  0  0  0  0
 10 42  1  0  0  0  0
 11 12  1  0  0  0  0
 13 14  2  0  0  0  0
 13 18  1  0  0  0  0
 14 15  1  0  0  0  0
 15 16  2  0  0  0  0
 15 43  1  0  0  0  0
 16 17  1  0  0  0  0
 17 18  2  0  0  0  0
 17 19  1  0  0  0  0
 18 44  1  0  0  0  0
 19 20  1  0  0  0  0
 19 45  1  0  0  0  0
 20 21  2  0  0  0  0
 20 25  1  0  0  0  0
 21 22  1  0  0  0  0
 21 46  1  0  0  0  0
 22 23  2  0  0  0  0
 22 47  1  0  0  0  0
 23 24  1  0  0  0  0
 23 26  1  0  0  0  0
 24 25  2  0  0  0  0
 24 48  1  0  0  0  0
 25 49  1  0  0  0  0
 26 27  1  0  0  0  0
 27 28  1  0  0  0  0
 27 50  1  0  0  0  0
 27 51  1  0  0  0  0
 28 29  1  6  0  0  0
 28 30  1  0  0  0  0
 28 34  1  0  0  0  0
 30 31  1  0  0  0  0
 30 52  1  0  0  0  0
 30 53  1  0  0  0  0
 31 32  1  0  0  0  0
 31 33  1  0  0  0  0
 32 54  1  0  0  0  0
 32 55  1  0  0  0  0
 32 56  1  0  0  0  0
 33 57  1  0  0  0  0
 33 58  1  0  0  0  0
 33 59  1  0  0  0  0
 34 60  1  0  0  0  0
M  END
$$$$
