QSN
 OpenBabel04121316183D

 35 37  0  0  0  0  0  0  0  0999 V2000
    1.4767    0.7712   -0.0986 O   0  5  0  0  0  0  0  0  0  0  0  0
    2.6326    0.4065   -0.0431 N   0  3  0  0  0  0  0  0  0  0  0  0
    3.5469    1.2181    0.2010 O   0  0  0  0  0  0  0  0  0  0  0  0
    3.0381   -1.0141   -0.2896 C   0  0  0  0  0  0  0  0  0  0  0  0
    4.4306   -1.0924   -0.4103 C   0  0  0  0  0  0  0  0  0  0  0  0
    5.0940   -2.2941   -0.3488 C   0  0  0  0  0  0  0  0  0  0  0  0
    6.4509   -2.2210   -0.2182 N   0  0  0  0  0  0  0  0  0  0  0  0
    6.9546   -1.3440   -0.1473 H   0  0  0  0  0  0  0  0  0  0  0  0
    7.2591   -3.2824   -0.0616 C   0  0  0  0  0  0  0  0  0  0  0  0
    8.4303   -2.9624    0.0929 O   0  0  0  0  0  0  0  0  0  0  0  0
    6.6480   -4.5447   -0.0935 N   0  0  0  0  0  0  0  0  0  0  0  0
    5.2604   -4.7418   -0.2488 C   0  0  0  0  0  0  0  0  0  0  0  0
    4.7107   -5.8420   -0.2738 O   0  0  0  0  0  0  0  0  0  0  0  0
    4.4330   -3.4994   -0.3574 C   0  0  0  0  0  0  0  0  0  0  0  0
    3.0318   -3.4715   -0.4216 C   0  0  0  0  0  0  0  0  0  0  0  0
    2.2900   -2.2346   -0.3109 C   0  0  0  0  0  0  0  0  0  0  0  0
    0.8594   -2.3668   -0.1813 N   0  0  0  0  0  0  0  0  0  0  0  0
    0.1246   -3.5422   -0.0441 C   0  0  0  0  0  0  0  0  0  0  0  0
   -1.1627   -3.3351    0.1559 N   0  0  0  0  0  0  0  0  0  0  0  0
   -1.3056   -1.9943    0.1147 C   0  0  0  0  0  0  0  0  0  0  0  0
   -0.1066   -1.4078   -0.1615 C   0  0  0  0  0  0  0  0  0  0  0  0
    7.4978   -5.7708    0.0567 N   0  0  0  0  0  0  0  0  0  0  0  0
    9.1487   -5.5417    0.2356 S   0  0  0  0  0  0  0  0  0  0  0  0
    9.6332   -4.9909   -1.0144 O   0  0  0  0  0  0  0  0  0  0  0  0
    9.3499   -4.9218    1.5301 O   0  0  0  0  0  0  0  0  0  0  0  0
    9.9008   -7.1222    0.3627 C   0  0  0  0  0  0  0  0  0  0  0  0
    5.0466   -0.1938   -0.4714 H   0  0  0  0  0  0  0  0  0  0  0  0
    2.5456   -4.4409   -0.5365 H   0  0  0  0  0  0  0  0  0  0  0  0
    0.5496   -4.5353   -0.0789 H   0  0  0  0  0  0  0  0  0  0  0  0
   -2.2377   -1.4576    0.2245 H   0  0  0  0  0  0  0  0  0  0  0  0
   -0.0016   -0.3753   -0.3687 H   0  0  0  0  0  0  0  0  0  0  0  0
    7.0389   -6.6844    0.0318 H   0  0  0  0  0  0  0  0  0  0  0  0
    9.7400   -7.6796   -0.5569 H   0  0  0  0  0  0  0  0  0  0  0  0
    9.5390   -7.6298    1.2537 H   0  0  0  0  0  0  0  0  0  0  0  0
   10.9711   -6.9058    0.4756 H   0  0  0  0  0  0  0  0  0  0  0  0
  1  2  1  0  0  0  0
  2  3  2  0  0  0  0
  2  4  1  0  0  0  0
  4  5  2  0  0  0  0
  4 16  1  0  0  0  0
  5  6  1  0  0  0  0
  5 27  1  0  0  0  0
  6  7  1  0  0  0  0
  6 14  2  0  0  0  0
  7  8  1  0  0  0  0
  7  9  1  0  0  0  0
  9 10  2  0  0  0  0
  9 11  1  0  0  0  0
 11 12  1  0  0  0  0
 11 22  1  0  0  0  0
 12 13  2  0  0  0  0
 12 14  1  0  0  0  0
 14 15  1  0  0  0  0
 15 16  2  0  0  0  0
 15 28  1  0  0  0  0
 16 17  1  0  0  0  0
 17 18  1  0  0  0  0
 17 21  1  0  0  0  0
 18 19  2  0  0  0  0
 18 29  1  0  0  0  0
 19 20  1  0  0  0  0
 20 21  2  0  0  0  0
 20 30  1  0  0  0  0
 21 31  1  0  0  0  0
 22 23  1  0  0  0  0
 22 32  1  0  0  0  0
 23 24  2  0  0  0  0
 23 25  2  0  0  0  0
 23 26  1  0  0  0  0
 26 33  1  0  0  0  0
 26 34  1  0  0  0  0
 26 35  1  0  0  0  0
M  CHG  2   1  -1   2   1
M  END
$$$$
