QUD
 OpenBabel04121316183D

 72 76  0  0  1  0  0  0  0  0999 V2000
    3.3301   -5.4078   -0.2259 O   0  0  0  0  0  0  0  0  0  0  0  0
    3.2371   -4.4390   -1.0242 C   0  0  0  0  0  0  0  0  0  0  0  0
    1.9771   -4.3838   -2.0169 C   0  0  0  0  0  0  0  0  0  0  0  0
    1.3735   -2.9994   -2.3568 C   0  0  0  0  0  0  0  0  0  0  0  0
    2.1242   -2.2554   -3.4341 C   0  0  0  0  0  0  0  0  0  0  0  0
    2.8743   -3.2717   -4.4995 C   0  0  0  0  0  0  0  0  0  0  0  0
    3.2626   -4.6884   -4.1203 C   0  0  0  0  0  0  0  0  0  0  0  0
    2.1617   -5.2313   -3.2945 C   0  0  0  0  0  0  0  0  0  0  0  0
    4.3055   -3.5205   -1.0169 N   0  0  0  0  0  0  0  0  0  0  0  0
    4.5396   -2.5864   -2.1043 C   0  0  0  0  0  0  0  0  0  0  0  0
    4.9778   -1.0996   -2.1217 C   0  0  2  0  0  0  0  0  0  0  0  0
    4.6149   -0.6507   -1.1911 H   0  0  0  0  0  0  0  0  0  0  0  0
    4.3935   -0.1226   -3.2828 N   0  3  0  0  0  0  0  0  0  0  0  0
    3.9739   -0.5495   -4.4738 C   0  0  0  0  0  0  0  0  0  0  0  0
    3.6048    0.0969   -5.6000 C   0  0  0  0  0  0  0  0  0  0  0  0
    3.1973   -0.6173   -6.7707 C   0  0  0  0  0  0  0  0  0  0  0  0
    3.1260    0.0466   -7.9714 C   0  0  0  0  0  0  0  0  0  0  0  0
    3.4477    1.3994   -7.9478 C   0  0  0  0  0  0  0  0  0  0  0  0
    3.6164    2.0977   -6.7265 C   0  0  0  0  0  0  0  0  0  0  0  0
    3.7719    1.4506   -5.5042 C   0  0  0  0  0  0  0  0  0  0  0  0
    4.1422    2.0138   -4.3059 N   0  0  0  0  0  0  0  0  0  0  0  0
    4.4366    1.2177   -3.2212 C   0  0  0  0  0  0  0  0  0  0  0  0
    4.8913    1.8004   -2.0796 N   0  0  0  0  0  0  0  0  0  0  0  0
    2.7505   -0.6889   -9.0762 O   0  0  0  0  0  0  0  0  0  0  0  0
    2.6689    0.0064  -10.2590 C   0  0  0  0  0  0  0  0  0  0  0  0
    3.7053   -0.1547  -11.1741 C   0  0  0  0  0  0  0  0  0  0  0  0
    3.8174    0.7432  -12.2306 C   0  0  0  0  0  0  0  0  0  0  0  0
    2.8223    1.6999  -12.4413 C   0  0  0  0  0  0  0  0  0  0  0  0
    1.7038    1.7502  -11.6069 C   0  0  0  0  0  0  0  0  0  0  0  0
    1.6413    0.9266  -10.4858 C   0  0  0  0  0  0  0  0  0  0  0  0
    6.5379   -1.1482   -2.2864 C   0  0  0  0  0  0  0  0  0  0  0  0
    7.1687   -2.5599   -2.0075 C   0  0  0  0  0  0  0  0  0  0  0  0
    6.9934   -3.6404   -3.1124 C   0  0  0  0  0  0  0  0  0  0  0  0
    7.2801   -3.1081   -4.5093 C   0  0  0  0  0  0  0  0  0  0  0  0
    6.7827   -1.7016   -4.7813 C   0  0  0  0  0  0  0  0  0  0  0  0
    7.0685   -0.7019   -3.6646 C   0  0  0  0  0  0  0  0  0  0  0  0
    1.1689   -4.8775   -1.4666 H   0  0  0  0  0  0  0  0  0  0  0  0
    1.3314   -2.3988   -1.4349 H   0  0  0  0  0  0  0  0  0  0  0  0
    0.3695   -3.0638   -2.7720 H   0  0  0  0  0  0  0  0  0  0  0  0
    2.7022   -1.5699   -2.7840 H   0  0  0  0  0  0  0  0  0  0  0  0
    1.6162   -1.4146   -3.9108 H   0  0  0  0  0  0  0  0  0  0  0  0
    3.8553   -3.0541   -4.9373 H   0  0  0  0  0  0  0  0  0  0  0  0
    2.2165   -3.2571   -5.3605 H   0  0  0  0  0  0  0  0  0  0  0  0
    4.1988   -4.7919   -3.5632 H   0  0  0  0  0  0  0  0  0  0  0  0
    3.4766   -5.2406   -5.0457 H   0  0  0  0  0  0  0  0  0  0  0  0
    2.3848   -6.2747   -3.0730 H   0  0  0  0  0  0  0  0  0  0  0  0
    1.2669   -5.1888   -3.9278 H   0  0  0  0  0  0  0  0  0  0  0  0
    5.0730   -3.8793   -0.4465 H   0  0  0  0  0  0  0  0  0  0  0  0
    3.6214   -2.8190   -2.4485 H   0  0  0  0  0  0  0  0  0  0  0  0
    4.9354   -2.9382   -3.0256 H   0  0  0  0  0  0  0  0  0  0  0  0
    4.0447   -1.5672   -4.5566 H   0  0  0  0  0  0  0  0  0  0  0  0
    2.9874   -1.6889   -6.7760 H   0  0  0  0  0  0  0  0  0  0  0  0
    3.5755    1.9497   -8.8756 H   0  0  0  0  0  0  0  0  0  0  0  0
    3.6633    3.1806   -6.7576 H   0  0  0  0  0  0  0  0  0  0  0  0
    5.0635    2.7938   -2.1327 H   0  0  0  0  0  0  0  0  0  0  0  0
    5.2055    1.2995   -1.2686 H   0  0  0  0  0  0  0  0  0  0  0  0
    4.4476   -0.9334  -11.0300 H   0  0  0  0  0  0  0  0  0  0  0  0
    4.6843    0.7048  -12.8849 H   0  0  0  0  0  0  0  0  0  0  0  0
    2.9156    2.4020  -13.2663 H   0  0  0  0  0  0  0  0  0  0  0  0
    0.8985    2.4492  -11.8179 H   0  0  0  0  0  0  0  0  0  0  0  0
    0.8352    1.0471   -9.7670 H   0  0  0  0  0  0  0  0  0  0  0  0
    6.9209   -0.4503   -1.5296 H   0  0  0  0  0  0  0  0  0  0  0  0
    6.8188   -2.9297   -1.0384 H   0  0  0  0  0  0  0  0  0  0  0  0
    8.2457   -2.4262   -1.8891 H   0  0  0  0  0  0  0  0  0  0  0  0
    6.0278   -4.1396   -3.1567 H   0  0  0  0  0  0  0  0  0  0  0  0
    7.5689   -4.5333   -2.8692 H   0  0  0  0  0  0  0  0  0  0  0  0
    6.8017   -3.7707   -5.2451 H   0  0  0  0  0  0  0  0  0  0  0  0
    8.3542   -3.1261   -4.6607 H   0  0  0  0  0  0  0  0  0  0  0  0
    5.7358   -1.8319   -4.9551 H   0  0  0  0  0  0  0  0  0  0  0  0
    7.1289   -1.3117   -5.7432 H   0  0  0  0  0  0  0  0  0  0  0  0
    6.7023    0.2927   -3.9368 H   0  0  0  0  0  0  0  0  0  0  0  0
    8.1524   -0.5784   -3.5956 H   0  0  0  0  0  0  0  0  0  0  0  0
  1  2  2  0  0  0  0
  2  3  1  0  0  0  0
  2  9  1  0  0  0  0
  3  4  1  0  0  0  0
  3  8  1  0  0  0  0
  3 37  1  0  0  0  0
  4  5  1  0  0  0  0
  4 38  1  0  0  0  0
  4 39  1  0  0  0  0
  5  6  1  0  0  0  0
  5 40  1  0  0  0  0
  5 41  1  0  0  0  0
  6  7  1  0  0  0  0
  6 42  1  0  0  0  0
  6 43  1  0  0  0  0
  7  8  1  0  0  0  0
  7 44  1  0  0  0  0
  7 45  1  0  0  0  0
  8 46  1  0  0  0  0
  8 47  1  0  0  0  0
  9 10  1  0  0  0  0
  9 48  1  0  0  0  0
 10 49  1  0  0  0  0
 10 50  1  0  0  0  0
 11 13  1  0  0  0  0
 11 31  1  0  0  0  0
 11 12  1  1  0  0  0
 11 10  1  0  0  0  0
 13 14  2  0  0  0  0
 13 22  1  0  0  0  0
 14 15  1  0  0  0  0
 14 51  1  0  0  0  0
 15 16  2  0  0  0  0
 15 20  1  0  0  0  0
 16 17  1  0  0  0  0
 16 52  1  0  0  0  0
 17 18  2  0  0  0  0
 17 24  1  0  0  0  0
 18 19  1  0  0  0  0
 18 53  1  0  0  0  0
 19 20  2  0  0  0  0
 19 54  1  0  0  0  0
 20 21  1  0  0  0  0
 21 22  2  0  0  0  0
 22 23  1  0  0  0  0
 23 55  1  0  0  0  0
 23 56  1  0  0  0  0
 24 25  1  0  0  0  0
 25 26  2  0  0  0  0
 25 30  1  0  0  0  0
 26 27  1  0  0  0  0
 26 57  1  0  0  0  0
 27 28  2  0  0  0  0
 27 58  1  0  0  0  0
 28 29  1  0  0  0  0
 28 59  1  0  0  0  0
 29 30  2  0  0  0  0
 29 60  1  0  0  0  0
 30 61  1  0  0  0  0
 31 32  1  0  0  0  0
 31 36  1  0  0  0  0
 31 62  1  0  0  0  0
 32 33  1  0  0  0  0
 32 63  1  0  0  0  0
 32 64  1  0  0  0  0
 33 34  1  0  0  0  0
 33 65  1  0  0  0  0
 33 66  1  0  0  0  0
 34 35  1  0  0  0  0
 34 67  1  0  0  0  0
 34 68  1  0  0  0  0
 35 36  1  0  0  0  0
 35 69  1  0  0  0  0
 35 70  1  0  0  0  0
 36 71  1  0  0  0  0
 36 72  1  0  0  0  0
M  CHG  1  13   1
M  END
$$$$
