QUE
 OpenBabel04121316183D

 32 34  0  0  0  0  0  0  0  0999 V2000
    1.0627    0.0743   -0.0489 O   0  0  0  0  0  0  0  0  0  0  0  0
    2.4266   -0.0091   -0.0469 C   0  0  0  0  0  0  0  0  0  0  0  0
    3.0417   -1.2586   -0.0454 C   0  0  0  0  0  0  0  0  0  0  0  0
    4.4218   -1.3083   -0.0393 C   0  0  0  0  0  0  0  0  0  0  0  0
    5.0593   -2.5145   -0.0313 O   0  0  0  0  0  0  0  0  0  0  0  0
    5.1683   -0.1217   -0.0360 C   0  0  0  0  0  0  0  0  0  0  0  0
    4.5701    1.1355   -0.0330 C   0  0  0  0  0  0  0  0  0  0  0  0
    3.1694    1.1864   -0.0420 C   0  0  0  0  0  0  0  0  0  0  0  0
    5.3092    2.3123   -0.0139 O   0  0  0  0  0  0  0  0  0  0  0  0
    6.7335    2.2436   -0.0028 C   0  0  0  0  0  0  0  0  0  0  0  0
    7.3788    1.0479   -0.0224 C   0  0  0  0  0  0  0  0  0  0  0  0
    6.6155   -0.2094   -0.0338 C   0  0  0  0  0  0  0  0  0  0  0  0
    7.2211   -1.2685   -0.0411 O   0  0  0  0  0  0  0  0  0  0  0  0
    8.7112    0.7346   -0.0540 O   0  0  0  0  0  0  0  0  0  0  0  0
    7.4240    3.5955   -0.0341 C   0  0  0  0  0  0  0  0  0  0  0  0
    6.7528    4.8263    0.0958 C   0  0  0  0  0  0  0  0  0  0  0  0
    7.4503    6.0636    0.0049 C   0  0  0  0  0  0  0  0  0  0  0  0
    8.7970    6.0901   -0.3493 C   0  0  0  0  0  0  0  0  0  0  0  0
    9.4654    4.9056   -0.4701 C   0  0  0  0  0  0  0  0  0  0  0  0
    8.8077    3.7196   -0.2293 C   0  0  0  0  0  0  0  0  0  0  0  0
   10.7826    4.8081   -0.8136 O   0  0  0  0  0  0  0  0  0  0  0  0
    9.5188    7.2222   -0.5653 O   0  0  0  0  0  0  0  0  0  0  0  0
    0.6899   -0.8252   -0.0474 H   0  0  0  0  0  0  0  0  0  0  0  0
    2.4727   -2.1806   -0.0483 H   0  0  0  0  0  0  0  0  0  0  0  0
    4.4600   -3.2701   -0.0272 H   0  0  0  0  0  0  0  0  0  0  0  0
    2.6362    2.1336   -0.0431 H   0  0  0  0  0  0  0  0  0  0  0  0
    9.3163    1.4468    0.0879 H   0  0  0  0  0  0  0  0  0  0  0  0
    5.6796    4.8579    0.2828 H   0  0  0  0  0  0  0  0  0  0  0  0
    6.9223    6.9882    0.2163 H   0  0  0  0  0  0  0  0  0  0  0  0
    9.5308    2.9420   -0.2195 H   0  0  0  0  0  0  0  0  0  0  0  0
   11.0696    5.7103   -1.0387 H   0  0  0  0  0  0  0  0  0  0  0  0
    8.9237    7.9835   -0.4894 H   0  0  0  0  0  0  0  0  0  0  0  0
  1  2  1  0  0  0  0
  1 23  1  0  0  0  0
  2  3  2  0  0  0  0
  2  8  1  0  0  0  0
  3  4  1  0  0  0  0
  3 24  1  0  0  0  0
  4  5  1  0  0  0  0
  4  6  2  0  0  0  0
  5 25  1  0  0  0  0
  6  7  1  0  0  0  0
  6 12  1  0  0  0  0
  7  8  2  0  0  0  0
  7  9  1  0  0  0  0
  8 26  1  0  0  0  0
  9 10  1  0  0  0  0
 10 11  2  0  0  0  0
 10 15  1  0  0  0  0
 11 12  1  0  0  0  0
 11 14  1  0  0  0  0
 12 13  2  0  0  0  0
 14 27  1  0  0  0  0
 15 16  2  0  0  0  0
 15 20  1  0  0  0  0
 16 17  1  0  0  0  0
 16 28  1  0  0  0  0
 17 18  2  0  0  0  0
 17 29  1  0  0  0  0
 18 19  1  0  0  0  0
 18 22  1  0  0  0  0
 19 20  2  0  0  0  0
 19 21  1  0  0  0  0
 20 30  1  0  0  0  0
 21 31  1  0  0  0  0
 22 32  1  0  0  0  0
M  END
$$$$
