QUY
 OpenBabel04121316183D

172173  0  0  1  0  0  0  0  0999 V2000
   47.3342   -5.1382   14.7588 C   0  0  0  0  0  0  0  0  0  0  0  0
   46.8904   -4.8004   13.3492 C   0  0  0  0  0  0  0  0  0  0  0  0
   45.9381   -5.8649   12.8240 C   0  0  0  0  0  0  0  0  0  0  0  0
   45.4917   -5.5286   11.4107 C   0  0  0  0  0  0  0  0  0  0  0  0
   44.5417   -6.5962   10.8952 C   0  0  0  0  0  0  0  0  0  0  0  0
   44.0974   -6.2581    9.4836 C   0  0  0  0  0  0  0  0  0  0  0  0
   43.1486   -7.3251    8.9698 C   0  0  0  0  0  0  0  0  0  0  0  0
   42.7056   -6.9856    7.5591 C   0  0  0  0  0  0  0  0  0  0  0  0
   41.7573   -8.0524    7.0459 C   0  0  0  0  0  0  0  0  0  0  0  0
   41.3148   -7.7124    5.6356 C   0  0  0  0  0  0  0  0  0  0  0  0
   40.3667   -8.7792    5.1229 C   0  0  0  0  0  0  0  0  0  0  0  0
   39.9246   -8.4389    3.7131 C   0  0  0  0  0  0  0  0  0  0  0  0
   38.9769   -9.5056    3.2014 C   0  0  0  0  0  0  0  0  0  0  0  0
   38.5353   -9.1649    1.7926 C   0  0  0  0  0  0  0  0  0  0  0  0
   37.5886  -10.2322    1.2845 C   0  0  0  0  0  0  0  0  0  0  0  0
   37.1488   -9.8908   -0.1213 C   0  0  0  0  0  0  0  0  0  0  0  0
   36.2050  -10.9594   -0.6263 C   0  0  0  0  0  0  0  0  0  0  0  0
   35.7877  -10.6053   -2.0294 C   0  0  0  0  0  0  0  0  0  0  0  0
   34.8647  -11.6643   -2.5725 C   0  0  0  0  0  0  0  0  0  0  0  0
   34.5332  -11.2508   -3.9835 C   0  0  0  0  0  0  0  0  0  0  0  0
   33.6450  -12.2593   -4.6281 C   0  0  0  0  0  0  0  0  0  0  0  0
   33.2967  -11.7415   -6.0118 C   0  0  0  0  0  0  0  0  0  0  0  0
   32.3041  -12.6221   -6.6734 C   0  0  0  0  0  0  0  0  0  0  0  0
   31.7738  -12.1348   -8.0338 C   0  0  0  0  0  0  0  0  0  0  0  0
   30.6248  -13.0201   -8.4580 C   0  0  0  0  0  0  0  0  0  0  0  0
   30.1853  -13.1880   -9.8954 C   0  0  0  0  0  0  0  0  0  0  0  0
   30.5400  -12.3443  -10.7468 O   0  0  0  0  0  0  0  0  0  0  0  0
   29.3350  -14.1812  -10.3214 N   0  0  0  0  0  0  0  0  0  0  0  0
   28.8575  -15.5022   -9.8024 C   0  0  2  0  0  0  0  0  0  0  0  0
   27.7594  -15.4242   -9.8483 H   0  0  0  0  0  0  0  0  0  0  0  0
   29.2106  -15.8722   -8.3532 C   0  0  1  0  0  0  0  0  0  0  0  0
   28.8189  -16.8557   -8.0781 H   0  0  0  0  0  0  0  0  0  0  0  0
   30.7371  -15.8955   -8.1360 C   0  0  1  0  0  0  0  0  0  0  0  0
   31.0848  -15.1744   -8.8331 H   0  0  0  0  0  0  0  0  0  0  0  0
   31.2182  -15.9334   -6.6991 C   0  0  0  0  0  0  0  0  0  0  0  0
   30.5376  -14.9503   -5.7804 C   0  0  0  0  0  0  0  0  0  0  0  0
   31.2323  -14.7404   -4.4665 C   0  0  0  0  0  0  0  0  0  0  0  0
   30.6704  -13.4993   -3.7709 C   0  0  0  0  0  0  0  0  0  0  0  0
   31.2516  -13.4428   -2.3802 C   0  0  0  0  0  0  0  0  0  0  0  0
   30.8310  -12.1565   -1.7063 C   0  0  0  0  0  0  0  0  0  0  0  0
   31.3586  -12.1737   -0.2911 C   0  0  0  0  0  0  0  0  0  0  0  0
   30.8664  -10.9532    0.4507 C   0  0  0  0  0  0  0  0  0  0  0  0
   31.3744  -11.0014    1.8766 C   0  0  0  0  0  0  0  0  0  0  0  0
   30.8718   -9.7917    2.6378 C   0  0  0  0  0  0  0  0  0  0  0  0
   31.3755   -9.8387    4.0687 C   0  0  0  0  0  0  0  0  0  0  0  0
   30.8732   -8.6274    4.8352 C   0  0  0  0  0  0  0  0  0  0  0  0
   31.3725   -8.6637    6.2717 C   0  0  0  0  0  0  0  0  0  0  0  0
   30.8705   -7.4541    7.0347 C   0  0  0  0  0  0  0  0  0  0  0  0
   31.6224  -16.7653   -8.7372 O   0  0  0  0  0  0  0  0  0  0  0  0
   28.5179  -14.9400   -7.5096 O   0  0  0  0  0  0  0  0  0  0  0  0
   29.2259  -16.6854  -10.7236 C   0  0  0  0  0  0  0  0  0  0  0  0
   30.6229  -16.8257  -10.9142 O   0  0  0  0  0  0  0  0  0  0  0  0
   31.2064  -18.0849  -11.3213 C   0  0  1  0  0  0  0  0  0  0  0  0
   31.6491  -17.8374  -12.2948 H   0  0  0  0  0  0  0  0  0  0  0  0
   32.3118  -18.4065  -10.4535 O   0  0  0  0  0  0  0  0  0  0  0  0
   32.0295  -19.0428   -9.1899 C   0  0  2  0  0  0  0  0  0  0  0  0
   31.2978  -18.5330   -8.5675 H   0  0  0  0  0  0  0  0  0  0  0  0
   33.2839  -19.1306   -8.2944 C   0  0  0  0  0  0  0  0  0  0  0  0
   34.4154  -18.8457   -8.6816 O   0  0  0  0  0  0  0  0  0  0  0  0
   33.0585  -19.5942   -7.0116 N   0  0  0  0  0  0  0  0  0  0  0  0
   34.1845  -19.8241   -6.1389 C   0  0  0  0  0  0  0  0  0  0  0  0
   33.7600  -20.4243   -4.8296 C   0  0  0  0  0  0  0  0  0  0  0  0
   34.0370  -21.7701   -4.5533 C   0  0  0  0  0  0  0  0  0  0  0  0
   33.5592  -22.3636   -3.3868 C   0  0  0  0  0  0  0  0  0  0  0  0
   32.8949  -21.5911   -2.4375 C   0  0  0  0  0  0  0  0  0  0  0  0
   32.7058  -20.2272   -2.6562 C   0  0  0  0  0  0  0  0  0  0  0  0
   33.0847  -19.6562   -3.8714 C   0  0  0  0  0  0  0  0  0  0  0  0
   31.2337  -20.3076   -9.3248 C   0  0  1  0  0  0  0  0  0  0  0  0
   30.9260  -20.6540   -8.3298 H   0  0  0  0  0  0  0  0  0  0  0  0
   29.9665  -19.9385  -10.1299 C   0  0  1  0  0  0  0  0  0  0  0  0
   29.3929  -19.2250   -9.5300 H   0  0  0  0  0  0  0  0  0  0  0  0
   30.3276  -19.3297  -11.5023 C   0  0  1  0  0  0  0  0  0  0  0  0
   30.9344  -20.0722  -12.0298 H   0  0  0  0  0  0  0  0  0  0  0  0
   29.2182  -19.0639  -12.3649 O   0  0  0  0  0  0  0  0  0  0  0  0
   29.0959  -21.0538  -10.2687 O   0  0  0  0  0  0  0  0  0  0  0  0
   32.0057  -21.3287   -9.9213 O   0  0  0  0  0  0  0  0  0  0  0  0
   48.0180   -4.3727   15.1343 H   0  0  0  0  0  0  0  0  0  0  0  0
   47.8494   -6.1037   14.7809 H   0  0  0  0  0  0  0  0  0  0  0  0
   46.4729   -5.1935   15.4322 H   0  0  0  0  0  0  0  0  0  0  0  0
   47.7667   -4.7279   12.6943 H   0  0  0  0  0  0  0  0  0  0  0  0
   46.3965   -3.8218   13.3427 H   0  0  0  0  0  0  0  0  0  0  0  0
   45.0618   -5.9390   13.4799 H   0  0  0  0  0  0  0  0  0  0  0  0
   46.4314   -6.8447   12.8318 H   0  0  0  0  0  0  0  0  0  0  0  0
   46.3640   -5.4576   10.7495 H   0  0  0  0  0  0  0  0  0  0  0  0
   44.9936   -4.5514   11.3979 H   0  0  0  0  0  0  0  0  0  0  0  0
   43.6670   -6.6689   11.5533 H   0  0  0  0  0  0  0  0  0  0  0  0
   45.0372   -7.5749   10.9049 H   0  0  0  0  0  0  0  0  0  0  0  0
   44.9706   -6.1865    8.8236 H   0  0  0  0  0  0  0  0  0  0  0  0
   43.6003   -5.2803    9.4721 H   0  0  0  0  0  0  0  0  0  0  0  0
   42.2744   -7.3973    9.6285 H   0  0  0  0  0  0  0  0  0  0  0  0
   43.6448   -8.3035    8.9800 H   0  0  0  0  0  0  0  0  0  0  0  0
   43.5793   -6.9137    6.8997 H   0  0  0  0  0  0  0  0  0  0  0  0
   42.2090   -6.0075    7.5481 H   0  0  0  0  0  0  0  0  0  0  0  0
   40.8833   -8.1244    7.7048 H   0  0  0  0  0  0  0  0  0  0  0  0
   42.2537   -9.0306    7.0564 H   0  0  0  0  0  0  0  0  0  0  0  0
   42.1886   -7.6406    4.9763 H   0  0  0  0  0  0  0  0  0  0  0  0
   40.8182   -6.7344    5.6248 H   0  0  0  0  0  0  0  0  0  0  0  0
   39.4926   -8.8512    5.7818 H   0  0  0  0  0  0  0  0  0  0  0  0
   40.8630   -9.7574    5.1333 H   0  0  0  0  0  0  0  0  0  0  0  0
   40.7981   -8.3672    3.0534 H   0  0  0  0  0  0  0  0  0  0  0  0
   39.4278   -7.4609    3.7019 H   0  0  0  0  0  0  0  0  0  0  0  0
   38.1025   -9.5778    3.8598 H   0  0  0  0  0  0  0  0  0  0  0  0
   39.4729  -10.4841    3.2112 H   0  0  0  0  0  0  0  0  0  0  0  0
   39.4082   -9.0937    1.1318 H   0  0  0  0  0  0  0  0  0  0  0  0
   38.0380   -8.1872    1.7804 H   0  0  0  0  0  0  0  0  0  0  0  0
   36.7133  -10.3044    1.9415 H   0  0  0  0  0  0  0  0  0  0  0  0
   38.0842  -11.2108    1.2926 H   0  0  0  0  0  0  0  0  0  0  0  0
   38.0210   -9.8191   -0.7836 H   0  0  0  0  0  0  0  0  0  0  0  0
   36.6502   -8.9135   -0.1362 H   0  0  0  0  0  0  0  0  0  0  0  0
   35.3236  -11.0306    0.0225 H   0  0  0  0  0  0  0  0  0  0  0  0
   36.6986  -11.9386   -0.6196 H   0  0  0  0  0  0  0  0  0  0  0  0
   36.6674  -10.5219   -2.6795 H   0  0  0  0  0  0  0  0  0  0  0  0
   35.2806   -9.6317   -2.0421 H   0  0  0  0  0  0  0  0  0  0  0  0
   33.9604  -11.7264   -1.9570 H   0  0  0  0  0  0  0  0  0  0  0  0
   35.3372  -12.6535   -2.5551 H   0  0  0  0  0  0  0  0  0  0  0  0
   35.4348  -11.1382   -4.5900 H   0  0  0  0  0  0  0  0  0  0  0  0
   34.0034  -10.2894   -3.9635 H   0  0  0  0  0  0  0  0  0  0  0  0
   32.7667  -12.2827   -4.0028 H   0  0  0  0  0  0  0  0  0  0  0  0
   34.0779  -13.2682   -4.6212 H   0  0  0  0  0  0  0  0  0  0  0  0
   34.1881  -11.6710   -6.6308 H   0  0  0  0  0  0  0  0  0  0  0  0
   32.8138  -10.7663   -5.9101 H   0  0  0  0  0  0  0  0  0  0  0  0
   31.4508  -12.5665   -6.0188 H   0  0  0  0  0  0  0  0  0  0  0  0
   32.7088  -13.6459   -6.6921 H   0  0  0  0  0  0  0  0  0  0  0  0
   32.5936  -12.2271   -8.7490 H   0  0  0  0  0  0  0  0  0  0  0  0
   31.3896  -11.1278   -7.9457 H   0  0  0  0  0  0  0  0  0  0  0  0
   29.7464  -12.9626   -7.8179 H   0  0  0  0  0  0  0  0  0  0  0  0
   31.1988  -13.8494   -8.1682 H   0  0  0  0  0  0  0  0  0  0  0  0
   29.1237  -14.0436  -11.3040 H   0  0  0  0  0  0  0  0  0  0  0  0
   32.3113  -15.7934   -6.7121 H   0  0  0  0  0  0  0  0  0  0  0  0
   31.0735  -16.9476   -6.3147 H   0  0  0  0  0  0  0  0  0  0  0  0
   29.4958  -15.1821   -5.5793 H   0  0  0  0  0  0  0  0  0  0  0  0
   30.4676  -14.0185   -6.2946 H   0  0  0  0  0  0  0  0  0  0  0  0
   32.3184  -14.6698   -4.5928 H   0  0  0  0  0  0  0  0  0  0  0  0
   31.0438  -15.6231   -3.8544 H   0  0  0  0  0  0  0  0  0  0  0  0
   29.5776  -13.5164   -3.7570 H   0  0  0  0  0  0  0  0  0  0  0  0
   30.8836  -12.5502   -4.2711 H   0  0  0  0  0  0  0  0  0  0  0  0
   32.3474  -13.5070   -2.3962 H   0  0  0  0  0  0  0  0  0  0  0  0
   30.9054  -14.3174   -1.8252 H   0  0  0  0  0  0  0  0  0  0  0  0
   29.7378  -12.0802   -1.7124 H   0  0  0  0  0  0  0  0  0  0  0  0
   31.2187  -11.2787   -2.2421 H   0  0  0  0  0  0  0  0  0  0  0  0
   32.4548  -12.1968   -0.2940 H   0  0  0  0  0  0  0  0  0  0  0  0
   31.0201  -13.0861    0.2141 H   0  0  0  0  0  0  0  0  0  0  0  0
   29.7699  -10.9302    0.4405 H   0  0  0  0  0  0  0  0  0  0  0  0
   31.2175  -10.0415   -0.0480 H   0  0  0  0  0  0  0  0  0  0  0  0
   32.4713  -11.0226    1.8816 H   0  0  0  0  0  0  0  0  0  0  0  0
   31.0298  -11.9223    2.3635 H   0  0  0  0  0  0  0  0  0  0  0  0
   29.7749   -9.7745    2.6253 H   0  0  0  0  0  0  0  0  0  0  0  0
   31.2169   -8.8738    2.1463 H   0  0  0  0  0  0  0  0  0  0  0  0
   32.4722   -9.8594    4.0753 H   0  0  0  0  0  0  0  0  0  0  0  0
   31.0297  -10.7599    4.5537 H   0  0  0  0  0  0  0  0  0  0  0  0
   29.7763   -8.6102    4.8201 H   0  0  0  0  0  0  0  0  0  0  0  0
   31.2176   -7.7100    4.3418 H   0  0  0  0  0  0  0  0  0  0  0  0
   32.4686   -8.6798    6.2853 H   0  0  0  0  0  0  0  0  0  0  0  0
   31.0265   -9.5802    6.7638 H   0  0  0  0  0  0  0  0  0  0  0  0
   31.2247   -6.5290    6.5686 H   0  0  0  0  0  0  0  0  0  0  0  0
   31.2299   -7.4814    8.0664 H   0  0  0  0  0  0  0  0  0  0  0  0
   29.7761   -7.4335    7.0494 H   0  0  0  0  0  0  0  0  0  0  0  0
   31.6383  -16.6042   -9.7089 H   0  0  0  0  0  0  0  0  0  0  0  0
   27.6745  -14.6540   -7.8988 H   0  0  0  0  0  0  0  0  0  0  0  0
   28.7302  -16.5646  -11.6884 H   0  0  0  0  0  0  0  0  0  0  0  0
   28.8172  -17.5568  -10.2201 H   0  0  0  0  0  0  0  0  0  0  0  0
   32.1256  -19.7134   -6.6409 H   0  0  0  0  0  0  0  0  0  0  0  0
   34.7234  -18.8844   -5.9784 H   0  0  0  0  0  0  0  0  0  0  0  0
   34.8606  -20.5047   -6.6693 H   0  0  0  0  0  0  0  0  0  0  0  0
   34.6299  -22.3634   -5.2466 H   0  0  0  0  0  0  0  0  0  0  0  0
   33.7194  -23.4246   -3.2135 H   0  0  0  0  0  0  0  0  0  0  0  0
   32.5374  -22.0508   -1.5201 H   0  0  0  0  0  0  0  0  0  0  0  0
   32.2647  -19.6092   -1.8784 H   0  0  0  0  0  0  0  0  0  0  0  0
   32.8680  -18.6067   -4.0607 H   0  0  0  0  0  0  0  0  0  0  0  0
   28.5055  -18.6439  -11.8673 H   0  0  0  0  0  0  0  0  0  0  0  0
   28.9887  -21.4433   -9.3845 H   0  0  0  0  0  0  0  0  0  0  0  0
   32.8780  -21.3208   -9.4803 H   0  0  0  0  0  0  0  0  0  0  0  0
  1  2  1  0  0  0  0
  1 77  1  0  0  0  0
  1 78  1  0  0  0  0
  1 79  1  0  0  0  0
  2  3  1  0  0  0  0
  2 80  1  0  0  0  0
  2 81  1  0  0  0  0
  3  4  1  0  0  0  0
  3 82  1  0  0  0  0
  3 83  1  0  0  0  0
  4  5  1  0  0  0  0
  4 84  1  0  0  0  0
  4 85  1  0  0  0  0
  5  6  1  0  0  0  0
  5 86  1  0  0  0  0
  5 87  1  0  0  0  0
  6  7  1  0  0  0  0
  6 88  1  0  0  0  0
  6 89  1  0  0  0  0
  7  8  1  0  0  0  0
  7 90  1  0  0  0  0
  7 91  1  0  0  0  0
  8  9  1  0  0  0  0
  8 92  1  0  0  0  0
  8 93  1  0  0  0  0
  9 10  1  0  0  0  0
  9 94  1  0  0  0  0
  9 95  1  0  0  0  0
 10 11  1  0  0  0  0
 10 96  1  0  0  0  0
 10 97  1  0  0  0  0
 11 12  1  0  0  0  0
 11 98  1  0  0  0  0
 11 99  1  0  0  0  0
 12 13  1  0  0  0  0
 12100  1  0  0  0  0
 12101  1  0  0  0  0
 13 14  1  0  0  0  0
 13102  1  0  0  0  0
 13103  1  0  0  0  0
 14 15  1  0  0  0  0
 14104  1  0  0  0  0
 14105  1  0  0  0  0
 15 16  1  0  0  0  0
 15106  1  0  0  0  0
 15107  1  0  0  0  0
 16 17  1  0  0  0  0
 16108  1  0  0  0  0
 16109  1  0  0  0  0
 17 18  1  0  0  0  0
 17110  1  0  0  0  0
 17111  1  0  0  0  0
 18 19  1  0  0  0  0
 18112  1  0  0  0  0
 18113  1  0  0  0  0
 19 20  1  0  0  0  0
 19114  1  0  0  0  0
 19115  1  0  0  0  0
 20 21  1  0  0  0  0
 20116  1  0  0  0  0
 20117  1  0  0  0  0
 21 22  1  0  0  0  0
 21118  1  0  0  0  0
 21119  1  0  0  0  0
 22 23  1  0  0  0  0
 22120  1  0  0  0  0
 22121  1  0  0  0  0
 23 24  1  0  0  0  0
 23122  1  0  0  0  0
 23123  1  0  0  0  0
 24 25  1  0  0  0  0
 24124  1  0  0  0  0
 24125  1  0  0  0  0
 25 26  1  0  0  0  0
 25126  1  0  0  0  0
 25127  1  0  0  0  0
 26 27  2  0  0  0  0
 26 28  1  0  0  0  0
 28128  1  0  0  0  0
 29 31  1  0  0  0  0
 29 51  1  0  0  0  0
 29 30  1  6  0  0  0
 29 28  1  0  0  0  0
 31 32  1  1  0  0  0
 31 33  1  0  0  0  0
 31 50  1  0  0  0  0
 33 34  1  6  0  0  0
 33 35  1  0  0  0  0
 33 49  1  0  0  0  0
 35 36  1  0  0  0  0
 35129  1  0  0  0  0
 35130  1  0  0  0  0
 36 37  1  0  0  0  0
 36131  1  0  0  0  0
 36132  1  0  0  0  0
 37 38  1  0  0  0  0
 37133  1  0  0  0  0
 37134  1  0  0  0  0
 38 39  1  0  0  0  0
 38135  1  0  0  0  0
 38136  1  0  0  0  0
 39 40  1  0  0  0  0
 39137  1  0  0  0  0
 39138  1  0  0  0  0
 40 41  1  0  0  0  0
 40139  1  0  0  0  0
 40140  1  0  0  0  0
 41 42  1  0  0  0  0
 41141  1  0  0  0  0
 41142  1  0  0  0  0
 42 43  1  0  0  0  0
 42143  1  0  0  0  0
 42144  1  0  0  0  0
 43 44  1  0  0  0  0
 43145  1  0  0  0  0
 43146  1  0  0  0  0
 44 45  1  0  0  0  0
 44147  1  0  0  0  0
 44148  1  0  0  0  0
 45 46  1  0  0  0  0
 45149  1  0  0  0  0
 45150  1  0  0  0  0
 46 47  1  0  0  0  0
 46151  1  0  0  0  0
 46152  1  0  0  0  0
 47 48  1  0  0  0  0
 47153  1  0  0  0  0
 47154  1  0  0  0  0
 48155  1  0  0  0  0
 48156  1  0  0  0  0
 48157  1  0  0  0  0
 49158  1  0  0  0  0
 50159  1  0  0  0  0
 51 52  1  0  0  0  0
 51160  1  0  0  0  0
 51161  1  0  0  0  0
 52 53  1  0  0  0  0
 53 54  1  6  0  0  0
 53 55  1  0  0  0  0
 53 72  1  0  0  0  0
 55 56  1  0  0  0  0
 56 57  1  1  0  0  0
 56 58  1  0  0  0  0
 56 68  1  0  0  0  0
 58 59  2  0  0  0  0
 58 60  1  0  0  0  0
 60 61  1  0  0  0  0
 60162  1  0  0  0  0
 61 62  1  0  0  0  0
 61163  1  0  0  0  0
 61164  1  0  0  0  0
 62 63  2  0  0  0  0
 62 67  1  0  0  0  0
 63 64  1  0  0  0  0
 63165  1  0  0  0  0
 64 65  2  0  0  0  0
 64166  1  0  0  0  0
 65 66  1  0  0  0  0
 65167  1  0  0  0  0
 66 67  2  0  0  0  0
 66168  1  0  0  0  0
 67169  1  0  0  0  0
 68 69  1  1  0  0  0
 68 70  1  0  0  0  0
 68 76  1  0  0  0  0
 70 71  1  1  0  0  0
 70 72  1  0  0  0  0
 70 75  1  0  0  0  0
 72 74  1  0  0  0  0
 72 73  1  6  0  0  0
 74170  1  0  0  0  0
 75171  1  0  0  0  0
 76172  1  0  0  0  0
M  END
$$$$
