QUZ
 OpenBabel04121316183D

 16 17  0  0  0  0  0  0  0  0999 V2000
   -2.3689   -0.7389   -0.0490 C   0  0  0  0  0  0  0  0  0  0  0  0
   -2.4040    0.6502   -0.1291 C   0  0  0  0  0  0  0  0  0  0  0  0
   -1.2323    1.3724    0.0543 C   0  0  0  0  0  0  0  0  0  0  0  0
   -0.0036    0.6969    0.0911 C   0  0  0  0  0  0  0  0  0  0  0  0
    0.0579   -0.7055    0.0900 C   0  0  0  0  0  0  0  0  0  0  0  0
   -1.1451   -1.3983    0.1045 C   0  0  0  0  0  0  0  0  0  0  0  0
    1.2226   -1.3648    0.0432 N   0  0  0  0  0  0  0  0  0  0  0  0
    2.3371   -0.6193   -0.0362 C   0  0  0  0  0  0  0  0  0  0  0  0
    2.4025    0.7205   -0.0145 N   0  0  0  0  0  0  0  0  0  0  0  0
    1.2173    1.3489    0.0662 C   0  0  0  0  0  0  0  0  0  0  0  0
   -3.2904   -1.3107   -0.1160 H   0  0  0  0  0  0  0  0  0  0  0  0
   -3.3361    1.1662   -0.3413 H   0  0  0  0  0  0  0  0  0  0  0  0
   -1.2717    2.4579    0.1176 H   0  0  0  0  0  0  0  0  0  0  0  0
   -1.1289   -2.4836    0.1882 H   0  0  0  0  0  0  0  0  0  0  0  0
    3.2764   -1.1511   -0.1358 H   0  0  0  0  0  0  0  0  0  0  0  0
    1.2739    2.4351    0.0629 H   0  0  0  0  0  0  0  0  0  0  0  0
  1  2  2  0  0  0  0
  1  6  1  0  0  0  0
  1 11  1  0  0  0  0
  2  3  1  0  0  0  0
  2 12  1  0  0  0  0
  3  4  2  0  0  0  0
  3 13  1  0  0  0  0
  4  5  1  0  0  0  0
  4 10  1  0  0  0  0
  5  6  2  0  0  0  0
  5  7  1  0  0  0  0
  6 14  1  0  0  0  0
  7  8  2  0  0  0  0
  8  9  1  0  0  0  0
  8 15  1  0  0  0  0
  9 10  2  0  0  0  0
 10 16  1  0  0  0  0
M  END
$$$$
