R10
 OpenBabel04121316183D

 26 25  0  0  1  0  0  0  0  0999 V2000
    6.6875   -0.6401   -0.9102 O   0  0  0  0  0  0  0  0  0  0  0  0
    6.4592    0.7688   -1.0310 C   0  0  1  0  0  0  0  0  0  0  0  0
    6.8170    1.0329   -2.0319 H   0  0  0  0  0  0  0  0  0  0  0  0
    4.9404    1.1057   -0.9501 C   0  0  2  0  0  0  0  0  0  0  0  0
    4.8063    2.0631   -1.4608 H   0  0  0  0  0  0  0  0  0  0  0  0
    4.3158    1.1951    0.4644 C   0  0  2  0  0  0  0  0  0  0  0  0
    3.2259    1.1200    0.4028 H   0  0  0  0  0  0  0  0  0  0  0  0
    4.5778    2.5060    1.2050 C   0  0  0  0  0  0  0  0  0  0  0  0
    5.0536    2.5155    2.3459 O   0  0  0  0  0  0  0  0  0  0  0  0
    4.2118    3.6363    0.5796 O   0  0  0  0  0  0  0  0  0  0  0  0
    4.7425    0.0949    1.2825 O   0  0  0  0  0  0  0  0  0  0  0  0
    4.1524    0.1843   -1.7302 O   0  0  0  0  0  0  0  0  0  0  0  0
    7.2620    1.5484    0.0030 C   0  0  0  0  0  0  0  0  0  0  0  0
    6.9614    2.9549   -0.0338 O   0  0  0  0  0  0  0  0  0  0  0  0
    7.7235    3.8529    1.2333 P   0  0  0  0  0  0  0  0  0  0  0  0
    6.5840    4.8510    1.2819 O   0  0  0  0  0  0  0  0  0  0  0  0
    7.5702    2.6501    2.3065 O   0  0  0  0  0  0  0  0  0  0  0  0
    8.4857    4.7510    2.5004 O   0  0  0  0  0  0  0  0  0  0  0  0
    7.6217   -0.7986   -0.6868 H   0  0  0  0  0  0  0  0  0  0  0  0
    3.9857    3.5870   -0.3657 H   0  0  0  0  0  0  0  0  0  0  0  0
    4.5670    0.3468    2.2104 H   0  0  0  0  0  0  0  0  0  0  0  0
    4.7343   -0.2136   -2.4011 H   0  0  0  0  0  0  0  0  0  0  0  0
    8.3413    1.3896   -0.0915 H   0  0  0  0  0  0  0  0  0  0  0  0
    6.9887    1.1117    0.9674 H   0  0  0  0  0  0  0  0  0  0  0  0
    6.6694    2.6551    2.7000 H   0  0  0  0  0  0  0  0  0  0  0  0
    8.8616    5.5628    2.1202 H   0  0  0  0  0  0  0  0  0  0  0  0
  1  2  1  0  0  0  0
  1 19  1  0  0  0  0
  2  3  1  6  0  0  0
  2 13  1  0  0  0  0
  4 12  1  0  0  0  0
  4  5  1  6  0  0  0
  4  2  1  0  0  0  0
  6  8  1  0  0  0  0
  6 11  1  0  0  0  0
  6  7  1  6  0  0  0
  6  4  1  0  0  0  0
  8  9  2  0  0  0  0
  8 10  1  0  0  0  0
 10 20  1  0  0  0  0
 11 21  1  0  0  0  0
 12 22  1  0  0  0  0
 13 14  1  0  0  0  0
 13 23  1  0  0  0  0
 13 24  1  0  0  0  0
 14 15  1  0  0  0  0
 15 16  2  0  0  0  0
 15 17  1  0  0  0  0
 15 18  1  0  0  0  0
 17 25  1  0  0  0  0
 18 26  1  0  0  0  0
M  END
$$$$
