R14
 OpenBabel04121316183D

103109  0  0  0  0  0  0  0  0999 V2000
    1.0549   -0.1291   -0.4140 C   0  0  0  0  0  0  0  0  0  0  0  0
    2.5545   -0.0802   -0.1193 C   0  0  0  0  0  0  0  0  0  0  0  0
    2.9913    0.8809    0.9240 N   0  0  0  0  0  0  0  0  0  0  0  0
    2.5107    0.5326    2.2784 C   0  0  0  0  0  0  0  0  0  0  0  0
    1.0107    0.5979    2.4694 C   0  0  0  0  0  0  0  0  0  0  0  0
    0.6126    0.2288    3.8508 C   0  0  0  0  0  0  0  0  0  0  0  0
    1.4205   -0.0335    4.7495 O   0  0  0  0  0  0  0  0  0  0  0  0
   -0.7566    0.1153    3.9510 N   0  0  0  0  0  0  0  0  0  0  0  0
   -1.3187   -0.2681    5.1559 C   0  0  0  0  0  0  0  0  0  0  0  0
   -1.2205   -1.5897    5.5721 C   0  0  0  0  0  0  0  0  0  0  0  0
   -1.7000   -1.9428    6.8261 C   0  0  0  0  0  0  0  0  0  0  0  0
   -2.3652   -0.9966    7.6039 C   0  0  0  0  0  0  0  0  0  0  0  0
   -2.4633    0.3278    7.1688 C   0  0  0  0  0  0  0  0  0  0  0  0
   -1.8839    0.7028    5.9571 C   0  0  0  0  0  0  0  0  0  0  0  0
   -3.1374    1.3082    7.9707 C   0  0  0  0  0  0  0  0  0  0  0  0
   -4.0587    1.0508    8.9434 N   0  0  0  0  0  0  0  0  0  0  0  0
   -4.3936    2.2101    9.4973 N   0  0  0  0  0  0  0  0  0  0  0  0
   -3.7283    3.1880    8.8426 N   0  0  0  0  0  0  0  0  0  0  0  0
   -2.9267    2.6572    7.8786 C   0  0  0  0  0  0  0  0  0  0  0  0
   -3.8197    4.5440    9.1792 C   0  0  0  0  0  0  0  0  0  0  0  0
   -4.2230    4.8992   10.4634 C   0  0  0  0  0  0  0  0  0  0  0  0
   -4.2357    6.2398   10.8051 C   0  0  0  0  0  0  0  0  0  0  0  0
   -3.8770    7.2046    9.8562 C   0  0  0  0  0  0  0  0  0  0  0  0
   -3.4882    6.8566    8.5482 C   0  0  0  0  0  0  0  0  0  0  0  0
   -3.4573    5.5162    8.2311 C   0  0  0  0  0  0  0  0  0  0  0  0
   -3.1485    7.7652    7.6164 N   0  0  0  0  0  0  0  0  0  0  0  0
   -3.1807    9.0665    7.9509 C   0  0  0  0  0  0  0  0  0  0  0  0
   -3.5556    9.4938    9.2419 C   0  0  0  0  0  0  0  0  0  0  0  0
   -3.9008    8.5459   10.1926 C   0  0  0  0  0  0  0  0  0  0  0  0
   -3.5925   10.8429    9.5844 C   0  0  0  0  0  0  0  0  0  0  0  0
   -3.2653   11.7975    8.6401 C   0  0  0  0  0  0  0  0  0  0  0  0
   -2.8944   11.4003    7.3532 C   0  0  0  0  0  0  0  0  0  0  0  0
   -2.8451   10.0370    7.0166 C   0  0  0  0  0  0  0  0  0  0  0  0
   -2.5977   12.4061    6.4112 N   0  0  0  0  0  0  0  0  0  0  0  0
   -2.8115   13.7167    6.6840 N   0  0  0  0  0  0  0  0  0  0  0  0
   -2.5232   14.4243    5.6035 N   0  0  0  0  0  0  0  0  0  0  0  0
   -2.0699   13.5637    4.6544 C   0  0  0  0  0  0  0  0  0  0  0  0
   -2.1039   12.2735    5.1453 C   0  0  0  0  0  0  0  0  0  0  0  0
   -1.7117   13.9560    3.3134 C   0  0  0  0  0  0  0  0  0  0  0  0
   -1.7527   15.2656    2.8614 C   0  0  0  0  0  0  0  0  0  0  0  0
   -1.5139   15.5455    1.5094 C   0  0  0  0  0  0  0  0  0  0  0  0
   -1.3908   14.5053    0.5795 C   0  0  0  0  0  0  0  0  0  0  0  0
   -1.3631   13.1959    1.0413 C   0  0  0  0  0  0  0  0  0  0  0  0
   -1.3783   12.9727    2.4075 C   0  0  0  0  0  0  0  0  0  0  0  0
   -1.3799   12.0993    0.1665 N   0  0  0  0  0  0  0  0  0  0  0  0
   -1.4882   10.7789    0.6103 C   0  0  0  0  0  0  0  0  0  0  0  0
   -1.5286   10.3629    1.7622 O   0  0  0  0  0  0  0  0  0  0  0  0
   -1.4291    9.8075   -0.5007 C   0  0  0  0  0  0  0  0  0  0  0  0
   -1.2689    8.3961    0.0559 C   0  0  0  0  0  0  0  0  0  0  0  0
   -1.1571    7.3504   -0.9771 N   0  0  0  0  0  0  0  0  0  0  0  0
    0.0594    7.4954   -1.8061 C   0  0  0  0  0  0  0  0  0  0  0  0
    0.1399    8.7136   -2.7200 C   0  0  0  0  0  0  0  0  0  0  0  0
   -1.1513    6.0359   -0.2810 C   0  0  0  0  0  0  0  0  0  0  0  0
   -1.1584    4.8597   -1.2500 C   0  0  0  0  0  0  0  0  0  0  0  0
    4.4805    0.9166    0.9355 C   0  0  0  0  0  0  0  0  0  0  0  0
    5.0677    1.9348    1.9146 C   0  0  0  0  0  0  0  0  0  0  0  0
    0.8465   -0.6539   -1.3470 H   0  0  0  0  0  0  0  0  0  0  0  0
    0.6208    0.8756   -0.4587 H   0  0  0  0  0  0  0  0  0  0  0  0
    0.5092   -0.7356    0.3033 H   0  0  0  0  0  0  0  0  0  0  0  0
    3.0259    0.2060   -1.0678 H   0  0  0  0  0  0  0  0  0  0  0  0
    2.9056   -1.0905    0.1236 H   0  0  0  0  0  0  0  0  0  0  0  0
    2.9061    1.2482    3.0057 H   0  0  0  0  0  0  0  0  0  0  0  0
    2.8892   -0.4563    2.5671 H   0  0  0  0  0  0  0  0  0  0  0  0
    0.5184   -0.1949    1.9328 H   0  0  0  0  0  0  0  0  0  0  0  0
    0.5954    1.5668    2.1685 H   0  0  0  0  0  0  0  0  0  0  0  0
   -1.3662    0.4617    3.2162 H   0  0  0  0  0  0  0  0  0  0  0  0
   -0.7566   -2.3315    4.9295 H   0  0  0  0  0  0  0  0  0  0  0  0
   -1.5486   -2.9497    7.1998 H   0  0  0  0  0  0  0  0  0  0  0  0
   -2.7848   -1.2888    8.5633 H   0  0  0  0  0  0  0  0  0  0  0  0
   -1.8159    1.7428    5.6500 H   0  0  0  0  0  0  0  0  0  0  0  0
   -2.2419    3.2477    7.2907 H   0  0  0  0  0  0  0  0  0  0  0  0
   -4.4745    4.1507   11.2116 H   0  0  0  0  0  0  0  0  0  0  0  0
   -4.5180    6.5295   11.8138 H   0  0  0  0  0  0  0  0  0  0  0  0
   -3.1751    5.2479    7.2155 H   0  0  0  0  0  0  0  0  0  0  0  0
   -4.1934    8.8528   11.1923 H   0  0  0  0  0  0  0  0  0  0  0  0
   -3.8814   11.1597   10.5824 H   0  0  0  0  0  0  0  0  0  0  0  0
   -3.3010   12.8466    8.9252 H   0  0  0  0  0  0  0  0  0  0  0  0
   -2.5726    9.6979    6.0197 H   0  0  0  0  0  0  0  0  0  0  0  0
   -1.8469   11.3145    4.7175 H   0  0  0  0  0  0  0  0  0  0  0  0
   -1.9678   16.0673    3.5609 H   0  0  0  0  0  0  0  0  0  0  0  0
   -1.4655   16.5800    1.1832 H   0  0  0  0  0  0  0  0  0  0  0  0
   -1.3288   14.7393   -0.4792 H   0  0  0  0  0  0  0  0  0  0  0  0
   -1.1750   11.9968    2.8104 H   0  0  0  0  0  0  0  0  0  0  0  0
   -1.3807   12.2906   -0.8304 H   0  0  0  0  0  0  0  0  0  0  0  0
   -0.5202   10.1462   -0.9642 H   0  0  0  0  0  0  0  0  0  0  0  0
   -2.2768    9.9091   -1.1829 H   0  0  0  0  0  0  0  0  0  0  0  0
   -2.1420    8.1878    0.6941 H   0  0  0  0  0  0  0  0  0  0  0  0
   -0.3930    8.3567    0.7212 H   0  0  0  0  0  0  0  0  0  0  0  0
    0.0970    6.6661   -2.5134 H   0  0  0  0  0  0  0  0  0  0  0  0
    0.9556    7.4376   -1.1778 H   0  0  0  0  0  0  0  0  0  0  0  0
   -0.8264    8.9178   -3.1944 H   0  0  0  0  0  0  0  0  0  0  0  0
    0.8944    8.5665   -3.4924 H   0  0  0  0  0  0  0  0  0  0  0  0
    0.5106    9.6005   -2.2140 H   0  0  0  0  0  0  0  0  0  0  0  0
   -2.0475    5.9425    0.3497 H   0  0  0  0  0  0  0  0  0  0  0  0
   -0.2863    5.9524    0.3915 H   0  0  0  0  0  0  0  0  0  0  0  0
   -2.0287    4.9139   -1.9111 H   0  0  0  0  0  0  0  0  0  0  0  0
   -1.1876    3.9119   -0.7064 H   0  0  0  0  0  0  0  0  0  0  0  0
   -0.2555    4.8293   -1.8650 H   0  0  0  0  0  0  0  0  0  0  0  0
    4.8466    1.1831   -0.0646 H   0  0  0  0  0  0  0  0  0  0  0  0
    4.8870   -0.0769    1.1691 H   0  0  0  0  0  0  0  0  0  0  0  0
    4.6970    2.9410    1.6967 H   0  0  0  0  0  0  0  0  0  0  0  0
    6.1596    1.9437    1.8502 H   0  0  0  0  0  0  0  0  0  0  0  0
    4.8329    1.6967    2.9561 H   0  0  0  0  0  0  0  0  0  0  0  0
  1  2  1  0  0  0  0
  1 57  1  0  0  0  0
  1 58  1  0  0  0  0
  1 59  1  0  0  0  0
  2  3  1  0  0  0  0
  2 60  1  0  0  0  0
  2 61  1  0  0  0  0
  3  4  1  0  0  0  0
  3 55  1  0  0  0  0
  4  5  1  0  0  0  0
  4 62  1  0  0  0  0
  4 63  1  0  0  0  0
  5  6  1  0  0  0  0
  5 64  1  0  0  0  0
  5 65  1  0  0  0  0
  6  7  2  0  0  0  0
  6  8  1  0  0  0  0
  8  9  1  0  0  0  0
  8 66  1  0  0  0  0
  9 10  2  0  0  0  0
  9 14  1  0  0  0  0
 10 11  1  0  0  0  0
 10 67  1  0  0  0  0
 11 12  2  0  0  0  0
 11 68  1  0  0  0  0
 12 13  1  0  0  0  0
 12 69  1  0  0  0  0
 13 14  2  0  0  0  0
 13 15  1  0  0  0  0
 14 70  1  0  0  0  0
 15 16  1  0  0  0  0
 15 19  2  0  0  0  0
 16 17  2  0  0  0  0
 17 18  1  0  0  0  0
 18 19  1  0  0  0  0
 18 20  1  0  0  0  0
 19 71  1  0  0  0  0
 20 21  2  0  0  0  0
 20 25  1  0  0  0  0
 21 22  1  0  0  0  0
 21 72  1  0  0  0  0
 22 23  2  0  0  0  0
 22 73  1  0  0  0  0
 23 24  1  0  0  0  0
 23 29  1  0  0  0  0
 24 25  2  0  0  0  0
 24 26  1  0  0  0  0
 25 74  1  0  0  0  0
 26 27  2  0  0  0  0
 27 28  1  0  0  0  0
 27 33  1  0  0  0  0
 28 29  2  0  0  0  0
 28 30  1  0  0  0  0
 29 75  1  0  0  0  0
 30 31  2  0  0  0  0
 30 76  1  0  0  0  0
 31 32  1  0  0  0  0
 31 77  1  0  0  0  0
 32 33  2  0  0  0  0
 32 34  1  0  0  0  0
 33 78  1  0  0  0  0
 34 35  1  0  0  0  0
 34 38  1  0  0  0  0
 35 36  2  0  0  0  0
 36 37  1  0  0  0  0
 37 38  2  0  0  0  0
 37 39  1  0  0  0  0
 38 79  1  0  0  0  0
 39 40  2  0  0  0  0
 39 44  1  0  0  0  0
 40 41  1  0  0  0  0
 40 80  1  0  0  0  0
 41 42  2  0  0  0  0
 41 81  1  0  0  0  0
 42 43  1  0  0  0  0
 42 82  1  0  0  0  0
 43 44  2  0  0  0  0
 43 45  1  0  0  0  0
 44 83  1  0  0  0  0
 45 46  1  0  0  0  0
 45 84  1  0  0  0  0
 46 47  2  0  0  0  0
 46 48  1  0  0  0  0
 48 49  1  0  0  0  0
 48 85  1  0  0  0  0
 48 86  1  0  0  0  0
 49 50  1  0  0  0  0
 49 87  1  0  0  0  0
 49 88  1  0  0  0  0
 50 51  1  0  0  0  0
 50 53  1  0  0  0  0
 51 52  1  0  0  0  0
 51 89  1  0  0  0  0
 51 90  1  0  0  0  0
 52 91  1  0  0  0  0
 52 92  1  0  0  0  0
 52 93  1  0  0  0  0
 53 54  1  0  0  0  0
 53 94  1  0  0  0  0
 53 95  1  0  0  0  0
 54 96  1  0  0  0  0
 54 97  1  0  0  0  0
 54 98  1  0  0  0  0
 55 56  1  0  0  0  0
 55 99  1  0  0  0  0
 55100  1  0  0  0  0
 56101  1  0  0  0  0
 56102  1  0  0  0  0
 56103  1  0  0  0  0
M  END
$$$$
