R21
 OpenBabel04121316183D

 41 42  0  0  0  0  0  0  0  0999 V2000
    1.0055   -0.1432    0.1939 O   0  0  0  0  0  0  0  0  0  0  0  0
    2.2290   -0.0705    0.1137 C   0  0  0  0  0  0  0  0  0  0  0  0
    2.9788    0.8027   -0.8761 C   0  0  0  0  0  0  0  0  0  0  0  0
    2.0835    1.6132   -1.7721 C   0  0  0  0  0  0  0  0  0  0  0  0
    1.2114    0.9794   -2.6679 C   0  0  0  0  0  0  0  0  0  0  0  0
    0.4291    1.7324   -3.5413 C   0  0  0  0  0  0  0  0  0  0  0  0
    0.6137    3.1126   -3.6068 C   0  0  0  0  0  0  0  0  0  0  0  0
    1.4664    3.7533   -2.7049 C   0  0  0  0  0  0  0  0  0  0  0  0
    2.1438    3.0104   -1.7420 C   0  0  0  0  0  0  0  0  0  0  0  0
    1.7602    5.4508   -2.7848 Cl  0  0  0  0  0  0  0  0  0  0  0  0
   -0.0296    3.8435   -4.5665 O   0  0  0  0  0  0  0  0  0  0  0  0
    2.9856   -0.8320    0.9576 N   0  0  0  0  0  0  0  0  0  0  0  0
    4.4289   -0.8625    1.0037 C   0  0  0  0  0  0  0  0  0  0  0  0
    4.9394   -1.7966    2.0945 C   0  0  0  0  0  0  0  0  0  0  0  0
    6.4431   -1.7861    2.1108 C   0  0  0  0  0  0  0  0  0  0  0  0
    7.1343   -0.6837    2.6333 C   0  0  0  0  0  0  0  0  0  0  0  0
    8.5077   -0.5643    2.4380 C   0  0  0  0  0  0  0  0  0  0  0  0
    9.2060   -1.6075    1.8275 C   0  0  0  0  0  0  0  0  0  0  0  0
    8.5448   -2.7749    1.4370 C   0  0  0  0  0  0  0  0  0  0  0  0
    7.1567   -2.8341    1.5207 C   0  0  0  0  0  0  0  0  0  0  0  0
   10.9315   -1.3654    1.5032 S   0  0  0  0  0  0  0  0  0  0  0  0
   11.0362   -0.3502    0.4875 O   0  0  0  0  0  0  0  0  0  0  0  0
   11.6041   -1.2889    2.7819 O   0  0  0  0  0  0  0  0  0  0  0  0
   11.3994   -2.8045    0.7944 N   0  0  0  0  0  0  0  0  0  0  0  0
    3.6156    0.1720   -1.5103 H   0  0  0  0  0  0  0  0  0  0  0  0
    3.6452    1.4734   -0.3195 H   0  0  0  0  0  0  0  0  0  0  0  0
    1.1258   -0.1066   -2.6692 H   0  0  0  0  0  0  0  0  0  0  0  0
   -0.3008    1.2244   -4.1635 H   0  0  0  0  0  0  0  0  0  0  0  0
    2.7383    3.5185   -0.9868 H   0  0  0  0  0  0  0  0  0  0  0  0
   -0.5140    3.2432   -5.1545 H   0  0  0  0  0  0  0  0  0  0  0  0
    2.4384   -1.3931    1.6004 H   0  0  0  0  0  0  0  0  0  0  0  0
    4.7816    0.1628    1.1678 H   0  0  0  0  0  0  0  0  0  0  0  0
    4.7930   -1.1753    0.0168 H   0  0  0  0  0  0  0  0  0  0  0  0
    4.5625   -2.8113    1.9154 H   0  0  0  0  0  0  0  0  0  0  0  0
    4.5524   -1.4922    3.0736 H   0  0  0  0  0  0  0  0  0  0  0  0
    6.5991    0.1063    3.1568 H   0  0  0  0  0  0  0  0  0  0  0  0
    9.0240    0.3424    2.7474 H   0  0  0  0  0  0  0  0  0  0  0  0
    9.0737   -3.6346    1.0421 H   0  0  0  0  0  0  0  0  0  0  0  0
    6.6329   -3.6936    1.1063 H   0  0  0  0  0  0  0  0  0  0  0  0
   11.0566   -2.9372   -0.1535 H   0  0  0  0  0  0  0  0  0  0  0  0
   11.4523   -3.5930    1.4320 H   0  0  0  0  0  0  0  0  0  0  0  0
  1  2  2  0  0  0  0
  2  3  1  0  0  0  0
  2 12  1  0  0  0  0
  3  4  1  0  0  0  0
  3 25  1  0  0  0  0
  3 26  1  0  0  0  0
  4  5  2  0  0  0  0
  4  9  1  0  0  0  0
  5  6  1  0  0  0  0
  5 27  1  0  0  0  0
  6  7  2  0  0  0  0
  6 28  1  0  0  0  0
  7  8  1  0  0  0  0
  7 11  1  0  0  0  0
  8  9  2  0  0  0  0
  8 10  1  0  0  0  0
  9 29  1  0  0  0  0
 11 30  1  0  0  0  0
 12 13  1  0  0  0  0
 12 31  1  0  0  0  0
 13 14  1  0  0  0  0
 13 32  1  0  0  0  0
 13 33  1  0  0  0  0
 14 15  1  0  0  0  0
 14 34  1  0  0  0  0
 14 35  1  0  0  0  0
 15 16  2  0  0  0  0
 15 20  1  0  0  0  0
 16 17  1  0  0  0  0
 16 36  1  0  0  0  0
 17 18  2  0  0  0  0
 17 37  1  0  0  0  0
 18 19  1  0  0  0  0
 18 21  1  0  0  0  0
 19 20  2  0  0  0  0
 19 38  1  0  0  0  0
 20 39  1  0  0  0  0
 21 22  2  0  0  0  0
 21 23  2  0  0  0  0
 21 24  1  0  0  0  0
 24 40  1  0  0  0  0
 24 41  1  0  0  0  0
M  END
$$$$
