R5P
 OpenBabel04121316183D

 25 24  0  0  1  0  0  0  0  0999 V2000
    1.0316    0.1255    0.0025 O   0  0  0  0  0  0  0  0  0  0  0  0
    2.2668    0.0998    0.0703 C   0  0  0  0  0  0  0  0  0  0  0  0
    3.0421   -1.1074    0.5567 C   0  0  1  0  0  0  0  0  0  0  0  0
    2.7788   -1.2962    1.6032 H   0  0  0  0  0  0  0  0  0  0  0  0
    2.6590   -2.3080   -0.3192 C   0  0  1  0  0  0  0  0  0  0  0  0
    2.9135   -2.1018   -1.3678 H   0  0  0  0  0  0  0  0  0  0  0  0
    3.4315   -3.5695    0.1305 C   0  0  1  0  0  0  0  0  0  0  0  0
    3.1681   -3.8049    1.1692 H   0  0  0  0  0  0  0  0  0  0  0  0
    3.0617   -4.7554   -0.7368 C   0  0  0  0  0  0  0  0  0  0  0  0
    1.6662   -5.0227   -0.6549 O   0  0  0  0  0  0  0  0  0  0  0  0
    1.2483   -6.3753   -1.6492 P   0  0  0  0  0  0  0  0  0  0  0  0
    2.0716   -7.3306   -0.7907 O   0  0  0  0  0  0  0  0  0  0  0  0
   -0.2648   -6.3067   -1.0664 O   0  0  0  0  0  0  0  0  0  0  0  0
    0.8303   -7.7279   -2.6436 O   0  0  0  0  0  0  0  0  0  0  0  0
    4.8512   -3.4176    0.0490 O   0  0  0  0  0  0  0  0  0  0  0  0
    1.2472   -2.5468   -0.2408 O   0  0  0  0  0  0  0  0  0  0  0  0
    4.4457   -0.8614    0.4806 O   0  0  0  0  0  0  0  0  0  0  0  0
    2.8619    0.9608   -0.2597 H   0  0  0  0  0  0  0  0  0  0  0  0
    3.6431   -5.6237   -0.4054 H   0  0  0  0  0  0  0  0  0  0  0  0
    3.3339   -4.5741   -1.7839 H   0  0  0  0  0  0  0  0  0  0  0  0
   -0.2787   -5.6810   -0.3180 H   0  0  0  0  0  0  0  0  0  0  0  0
    1.6607   -8.1660   -2.9003 H   0  0  0  0  0  0  0  0  0  0  0  0
    5.0777   -2.5699    0.4812 H   0  0  0  0  0  0  0  0  0  0  0  0
    0.7681   -1.7333   -0.4986 H   0  0  0  0  0  0  0  0  0  0  0  0
    4.6586   -0.1277    1.0851 H   0  0  0  0  0  0  0  0  0  0  0  0
  1  2  2  0  0  0  0
  2  3  1  0  0  0  0
  2 18  1  0  0  0  0
  3  4  1  1  0  0  0
  3  5  1  0  0  0  0
  3 17  1  0  0  0  0
  5  6  1  6  0  0  0
  5  7  1  0  0  0  0
  5 16  1  0  0  0  0
  7  8  1  1  0  0  0
  7  9  1  0  0  0  0
  7 15  1  0  0  0  0
  9 10  1  0  0  0  0
  9 19  1  0  0  0  0
  9 20  1  0  0  0  0
 10 11  1  0  0  0  0
 11 12  2  0  0  0  0
 11 13  1  0  0  0  0
 11 14  1  0  0  0  0
 13 21  1  0  0  0  0
 14 22  1  0  0  0  0
 15 23  1  0  0  0  0
 16 24  1  0  0  0  0
 17 25  1  0  0  0  0
M  END
$$$$
