R6C
 OpenBabel04121316183D

 51 53  0  0  1  0  0  0  0  0999 V2000
    1.0747    0.0340   -0.2450 C   0  0  0  0  0  0  0  0  0  0  0  0
    2.5801   -0.0121   -0.0312 C   0  0  0  0  0  0  0  0  0  0  0  0
    3.0488    0.2875    1.4144 C   0  0  1  0  0  0  0  0  0  0  0  0
    2.7100    1.2875    1.7150 H   0  0  0  0  0  0  0  0  0  0  0  0
    2.5810   -0.6917    2.4095 N   0  0  0  0  0  0  0  0  0  0  0  0
    1.2367   -0.8598    2.6424 C   0  0  0  0  0  0  0  0  0  0  0  0
    0.5021    0.2708    2.7078 N   0  0  0  0  0  0  0  0  0  0  0  0
   -0.8311    0.1679    2.8163 C   0  0  0  0  0  0  0  0  0  0  0  0
   -1.6290    1.2691    2.8731 O   0  0  0  0  0  0  0  0  0  0  0  0
   -0.9652    2.5118    2.7759 C   0  0  0  0  0  0  0  0  0  0  0  0
   -2.0258    3.5833    2.8862 C   0  0  0  0  0  0  0  0  0  0  0  0
   -3.3965    3.2643    2.9134 C   0  0  0  0  0  0  0  0  0  0  0  0
   -4.3625    4.2624    2.8516 C   0  0  0  0  0  0  0  0  0  0  0  0
   -3.9720    5.5962    2.8597 C   0  0  0  0  0  0  0  0  0  0  0  0
   -2.6195    5.9283    2.9423 C   0  0  0  0  0  0  0  0  0  0  0  0
   -1.6472    4.9285    2.9144 C   0  0  0  0  0  0  0  0  0  0  0  0
   -1.4497   -1.0673    2.8564 C   0  0  0  0  0  0  0  0  0  0  0  0
   -0.6079   -2.1655    2.7906 C   0  0  0  0  0  0  0  0  0  0  0  0
    0.7394   -2.1267    2.7010 N   0  0  0  0  0  0  0  0  0  0  0  0
   -1.4818   -3.2365    2.8545 N   0  0  0  0  0  0  0  0  0  0  0  0
   -2.7528   -2.7296    2.9831 C   0  0  0  0  0  0  0  0  0  0  0  0
   -2.7676   -1.4190    2.9634 N   0  0  0  0  0  0  0  0  0  0  0  0
   -1.1457   -4.6566    2.8235 C   0  0  0  0  0  0  0  0  0  0  0  0
   -0.1608   -5.0058    3.9361 C   0  0  0  0  0  0  0  0  0  0  0  0
   -2.3773   -5.5742    2.9490 C   0  0  0  0  0  0  0  0  0  0  0  0
    4.6032    0.3113    1.4040 C   0  0  0  0  0  0  0  0  0  0  0  0
    5.1527    0.6190    2.6824 O   0  0  0  0  0  0  0  0  0  0  0  0
    0.8162   -0.0788   -1.3000 H   0  0  0  0  0  0  0  0  0  0  0  0
    0.6609    0.9822    0.1116 H   0  0  0  0  0  0  0  0  0  0  0  0
    0.5792   -0.7937    0.2626 H   0  0  0  0  0  0  0  0  0  0  0  0
    3.0228    0.7339   -0.7069 H   0  0  0  0  0  0  0  0  0  0  0  0
    2.9560   -0.9891   -0.3572 H   0  0  0  0  0  0  0  0  0  0  0  0
    3.1665   -1.4877    2.6225 H   0  0  0  0  0  0  0  0  0  0  0  0
   -0.4756    2.6036    1.7975 H   0  0  0  0  0  0  0  0  0  0  0  0
   -0.2361    2.6251    3.5860 H   0  0  0  0  0  0  0  0  0  0  0  0
   -3.7291    2.2277    2.9646 H   0  0  0  0  0  0  0  0  0  0  0  0
   -5.4125    3.9900    2.7942 H   0  0  0  0  0  0  0  0  0  0  0  0
   -4.7243    6.3769    2.8063 H   0  0  0  0  0  0  0  0  0  0  0  0
   -2.3214    6.9699    3.0131 H   0  0  0  0  0  0  0  0  0  0  0  0
   -0.5949    5.2015    2.9078 H   0  0  0  0  0  0  0  0  0  0  0  0
   -3.6398   -3.3366    3.0949 H   0  0  0  0  0  0  0  0  0  0  0  0
   -0.6847   -4.8359    1.8438 H   0  0  0  0  0  0  0  0  0  0  0  0
   -0.5909   -4.7804    4.9183 H   0  0  0  0  0  0  0  0  0  0  0  0
    0.7693   -4.4386    3.8441 H   0  0  0  0  0  0  0  0  0  0  0  0
    0.0999   -6.0678    3.9068 H   0  0  0  0  0  0  0  0  0  0  0  0
   -2.8945   -5.4102    3.9033 H   0  0  0  0  0  0  0  0  0  0  0  0
   -2.0965   -6.6307    2.9049 H   0  0  0  0  0  0  0  0  0  0  0  0
   -3.0986   -5.3911    2.1436 H   0  0  0  0  0  0  0  0  0  0  0  0
    4.9767    1.0603    0.6955 H   0  0  0  0  0  0  0  0  0  0  0  0
    5.0065   -0.6610    1.0987 H   0  0  0  0  0  0  0  0  0  0  0  0
    4.7477    1.4521    2.9788 H   0  0  0  0  0  0  0  0  0  0  0  0
  1  2  1  0  0  0  0
  1 28  1  0  0  0  0
  1 29  1  0  0  0  0
  1 30  1  0  0  0  0
  2  3  1  0  0  0  0
  2 31  1  0  0  0  0
  2 32  1  0  0  0  0
  3  4  1  1  0  0  0
  3  5  1  0  0  0  0
  3 26  1  0  0  0  0
  5  6  1  0  0  0  0
  5 33  1  0  0  0  0
  6  7  2  0  0  0  0
  6 19  1  0  0  0  0
  7  8  1  0  0  0  0
  8  9  1  0  0  0  0
  8 17  2  0  0  0  0
  9 10  1  0  0  0  0
 10 11  1  0  0  0  0
 10 34  1  0  0  0  0
 10 35  1  0  0  0  0
 11 12  2  0  0  0  0
 11 16  1  0  0  0  0
 12 13  1  0  0  0  0
 12 36  1  0  0  0  0
 13 14  2  0  0  0  0
 13 37  1  0  0  0  0
 14 15  1  0  0  0  0
 14 38  1  0  0  0  0
 15 16  2  0  0  0  0
 15 39  1  0  0  0  0
 16 40  1  0  0  0  0
 17 18  1  0  0  0  0
 17 22  1  0  0  0  0
 18 19  2  0  0  0  0
 18 20  1  0  0  0  0
 20 21  1  0  0  0  0
 20 23  1  0  0  0  0
 21 22  2  0  0  0  0
 21 41  1  0  0  0  0
 23 24  1  0  0  0  0
 23 25  1  0  0  0  0
 23 42  1  0  0  0  0
 24 43  1  0  0  0  0
 24 44  1  0  0  0  0
 24 45  1  0  0  0  0
 25 46  1  0  0  0  0
 25 47  1  0  0  0  0
 25 48  1  0  0  0  0
 26 27  1  0  0  0  0
 26 49  1  0  0  0  0
 26 50  1  0  0  0  0
 27 51  1  0  0  0  0
M  END
$$$$
