R99
 OpenBabel04121316183D

 54 54  0  0  1  0  0  0  0  0999 V2000
    8.1828   -8.1241   -4.7939 C   0  0  0  0  0  0  0  0  0  0  0  0
    9.3638   -7.7433   -5.6853 C   0  0  0  0  0  0  0  0  0  0  0  0
    9.6234   -6.2652   -5.5750 C   0  0  0  0  0  0  0  0  0  0  0  0
    8.3784   -5.5082   -5.9837 C   0  0  0  0  0  0  0  0  0  0  0  0
    8.6673   -4.1814   -5.6598 N   0  0  0  0  0  0  0  0  0  0  0  0
    7.9317   -3.1022   -6.0319 C   0  0  0  0  0  0  0  0  0  0  0  0
    6.8447   -3.1223   -6.6013 O   0  0  0  0  0  0  0  0  0  0  0  0
    8.8502   -1.9353   -5.7515 C   0  0  2  0  0  0  0  0  0  0  0  0
    9.1720   -2.0263   -4.7055 H   0  0  0  0  0  0  0  0  0  0  0  0
    8.2945   -0.6434   -5.8871 N   0  0  0  0  0  0  0  0  0  0  0  0
    7.2441   -0.2662   -5.0864 C   0  0  0  0  0  0  0  0  0  0  0  0
    6.7502   -1.0055   -4.2388 O   0  0  0  0  0  0  0  0  0  0  0  0
    6.7939    1.1810   -5.2957 C   0  0  2  0  0  0  0  0  0  0  0  0
    5.7005    1.1815   -5.2129 H   0  0  0  0  0  0  0  0  0  0  0  0
    7.2296    1.7744   -6.6385 C   0  0  0  0  0  0  0  0  0  0  0  0
    6.7062    0.9336   -7.7790 C   0  0  0  0  0  0  0  0  0  0  0  0
    5.9514   -0.0149   -7.6519 O   0  0  0  0  0  0  0  0  0  0  0  0
    7.1597    1.3158   -8.9900 O   0  0  0  0  0  0  0  0  0  0  0  0
    7.3627    1.9730   -4.2518 O   0  0  0  0  0  0  0  0  0  0  0  0
   10.0625   -2.1116   -6.6753 C   0  0  0  0  0  0  0  0  0  0  0  0
    9.6874   -1.9566   -8.1486 C   0  0  0  0  0  0  0  0  0  0  0  0
   10.8836   -2.1237   -9.0397 C   0  0  0  0  0  0  0  0  0  0  0  0
   12.1396   -1.6416   -8.6485 C   0  0  0  0  0  0  0  0  0  0  0  0
   13.1546   -1.4974   -9.5766 C   0  0  0  0  0  0  0  0  0  0  0  0
   12.9702   -1.9727  -10.8676 C   0  0  0  0  0  0  0  0  0  0  0  0
   11.7854   -2.6214  -11.2165 C   0  0  0  0  0  0  0  0  0  0  0  0
   10.7198   -2.6486  -10.3232 C   0  0  0  0  0  0  0  0  0  0  0  0
   10.6149   -8.4975   -5.2750 C   0  0  0  0  0  0  0  0  0  0  0  0
    7.2580   -7.6204   -5.0914 H   0  0  0  0  0  0  0  0  0  0  0  0
    8.3819   -7.8494   -3.7513 H   0  0  0  0  0  0  0  0  0  0  0  0
    7.9783   -9.1905   -4.8609 H   0  0  0  0  0  0  0  0  0  0  0  0
    9.1269   -7.9673   -6.7318 H   0  0  0  0  0  0  0  0  0  0  0  0
   10.4784   -5.9521   -6.1968 H   0  0  0  0  0  0  0  0  0  0  0  0
    9.9119   -5.9966   -4.5444 H   0  0  0  0  0  0  0  0  0  0  0  0
    7.4897   -5.7216   -5.3948 H   0  0  0  0  0  0  0  0  0  0  0  0
    8.1542   -5.6089   -7.0503 H   0  0  0  0  0  0  0  0  0  0  0  0
    9.5396   -4.0137   -5.1766 H   0  0  0  0  0  0  0  0  0  0  0  0
    8.8396    0.0217   -6.4036 H   0  0  0  0  0  0  0  0  0  0  0  0
    8.3256    1.8415   -6.6839 H   0  0  0  0  0  0  0  0  0  0  0  0
    6.8615    2.7986   -6.7276 H   0  0  0  0  0  0  0  0  0  0  0  0
    7.7256    2.1078   -9.0104 H   0  0  0  0  0  0  0  0  0  0  0  0
    6.8588    2.8017   -4.2078 H   0  0  0  0  0  0  0  0  0  0  0  0
   10.5468   -3.0947   -6.5826 H   0  0  0  0  0  0  0  0  0  0  0  0
   10.8145   -1.3921   -6.3475 H   0  0  0  0  0  0  0  0  0  0  0  0
    9.2782   -0.9570   -8.3334 H   0  0  0  0  0  0  0  0  0  0  0  0
    8.9089   -2.6769   -8.4333 H   0  0  0  0  0  0  0  0  0  0  0  0
   12.3454   -1.3329   -7.6295 H   0  0  0  0  0  0  0  0  0  0  0  0
   14.0744   -1.0019   -9.2836 H   0  0  0  0  0  0  0  0  0  0  0  0
   13.7571   -1.8395  -11.6012 H   0  0  0  0  0  0  0  0  0  0  0  0
   11.6797   -3.0738  -12.1973 H   0  0  0  0  0  0  0  0  0  0  0  0
    9.7601   -3.0574  -10.6365 H   0  0  0  0  0  0  0  0  0  0  0  0
   10.8835   -8.2739   -4.2364 H   0  0  0  0  0  0  0  0  0  0  0  0
   11.4639   -8.2204   -5.9092 H   0  0  0  0  0  0  0  0  0  0  0  0
   10.4445   -9.5713   -5.3696 H   0  0  0  0  0  0  0  0  0  0  0  0
  1  2  1  0  0  0  0
  1 29  1  0  0  0  0
  1 30  1  0  0  0  0
  1 31  1  0  0  0  0
  2  3  1  0  0  0  0
  2 28  1  0  0  0  0
  2 32  1  0  0  0  0
  3  4  1  0  0  0  0
  3 33  1  0  0  0  0
  3 34  1  0  0  0  0
  4  5  1  0  0  0  0
  4 35  1  0  0  0  0
  4 36  1  0  0  0  0
  5  6  1  0  0  0  0
  5 37  1  0  0  0  0
  6  7  2  0  0  0  0
  8 10  1  0  0  0  0
  8 20  1  0  0  0  0
  8  9  1  1  0  0  0
  8  6  1  0  0  0  0
 10 11  1  0  0  0  0
 10 38  1  0  0  0  0
 11 12  2  0  0  0  0
 13 15  1  0  0  0  0
 13 19  1  0  0  0  0
 13 14  1  1  0  0  0
 13 11  1  0  0  0  0
 15 16  1  0  0  0  0
 15 39  1  0  0  0  0
 15 40  1  0  0  0  0
 16 17  2  0  0  0  0
 16 18  1  0  0  0  0
 18 41  1  0  0  0  0
 19 42  1  0  0  0  0
 20 21  1  0  0  0  0
 20 43  1  0  0  0  0
 20 44  1  0  0  0  0
 21 22  1  0  0  0  0
 21 45  1  0  0  0  0
 21 46  1  0  0  0  0
 22 23  2  0  0  0  0
 22 27  1  0  0  0  0
 23 24  1  0  0  0  0
 23 47  1  0  0  0  0
 24 25  2  0  0  0  0
 24 48  1  0  0  0  0
 25 26  1  0  0  0  0
 25 49  1  0  0  0  0
 26 27  2  0  0  0  0
 26 50  1  0  0  0  0
 27 51  1  0  0  0  0
 28 52  1  0  0  0  0
 28 53  1  0  0  0  0
 28 54  1  0  0  0  0
M  END
$$$$
