RAB
 OpenBabel04121316183D

 32 34  0  0  1  0  0  0  0  0999 V2000
    0.8846    0.0352    0.1078 O   0  0  0  0  0  0  0  0  0  0  0  0
    2.2979    0.0253   -0.0010 C   0  0  0  0  0  0  0  0  0  0  0  0
    2.9482    1.4291    0.0095 C   0  0  1  0  0  0  0  0  0  0  0  0
    3.7196    1.4368   -0.7716 H   0  0  0  0  0  0  0  0  0  0  0  0
    2.0906    2.5811   -0.1892 O   0  0  0  0  0  0  0  0  0  0  0  0
    2.8683    3.7246    0.2905 C   0  0  2  0  0  0  0  0  0  0  0  0
    3.6164    3.9496   -0.4850 H   0  0  0  0  0  0  0  0  0  0  0  0
    3.6000    3.1744    1.5463 C   0  0  2  0  0  0  0  0  0  0  0  0
    4.6066    3.5929    1.6365 H   0  0  0  0  0  0  0  0  0  0  0  0
    3.5845    1.6629    1.3659 C   0  0  2  0  0  0  0  0  0  0  0  0
    2.9643    1.1959    2.1440 H   0  0  0  0  0  0  0  0  0  0  0  0
    4.8774    1.0898    1.4719 O   0  0  0  0  0  0  0  0  0  0  0  0
    2.9538    3.3776    2.8090 O   0  0  0  0  0  0  0  0  0  0  0  0
    2.0242    4.9065    0.4392 N   0  0  0  0  0  0  0  0  0  0  0  0
    1.3864    5.3196    1.5827 C   0  0  0  0  0  0  0  0  0  0  0  0
    0.5631    6.3243    1.3912 N   0  0  0  0  0  0  0  0  0  0  0  0
    0.7508    6.6546    0.0857 C   0  0  0  0  0  0  0  0  0  0  0  0
    1.7056    5.8482   -0.5270 C   0  0  0  0  0  0  0  0  0  0  0  0
    2.1521    5.9905   -1.7886 N   0  0  0  0  0  0  0  0  0  0  0  0
    1.5057    7.0156   -2.4140 C   0  0  0  0  0  0  0  0  0  0  0  0
    0.5303    7.8331   -1.9442 N   0  0  0  0  0  0  0  0  0  0  0  0
    0.1354    7.6600   -0.6706 C   0  0  0  0  0  0  0  0  0  0  0  0
   -0.8453    8.4555   -0.1176 N   0  0  0  0  0  0  0  0  0  0  0  0
    0.5979   -0.8961    0.0704 H   0  0  0  0  0  0  0  0  0  0  0  0
    2.5835   -0.5171   -0.9083 H   0  0  0  0  0  0  0  0  0  0  0  0
    2.6792   -0.5797    0.8334 H   0  0  0  0  0  0  0  0  0  0  0  0
    5.1815    1.2684    2.3821 H   0  0  0  0  0  0  0  0  0  0  0  0
    2.0498    3.0060    2.7341 H   0  0  0  0  0  0  0  0  0  0  0  0
    1.5097    4.8975    2.5590 H   0  0  0  0  0  0  0  0  0  0  0  0
    1.8016    7.2128   -3.4413 H   0  0  0  0  0  0  0  0  0  0  0  0
   -1.3414    9.1108   -0.6966 H   0  0  0  0  0  0  0  0  0  0  0  0
   -1.1483    8.2299    0.8223 H   0  0  0  0  0  0  0  0  0  0  0  0
  1  2  1  0  0  0  0
  1 24  1  0  0  0  0
  2  3  1  0  0  0  0
  2 25  1  0  0  0  0
  2 26  1  0  0  0  0
  3  4  1  6  0  0  0
  3  5  1  0  0  0  0
  3 10  1  0  0  0  0
  5  6  1  0  0  0  0
  6  8  1  0  0  0  0
  6 14  1  0  0  0  0
  6  7  1  6  0  0  0
  8 10  1  0  0  0  0
  8 13  1  0  0  0  0
  8  9  1  1  0  0  0
 10 11  1  1  0  0  0
 10 12  1  0  0  0  0
 12 27  1  0  0  0  0
 13 28  1  0  0  0  0
 14 15  1  0  0  0  0
 14 18  1  0  0  0  0
 15 16  2  0  0  0  0
 15 29  1  0  0  0  0
 16 17  1  0  0  0  0
 17 18  2  0  0  0  0
 17 22  1  0  0  0  0
 18 19  1  0  0  0  0
 19 20  2  0  0  0  0
 20 21  1  0  0  0  0
 20 30  1  0  0  0  0
 21 22  2  0  0  0  0
 22 23  1  0  0  0  0
 23 31  1  0  0  0  0
 23 32  1  0  0  0  0
M  END
$$$$
