RAI
 OpenBabel04121316183D

 41 42  0  0  0  0  0  0  0  0999 V2000
    2.3846    0.8290    1.5466 O   0  0  0  0  0  0  0  0  0  0  0  0
    3.3411    0.0488    0.7686 C   0  0  0  0  0  0  0  0  0  0  0  0
    3.2559   -1.4564   -0.1937 C   0  0  0  0  0  0  0  0  0  0  0  0
    3.7148   -1.2919   -1.7175 C   0  0  0  0  0  0  0  0  0  0  0  0
    4.1607   -2.4885   -2.3698 O   0  0  0  0  0  0  0  0  0  0  0  0
    4.3113   -2.0245    0.7674 C   0  0  0  0  0  0  0  0  0  0  0  0
    4.3435   -3.4896    0.6514 C   0  0  0  0  0  0  0  0  0  0  0  0
    2.8839   -3.8298    0.3115 C   0  0  0  0  0  0  0  0  0  0  0  0
    2.4601   -4.9282    0.4885 O   0  0  0  0  0  0  0  0  0  0  0  0
    2.2241   -2.6260   -0.2109 N   0  0  0  0  0  0  0  0  0  0  0  0
    0.8481   -2.7268   -1.0032 C   0  0  0  0  0  0  0  0  0  0  0  0
    0.1209   -3.9384   -1.0097 C   0  0  0  0  0  0  0  0  0  0  0  0
   -1.1926   -4.0099   -1.5572 C   0  0  0  0  0  0  0  0  0  0  0  0
   -1.9272   -2.8613   -1.8785 C   0  0  0  0  0  0  0  0  0  0  0  0
   -1.3385   -1.6489   -1.6705 C   0  0  0  0  0  0  0  0  0  0  0  0
    0.0550   -1.5836   -1.5035 C   0  0  0  0  0  0  0  0  0  0  0  0
    0.5100   -0.2253   -1.7715 N   0  0  0  0  0  0  0  0  0  0  0  0
    1.2437    0.3005   -0.8245 C   0  0  0  0  0  0  0  0  0  0  0  0
    1.0217   -0.2468    0.3268 N   0  0  0  0  0  0  0  0  0  0  0  0
    1.7870    1.5278   -0.9214 N   0  0  0  0  0  0  0  0  0  0  0  0
   -3.2147   -2.9326   -2.6054 C   0  0  0  0  0  0  0  0  0  0  0  0
   -3.6660   -4.0115   -2.9839 O   0  0  0  0  0  0  0  0  0  0  0  0
   -3.8141   -1.7667   -2.9266 O   0  0  0  0  0  0  0  0  0  0  0  0
    1.4774    0.7424    1.1473 H   0  0  0  0  0  0  0  0  0  0  0  0
    4.0830    0.0168    1.5624 H   0  0  0  0  0  0  0  0  0  0  0  0
    3.8165    0.7054    0.0461 H   0  0  0  0  0  0  0  0  0  0  0  0
    4.4564   -0.5093   -1.8901 H   0  0  0  0  0  0  0  0  0  0  0  0
    2.8529   -1.0190   -2.3362 H   0  0  0  0  0  0  0  0  0  0  0  0
    4.8724   -2.9024   -1.8657 H   0  0  0  0  0  0  0  0  0  0  0  0
    3.9314   -1.8624    1.7958 H   0  0  0  0  0  0  0  0  0  0  0  0
    5.2765   -1.5039    0.7044 H   0  0  0  0  0  0  0  0  0  0  0  0
    4.6475   -3.8969    1.6232 H   0  0  0  0  0  0  0  0  0  0  0  0
    5.0557   -3.7931   -0.1102 H   0  0  0  0  0  0  0  0  0  0  0  0
    0.5136   -4.8713   -0.6058 H   0  0  0  0  0  0  0  0  0  0  0  0
   -1.6514   -4.9830   -1.7340 H   0  0  0  0  0  0  0  0  0  0  0  0
   -1.9034   -0.7201   -1.6618 H   0  0  0  0  0  0  0  0  0  0  0  0
   -0.3043    0.3744   -1.6062 H   0  0  0  0  0  0  0  0  0  0  0  0
    1.1178   -1.2730    0.2859 H   0  0  0  0  0  0  0  0  0  0  0  0
    1.5978    2.2675   -1.5720 H   0  0  0  0  0  0  0  0  0  0  0  0
    2.4146    1.8381   -0.1747 H   0  0  0  0  0  0  0  0  0  0  0  0
   -3.4045   -0.9242   -2.6688 H   0  0  0  0  0  0  0  0  0  0  0  0
  1  2  1  0  0  0  0
  1 24  1  0  0  0  0
  2  3  1  0  0  0  0
  2 25  1  0  0  0  0
  2 26  1  0  0  0  0
  3  4  1  0  0  0  0
  3  6  1  0  0  0  0
  3 10  1  0  0  0  0
  4  5  1  0  0  0  0
  4 27  1  0  0  0  0
  4 28  1  0  0  0  0
  5 29  1  0  0  0  0
  6  7  1  0  0  0  0
  6 30  1  0  0  0  0
  6 31  1  0  0  0  0
  7  8  1  0  0  0  0
  7 32  1  0  0  0  0
  7 33  1  0  0  0  0
  8  9  2  0  0  0  0
  8 10  1  0  0  0  0
 10 11  1  0  0  0  0
 11 12  2  0  0  0  0
 11 16  1  0  0  0  0
 12 13  1  0  0  0  0
 12 34  1  0  0  0  0
 13 14  2  0  0  0  0
 13 35  1  0  0  0  0
 14 15  1  0  0  0  0
 14 21  1  0  0  0  0
 15 16  2  0  0  0  0
 15 36  1  0  0  0  0
 16 17  1  0  0  0  0
 17 18  1  0  0  0  0
 17 37  1  0  0  0  0
 18 19  2  0  0  0  0
 18 20  1  0  0  0  0
 19 38  1  0  0  0  0
 20 39  1  0  0  0  0
 20 40  1  0  0  0  0
 21 22  2  0  0  0  0
 21 23  1  0  0  0  0
 23 41  1  0  0  0  0
M  END
$$$$
