RAJ
 OpenBabel04121316183D

 68 71  0  0  0  0  0  0  0  0999 V2000
    1.0542    0.0409    0.0312 C   0  0  0  0  0  0  0  0  0  0  0  0
    2.5205    0.0004    0.0177 N   0  0  0  0  0  0  0  0  0  0  0  0
    3.0272   -1.3339   -0.3210 C   0  0  0  0  0  0  0  0  0  0  0  0
    2.5645   -2.3370    0.7050 C   0  0  0  0  0  0  0  0  0  0  0  0
    3.0417   -3.7317    0.3706 C   0  0  0  0  0  0  0  0  0  0  0  0
    2.5665   -4.7288    1.3893 C   0  0  0  0  0  0  0  0  0  0  0  0
    2.9220   -6.0701    1.1863 C   0  0  0  0  0  0  0  0  0  0  0  0
    2.8658   -6.9562    2.2510 C   0  0  0  0  0  0  0  0  0  0  0  0
    3.3120   -8.2930    2.0580 N   0  0  0  0  0  0  0  0  0  0  0  0
    3.5480   -9.2178    3.0945 C   0  0  0  0  0  0  0  0  0  0  0  0
    3.6154   -8.9238    4.2705 O   0  0  0  0  0  0  0  0  0  0  0  0
    3.6595  -10.6823    2.7307 C   0  0  0  0  0  0  0  0  0  0  0  0
    3.9997  -11.1032    1.4624 C   0  0  0  0  0  0  0  0  0  0  0  0
    4.0420  -12.4731    1.1993 C   0  0  0  0  0  0  0  0  0  0  0  0
    3.4748  -13.4166    2.0835 C   0  0  0  0  0  0  0  0  0  0  0  0
    2.9923  -13.0015    3.3264 C   0  0  0  0  0  0  0  0  0  0  0  0
    3.3131  -11.6717    3.6886 C   0  0  0  0  0  0  0  0  0  0  0  0
    2.0807  -13.8190    4.0609 N   0  0  0  0  0  0  0  0  0  0  0  0
    1.1756  -13.5078    5.1060 C   0  0  0  0  0  0  0  0  0  0  0  0
    0.7858  -14.4974    5.9456 N   0  0  0  0  0  0  0  0  0  0  0  0
    0.3251  -14.1280    7.1707 C   0  0  0  0  0  0  0  0  0  0  0  0
    0.4159  -12.8477    7.6642 C   0  0  0  0  0  0  0  0  0  0  0  0
    0.6073  -11.8626    6.7277 C   0  0  0  0  0  0  0  0  0  0  0  0
    0.8050  -12.1974    5.3787 C   0  0  0  0  0  0  0  0  0  0  0  0
    0.6290  -11.1876    4.3371 C   0  0  0  0  0  0  0  0  0  0  0  0
    0.8361   -9.8740    4.6468 C   0  0  0  0  0  0  0  0  0  0  0  0
    0.5646   -8.9967    3.6488 C   0  0  0  0  0  0  0  0  0  0  0  0
    0.4514   -9.3361    2.3566 N   0  0  0  0  0  0  0  0  0  0  0  0
    0.4815  -10.6458    2.1211 C   0  0  0  0  0  0  0  0  0  0  0  0
    0.4001  -11.5910    3.0617 N   0  0  0  0  0  0  0  0  0  0  0  0
    3.4059  -14.8598    1.6871 C   0  0  0  0  0  0  0  0  0  0  0  0
    2.3616   -6.4801    3.4652 C   0  0  0  0  0  0  0  0  0  0  0  0
    1.7696   -5.2249    3.6139 C   0  0  0  0  0  0  0  0  0  0  0  0
    1.9183   -4.3319    2.5752 C   0  0  0  0  0  0  0  0  0  0  0  0
    1.0593   -4.8786    4.8931 C   0  0  0  0  0  0  0  0  0  0  0  0
   -0.1091   -5.5680    5.0424 F   0  0  0  0  0  0  0  0  0  0  0  0
    1.8072   -5.1831    5.9878 F   0  0  0  0  0  0  0  0  0  0  0  0
    0.7307   -3.5631    5.0135 F   0  0  0  0  0  0  0  0  0  0  0  0
    3.0326    0.9538   -0.9623 C   0  0  0  0  0  0  0  0  0  0  0  0
    0.6314   -0.5878    0.8223 H   0  0  0  0  0  0  0  0  0  0  0  0
    0.6343   -0.2847   -0.9268 H   0  0  0  0  0  0  0  0  0  0  0  0
    0.6965    1.0488    0.2575 H   0  0  0  0  0  0  0  0  0  0  0  0
    4.1257   -1.3299   -0.3163 H   0  0  0  0  0  0  0  0  0  0  0  0
    2.7007   -1.6479   -1.3194 H   0  0  0  0  0  0  0  0  0  0  0  0
    1.4713   -2.3830    0.7414 H   0  0  0  0  0  0  0  0  0  0  0  0
    2.9285   -2.0211    1.6933 H   0  0  0  0  0  0  0  0  0  0  0  0
    4.1396   -3.7483    0.3657 H   0  0  0  0  0  0  0  0  0  0  0  0
    2.6868   -4.0266   -0.6228 H   0  0  0  0  0  0  0  0  0  0  0  0
    3.3568   -6.3652    0.2349 H   0  0  0  0  0  0  0  0  0  0  0  0
    3.3454   -8.5907    1.0946 H   0  0  0  0  0  0  0  0  0  0  0  0
    4.2825  -10.3989    0.6905 H   0  0  0  0  0  0  0  0  0  0  0  0
    4.5155  -12.8021    0.2797 H   0  0  0  0  0  0  0  0  0  0  0  0
    3.1433  -11.3568    4.7137 H   0  0  0  0  0  0  0  0  0  0  0  0
    2.0903  -14.8167    3.8947 H   0  0  0  0  0  0  0  0  0  0  0  0
   -0.1488  -14.9004    7.7672 H   0  0  0  0  0  0  0  0  0  0  0  0
    0.2338  -12.5898    8.6994 H   0  0  0  0  0  0  0  0  0  0  0  0
    0.5384  -10.8280    7.0494 H   0  0  0  0  0  0  0  0  0  0  0  0
    1.3249   -9.5567    5.5611 H   0  0  0  0  0  0  0  0  0  0  0  0
    0.5713   -7.9500    3.8813 H   0  0  0  0  0  0  0  0  0  0  0  0
    0.7193  -10.9581    1.1087 H   0  0  0  0  0  0  0  0  0  0  0  0
    3.9751  -15.0419    0.7723 H   0  0  0  0  0  0  0  0  0  0  0  0
    2.3696  -15.1716    1.5238 H   0  0  0  0  0  0  0  0  0  0  0  0
    3.8496  -15.4693    2.4816 H   0  0  0  0  0  0  0  0  0  0  0  0
    2.3648   -7.1011    4.3513 H   0  0  0  0  0  0  0  0  0  0  0  0
    1.5948   -3.3067    2.7510 H   0  0  0  0  0  0  0  0  0  0  0  0
    2.6981    1.9662   -0.7205 H   0  0  0  0  0  0  0  0  0  0  0  0
    2.6989    0.7021   -1.9751 H   0  0  0  0  0  0  0  0  0  0  0  0
    4.1281    0.9635   -0.9507 H   0  0  0  0  0  0  0  0  0  0  0  0
  1  2  1  0  0  0  0
  1 40  1  0  0  0  0
  1 41  1  0  0  0  0
  1 42  1  0  0  0  0
  2  3  1  0  0  0  0
  2 39  1  0  0  0  0
  3  4  1  0  0  0  0
  3 43  1  0  0  0  0
  3 44  1  0  0  0  0
  4  5  1  0  0  0  0
  4 45  1  0  0  0  0
  4 46  1  0  0  0  0
  5  6  1  0  0  0  0
  5 47  1  0  0  0  0
  5 48  1  0  0  0  0
  6  7  2  0  0  0  0
  6 34  1  0  0  0  0
  7  8  1  0  0  0  0
  7 49  1  0  0  0  0
  8  9  1  0  0  0  0
  8 32  2  0  0  0  0
  9 10  1  0  0  0  0
  9 50  1  0  0  0  0
 10 11  2  0  0  0  0
 10 12  1  0  0  0  0
 12 13  2  0  0  0  0
 12 17  1  0  0  0  0
 13 14  1  0  0  0  0
 13 51  1  0  0  0  0
 14 15  2  0  0  0  0
 14 52  1  0  0  0  0
 15 16  1  0  0  0  0
 15 31  1  0  0  0  0
 16 17  2  0  0  0  0
 16 18  1  0  0  0  0
 17 53  1  0  0  0  0
 18 19  1  0  0  0  0
 18 54  1  0  0  0  0
 19 20  2  0  0  0  0
 19 24  1  0  0  0  0
 20 21  1  0  0  0  0
 21 22  2  0  0  0  0
 21 55  1  0  0  0  0
 22 23  1  0  0  0  0
 22 56  1  0  0  0  0
 23 24  2  0  0  0  0
 23 57  1  0  0  0  0
 24 25  1  0  0  0  0
 25 26  2  0  0  0  0
 25 30  1  0  0  0  0
 26 27  1  0  0  0  0
 26 58  1  0  0  0  0
 27 28  2  0  0  0  0
 27 59  1  0  0  0  0
 28 29  1  0  0  0  0
 29 30  2  0  0  0  0
 29 60  1  0  0  0  0
 31 61  1  0  0  0  0
 31 62  1  0  0  0  0
 31 63  1  0  0  0  0
 32 33  1  0  0  0  0
 32 64  1  0  0  0  0
 33 34  2  0  0  0  0
 33 35  1  0  0  0  0
 34 65  1  0  0  0  0
 35 36  1  0  0  0  0
 35 37  1  0  0  0  0
 35 38  1  0  0  0  0
 39 66  1  0  0  0  0
 39 67  1  0  0  0  0
 39 68  1  0  0  0  0
M  END
$$$$
