RAT
 OpenBabel04121316183D

 20 19  0  0  1  0  0  0  0  0999 V2000
    2.9472   -1.2708   -0.1423 O   0  0  0  0  0  0  0  0  0  0  0  0
    2.5464    0.0933   -0.0039 C   0  0  2  0  0  0  0  0  0  0  0  0
    1.4496    0.0509   -0.0479 H   0  0  0  0  0  0  0  0  0  0  0  0
    3.0148    0.9647   -1.1968 C   0  0  1  0  0  0  0  0  0  0  0  0
    2.6302    1.9853   -1.0991 H   0  0  0  0  0  0  0  0  0  0  0  0
    4.5477    1.0421   -1.3735 C   0  0  0  0  0  0  0  0  0  0  0  0
    5.1764    0.4340   -2.2165 O   0  0  0  0  0  0  0  0  0  0  0  0
    5.2015    1.8375   -0.4926 O   0  0  0  0  0  0  0  0  0  0  0  0
    2.4614    0.4486   -2.4183 O   0  0  0  0  0  0  0  0  0  0  0  0
    2.9422    0.6527    1.3749 C   0  0  1  0  0  0  0  0  0  0  0  0
    2.4939    1.6432    1.5039 H   0  0  0  0  0  0  0  0  0  0  0  0
    2.4536   -0.2324    2.5310 C   0  0  0  0  0  0  0  0  0  0  0  0
    3.2030   -0.7883    3.3216 O   0  0  0  0  0  0  0  0  0  0  0  0
    1.1094   -0.3013    2.6666 O   0  0  0  0  0  0  0  0  0  0  0  0
    4.3437    0.8970    1.4709 O   0  0  0  0  0  0  0  0  0  0  0  0
    3.9156   -1.3528   -0.2057 H   0  0  0  0  0  0  0  0  0  0  0  0
    4.7240    2.1341    0.3163 H   0  0  0  0  0  0  0  0  0  0  0  0
    1.5030    0.3260   -2.3355 H   0  0  0  0  0  0  0  0  0  0  0  0
    0.5659    0.1651    2.0080 H   0  0  0  0  0  0  0  0  0  0  0  0
    4.8505    0.2114    0.9876 H   0  0  0  0  0  0  0  0  0  0  0  0
  1 16  1  0  0  0  0
  2  4  1  0  0  0  0
  2 10  1  0  0  0  0
  2  3  1  6  0  0  0
  2  1  1  0  0  0  0
  4  5  1  1  0  0  0
  4  6  1  0  0  0  0
  4  9  1  0  0  0  0
  6  7  2  0  0  0  0
  6  8  1  0  0  0  0
  8 17  1  0  0  0  0
  9 18  1  0  0  0  0
 10 11  1  1  0  0  0
 10 12  1  0  0  0  0
 10 15  1  0  0  0  0
 12 13  2  0  0  0  0
 12 14  1  0  0  0  0
 14 19  1  0  0  0  0
 15 20  1  0  0  0  0
M  END
$$$$
