RB2
 OpenBabel04121316183D

 37 37  0  0  1  0  0  0  0  0999 V2000
    1.7251   -4.3804    2.3232 C   0  0  0  0  0  0  0  0  0  0  0  0
    1.1833   -3.1168    1.9938 O   0  0  0  0  0  0  0  0  0  0  0  0
   -0.2270   -3.0927    2.1843 C   0  0  2  0  0  0  0  0  0  0  0  0
   -0.5543   -3.9504    2.7824 H   0  0  0  0  0  0  0  0  0  0  0  0
   -0.9597   -3.1822    0.7965 C   0  0  1  0  0  0  0  0  0  0  0  0
   -1.1878   -4.2542    0.6803 H   0  0  0  0  0  0  0  0  0  0  0  0
   -2.3119   -2.4119    0.7349 C   0  0  0  0  0  0  0  0  0  0  0  0
   -2.2482   -0.8848    0.4824 C   0  0  1  0  0  0  0  0  0  0  0  0
   -3.2307   -0.5380    0.1557 H   0  0  0  0  0  0  0  0  0  0  0  0
   -1.8968    0.1405    1.8985 Cl  0  0  0  0  0  0  0  0  0  0  0  0
   -1.2338   -0.5854   -0.5892 C   0  0  0  0  0  0  0  0  0  0  0  0
    0.0918   -1.2799   -0.3141 C   0  0  0  0  0  0  0  0  0  0  0  0
   -0.0218   -2.8010   -0.4097 C   0  0  2  0  0  0  0  0  0  0  0  0
    0.9521   -3.2833   -0.2691 H   0  0  0  0  0  0  0  0  0  0  0  0
   -0.4909   -3.3103   -1.7134 N   0  0  0  0  0  0  0  0  0  0  0  0
    0.4110   -3.1480   -2.8700 C   0  0  2  0  0  0  0  0  0  0  0  0
    1.3500   -3.6759   -2.6714 H   0  0  0  0  0  0  0  0  0  0  0  0
    0.7434   -1.6827   -3.3970 C   0  0  0  0  0  0  0  0  0  0  0  0
   -0.4353   -0.8900   -3.3532 O   0  0  0  0  0  0  0  0  0  0  0  0
    1.8305   -1.0377   -2.7602 O   0  0  0  0  0  0  0  0  0  0  0  0
   -0.2234   -3.8431   -3.9476 O   0  0  0  0  0  0  0  0  0  0  0  0
   -0.4868   -2.0056    3.0310 O   0  0  0  0  0  0  0  0  0  0  0  0
    2.8001   -4.3572    2.1363 H   0  0  0  0  0  0  0  0  0  0  0  0
    1.2685   -5.1522    1.6968 H   0  0  0  0  0  0  0  0  0  0  0  0
    1.5477   -4.5867    3.3816 H   0  0  0  0  0  0  0  0  0  0  0  0
   -2.9355   -2.6448    1.6033 H   0  0  0  0  0  0  0  0  0  0  0  0
   -2.8483   -2.8264   -0.1322 H   0  0  0  0  0  0  0  0  0  0  0  0
   -1.0536    0.4852   -0.7248 H   0  0  0  0  0  0  0  0  0  0  0  0
   -1.6855   -0.9355   -1.5186 H   0  0  0  0  0  0  0  0  0  0  0  0
    0.5015   -1.0035    0.6619 H   0  0  0  0  0  0  0  0  0  0  0  0
    0.8123   -0.8566   -0.9785 H   0  0  0  0  0  0  0  0  0  0  0  0
   -1.3917   -2.9290   -1.9922 H   0  0  0  0  0  0  0  0  0  0  0  0
    1.0315   -1.7213   -4.4471 H   0  0  0  0  0  0  0  0  0  0  0  0
   -0.1539    0.0331   -3.3722 H   0  0  0  0  0  0  0  0  0  0  0  0
    2.1246   -1.5954   -2.0131 H   0  0  0  0  0  0  0  0  0  0  0  0
    0.2293   -3.5830   -4.7675 H   0  0  0  0  0  0  0  0  0  0  0  0
   -1.2044   -1.4484    2.6647 H   0  0  0  0  0  0  0  0  0  0  0  0
  1  2  1  0  0  0  0
  1 23  1  0  0  0  0
  1 24  1  0  0  0  0
  1 25  1  0  0  0  0
  3  5  1  0  0  0  0
  3 22  1  0  0  0  0
  3  4  1  1  0  0  0
  3  2  1  0  0  0  0
  5  6  1  6  0  0  0
  5  7  1  0  0  0  0
  5 13  1  0  0  0  0
  7  8  1  0  0  0  0
  7 26  1  0  0  0  0
  7 27  1  0  0  0  0
  8 11  1  0  0  0  0
  8 10  1  0  0  0  0
  8  9  1  6  0  0  0
 11 12  1  0  0  0  0
 11 28  1  0  0  0  0
 11 29  1  0  0  0  0
 12 13  1  0  0  0  0
 12 30  1  0  0  0  0
 12 31  1  0  0  0  0
 13 14  1  1  0  0  0
 13 15  1  0  0  0  0
 15 32  1  0  0  0  0
 16 18  1  0  0  0  0
 16 21  1  0  0  0  0
 16 17  1  1  0  0  0
 16 15  1  0  0  0  0
 18 19  1  0  0  0  0
 18 20  1  0  0  0  0
 18 33  1  0  0  0  0
 19 34  1  0  0  0  0
 20 35  1  0  0  0  0
 21 36  1  0  0  0  0
 22 37  1  0  0  0  0
M  END
$$$$
