RBZ
 OpenBabel04121316183D

 43 45  0  0  1  0  0  0  0  0999 V2000
    2.3199    0.4219   -1.2236 O   0  0  0  0  0  0  0  0  0  0  0  0
    2.2248    0.0528    0.1471 C   0  0  2  0  0  0  0  0  0  0  0  0
    1.1551   -0.0550    0.3502 H   0  0  0  0  0  0  0  0  0  0  0  0
    2.8436    1.1530    0.9978 C   0  0  2  0  0  0  0  0  0  0  0  0
    2.2681    1.2152    1.9268 H   0  0  0  0  0  0  0  0  0  0  0  0
    2.8847    2.4510    0.4118 O   0  0  0  0  0  0  0  0  0  0  0  0
    4.2537    0.6433    1.2267 C   0  0  2  0  0  0  0  0  0  0  0  0
    4.9049    0.8441    0.3688 H   0  0  0  0  0  0  0  0  0  0  0  0
    4.1833   -0.7826    1.3272 O   0  0  0  0  0  0  0  0  0  0  0  0
    2.9966   -1.2133    0.6324 C   0  0  2  0  0  0  0  0  0  0  0  0
    2.3810   -1.7045    1.3988 H   0  0  0  0  0  0  0  0  0  0  0  0
    3.3759   -2.2365   -0.3280 N   0  0  0  0  0  0  0  0  0  0  0  0
    3.0983   -3.5704   -0.1574 C   0  0  0  0  0  0  0  0  0  0  0  0
    3.3096   -4.2579   -1.2644 N   0  0  0  0  0  0  0  0  0  0  0  0
    3.8026   -3.3478   -2.1613 C   0  0  0  0  0  0  0  0  0  0  0  0
    3.9768   -2.1012   -1.5617 C   0  0  0  0  0  0  0  0  0  0  0  0
    4.5982   -1.0525   -2.2409 C   0  0  0  0  0  0  0  0  0  0  0  0
    4.7651   -1.1550   -3.6314 C   0  0  0  0  0  0  0  0  0  0  0  0
    5.0889    0.1006   -4.3988 C   0  0  0  0  0  0  0  0  0  0  0  0
    4.5990   -2.3987   -4.2641 C   0  0  0  0  0  0  0  0  0  0  0  0
    4.1587   -3.5104   -3.5119 C   0  0  0  0  0  0  0  0  0  0  0  0
    4.9401   -2.6079   -5.7150 C   0  0  0  0  0  0  0  0  0  0  0  0
    4.9100    1.2631    2.4464 C   0  0  0  0  0  0  0  0  0  0  0  0
    3.9417    1.6269    3.4293 O   0  0  0  0  0  0  0  0  0  0  0  0
    4.5653    2.4290    4.8295 P   0  0  0  0  0  0  0  0  0  0  0  0
    3.4840    1.8385    5.7278 O   0  0  0  0  0  0  0  0  0  0  0  0
    5.8618    1.4465    4.9129 O   0  0  0  0  0  0  0  0  0  0  0  0
    5.1888    3.2311    6.2298 O   0  0  0  0  0  0  0  0  0  0  0  0
    3.2351    0.6542   -1.4227 H   0  0  0  0  0  0  0  0  0  0  0  0
    3.1257    2.3693   -0.5259 H   0  0  0  0  0  0  0  0  0  0  0  0
    2.7253   -3.9822    0.7682 H   0  0  0  0  0  0  0  0  0  0  0  0
    4.8884   -0.1424   -1.7339 H   0  0  0  0  0  0  0  0  0  0  0  0
    4.9790    0.9913   -3.7685 H   0  0  0  0  0  0  0  0  0  0  0  0
    4.3838    0.2317   -5.2290 H   0  0  0  0  0  0  0  0  0  0  0  0
    6.1117    0.0709   -4.7793 H   0  0  0  0  0  0  0  0  0  0  0  0
    4.0539   -4.4908   -3.9659 H   0  0  0  0  0  0  0  0  0  0  0  0
    5.2259   -1.6815   -6.2207 H   0  0  0  0  0  0  0  0  0  0  0  0
    4.0877   -3.0261   -6.2588 H   0  0  0  0  0  0  0  0  0  0  0  0
    5.7925   -3.2905   -5.7913 H   0  0  0  0  0  0  0  0  0  0  0  0
    5.6068    0.5280    2.8621 H   0  0  0  0  0  0  0  0  0  0  0  0
    5.4573    2.1665    2.1619 H   0  0  0  0  0  0  0  0  0  0  0  0
    6.6418    1.8420    4.4845 H   0  0  0  0  0  0  0  0  0  0  0  0
    4.5146    3.0099    6.9085 H   0  0  0  0  0  0  0  0  0  0  0  0
  1 29  1  0  0  0  0
  2  4  1  0  0  0  0
  2 10  1  0  0  0  0
  2  3  1  1  0  0  0
  2  1  1  0  0  0  0
  4  7  1  0  0  0  0
  4  6  1  0  0  0  0
  4  5  1  1  0  0  0
  6 30  1  0  0  0  0
  7  9  1  0  0  0  0
  7 23  1  0  0  0  0
  7  8  1  6  0  0  0
  9 10  1  0  0  0  0
 10 11  1  1  0  0  0
 10 12  1  0  0  0  0
 12 13  1  0  0  0  0
 12 16  1  0  0  0  0
 13 14  2  0  0  0  0
 13 31  1  0  0  0  0
 14 15  1  0  0  0  0
 15 16  2  0  0  0  0
 15 21  1  0  0  0  0
 16 17  1  0  0  0  0
 17 18  2  0  0  0  0
 17 32  1  0  0  0  0
 18 19  1  0  0  0  0
 18 20  1  0  0  0  0
 19 33  1  0  0  0  0
 19 34  1  0  0  0  0
 19 35  1  0  0  0  0
 20 21  2  0  0  0  0
 20 22  1  0  0  0  0
 21 36  1  0  0  0  0
 22 37  1  0  0  0  0
 22 38  1  0  0  0  0
 22 39  1  0  0  0  0
 23 24  1  0  0  0  0
 23 40  1  0  0  0  0
 23 41  1  0  0  0  0
 24 25  1  0  0  0  0
 25 26  2  0  0  0  0
 25 27  1  0  0  0  0
 25 28  1  0  0  0  0
 27 42  1  0  0  0  0
 28 43  1  0  0  0  0
M  END
$$$$
