RCL
 OpenBabel04121316183D

 55 54  0  0  1  0  0  0  0  0999 V2000
    5.5553   -8.5899    7.3754 C   0  0  0  0  0  0  0  0  0  0  0  0
    5.5391   -7.1335    6.9603 C   0  0  0  0  0  0  0  0  0  0  0  0
    6.0399   -6.9819    5.5356 C   0  0  0  0  0  0  0  0  0  0  0  0
    6.0369   -5.5125    5.1382 C   0  0  0  0  0  0  0  0  0  0  0  0
    6.5515   -5.3877    3.7230 C   0  0  0  0  0  0  0  0  0  0  0  0
    6.5455   -3.9381    3.2396 C   0  0  0  0  0  0  0  0  0  0  0  0
    7.0457   -3.8161    1.7919 C   0  0  2  0  0  0  0  0  0  0  0  0
    6.7330   -2.8435    1.3921 H   0  0  0  0  0  0  0  0  0  0  0  0
    6.5321   -4.9368    0.8798 C   0  0  0  0  0  0  0  0  0  0  0  0
    5.0392   -4.9619    0.8588 C   0  0  0  0  0  0  0  0  0  0  0  0
    4.3534   -5.9464    0.2778 C   0  0  0  0  0  0  0  0  0  0  0  0
    2.8664   -5.9535    0.3134 C   0  0  0  0  0  0  0  0  0  0  0  0
    2.3551   -7.1251   -0.4979 C   0  0  0  0  0  0  0  0  0  0  0  0
    0.8406   -7.1228   -0.4949 C   0  0  0  0  0  0  0  0  0  0  0  0
    0.3261   -8.2935   -1.3092 C   0  0  0  0  0  0  0  0  0  0  0  0
   -1.1944   -8.2928   -1.3089 C   0  0  0  0  0  0  0  0  0  0  0  0
   -1.7098   -9.4649   -2.1238 C   0  0  0  0  0  0  0  0  0  0  0  0
   -3.2340   -9.5087   -2.1542 C   0  0  0  0  0  0  0  0  0  0  0  0
   -3.6903  -10.6897   -2.9754 C   0  0  0  0  0  0  0  0  0  0  0  0
   -2.9401  -11.4864   -3.5295 O   0  0  0  0  0  0  0  0  0  0  0  0
   -5.0319  -10.8045   -3.0552 O   0  0  0  0  0  0  0  0  0  0  0  0
    8.4714   -3.8337    1.8001 O   0  0  0  0  0  0  0  0  0  0  0  0
    5.1994   -8.6907    8.4035 H   0  0  0  0  0  0  0  0  0  0  0  0
    6.5698   -8.9969    7.3173 H   0  0  0  0  0  0  0  0  0  0  0  0
    4.9085   -9.1858    6.7235 H   0  0  0  0  0  0  0  0  0  0  0  0
    6.1726   -6.5484    7.6363 H   0  0  0  0  0  0  0  0  0  0  0  0
    4.5204   -6.7367    7.0386 H   0  0  0  0  0  0  0  0  0  0  0  0
    5.4037   -7.5594    4.8511 H   0  0  0  0  0  0  0  0  0  0  0  0
    7.0549   -7.3891    5.4442 H   0  0  0  0  0  0  0  0  0  0  0  0
    6.6654   -4.9265    5.8157 H   0  0  0  0  0  0  0  0  0  0  0  0
    5.0158   -5.1153    5.1954 H   0  0  0  0  0  0  0  0  0  0  0  0
    5.8948   -6.0097    3.1054 H   0  0  0  0  0  0  0  0  0  0  0  0
    7.5616   -5.8048    3.6383 H   0  0  0  0  0  0  0  0  0  0  0  0
    7.1716   -3.3296    3.9021 H   0  0  0  0  0  0  0  0  0  0  0  0
    5.5247   -3.5419    3.3151 H   0  0  0  0  0  0  0  0  0  0  0  0
    6.9295   -5.9059    1.2152 H   0  0  0  0  0  0  0  0  0  0  0  0
    6.9210   -4.8104   -0.1351 H   0  0  0  0  0  0  0  0  0  0  0  0
    4.4873   -4.1896    1.3924 H   0  0  0  0  0  0  0  0  0  0  0  0
    4.8830   -6.7485   -0.2308 H   0  0  0  0  0  0  0  0  0  0  0  0
    2.4843   -5.0140   -0.1052 H   0  0  0  0  0  0  0  0  0  0  0  0
    2.5138   -6.0311    1.3496 H   0  0  0  0  0  0  0  0  0  0  0  0
    2.7311   -8.0665   -0.0761 H   0  0  0  0  0  0  0  0  0  0  0  0
    2.7290   -7.0599   -1.5280 H   0  0  0  0  0  0  0  0  0  0  0  0
    0.4694   -6.1804   -0.9159 H   0  0  0  0  0  0  0  0  0  0  0  0
    0.4700   -7.1888    0.5353 H   0  0  0  0  0  0  0  0  0  0  0  0
    0.7047   -9.2335   -0.8879 H   0  0  0  0  0  0  0  0  0  0  0  0
    0.7047   -8.2258   -2.3370 H   0  0  0  0  0  0  0  0  0  0  0  0
   -1.5631   -7.3500   -1.7302 H   0  0  0  0  0  0  0  0  0  0  0  0
   -1.5632   -8.3592   -0.2785 H   0  0  0  0  0  0  0  0  0  0  0  0
   -1.3207  -10.4008   -1.7023 H   0  0  0  0  0  0  0  0  0  0  0  0
   -1.3207   -9.3958   -3.1479 H   0  0  0  0  0  0  0  0  0  0  0  0
   -3.6232   -8.5867   -2.6006 H   0  0  0  0  0  0  0  0  0  0  0  0
   -3.6232   -9.6059   -1.1345 H   0  0  0  0  0  0  0  0  0  0  0  0
   -5.5287  -10.1158   -2.5761 H   0  0  0  0  0  0  0  0  0  0  0  0
    8.7648   -3.7424    0.8774 H   0  0  0  0  0  0  0  0  0  0  0  0
  1  2  1  0  0  0  0
  1 23  1  0  0  0  0
  1 24  1  0  0  0  0
  1 25  1  0  0  0  0
  2  3  1  0  0  0  0
  2 26  1  0  0  0  0
  2 27  1  0  0  0  0
  3  4  1  0  0  0  0
  3 28  1  0  0  0  0
  3 29  1  0  0  0  0
  4  5  1  0  0  0  0
  4 30  1  0  0  0  0
  4 31  1  0  0  0  0
  5  6  1  0  0  0  0
  5 32  1  0  0  0  0
  5 33  1  0  0  0  0
  6 34  1  0  0  0  0
  6 35  1  0  0  0  0
  7  9  1  0  0  0  0
  7 22  1  0  0  0  0
  7  8  1  6  0  0  0
  7  6  1  0  0  0  0
  9 10  1  0  0  0  0
  9 36  1  0  0  0  0
  9 37  1  0  0  0  0
 10 11  2  0  0  0  0
 10 38  1  0  0  0  0
 11 12  1  0  0  0  0
 11 39  1  0  0  0  0
 12 13  1  0  0  0  0
 12 40  1  0  0  0  0
 12 41  1  0  0  0  0
 13 14  1  0  0  0  0
 13 42  1  0  0  0  0
 13 43  1  0  0  0  0
 14 15  1  0  0  0  0
 14 44  1  0  0  0  0
 14 45  1  0  0  0  0
 15 16  1  0  0  0  0
 15 46  1  0  0  0  0
 15 47  1  0  0  0  0
 16 17  1  0  0  0  0
 16 48  1  0  0  0  0
 16 49  1  0  0  0  0
 17 18  1  0  0  0  0
 17 50  1  0  0  0  0
 17 51  1  0  0  0  0
 18 19  1  0  0  0  0
 18 52  1  0  0  0  0
 18 53  1  0  0  0  0
 19 20  2  0  0  0  0
 19 21  1  0  0  0  0
 21 54  1  0  0  0  0
 22 55  1  0  0  0  0
M  END
$$$$
