RCO
 OpenBabel04121316183D

 14 14  0  0  0  0  0  0  0  0999 V2000
    1.0604   -0.0140    0.0693 O   0  0  0  0  0  0  0  0  0  0  0  0
    2.4221    0.0135   -0.0144 C   0  0  0  0  0  0  0  0  0  0  0  0
    3.1198    1.2144   -0.0865 C   0  0  0  0  0  0  0  0  0  0  0  0
    4.5131    1.1951   -0.1938 C   0  0  0  0  0  0  0  0  0  0  0  0
    5.1881   -0.0235   -0.3052 C   0  0  0  0  0  0  0  0  0  0  0  0
    4.4704   -1.2125   -0.2331 C   0  0  0  0  0  0  0  0  0  0  0  0
    3.0927   -1.2049   -0.0414 C   0  0  0  0  0  0  0  0  0  0  0  0
    5.0866   -2.4228   -0.3633 O   0  0  0  0  0  0  0  0  0  0  0  0
    0.7232    0.8851   -0.0759 H   0  0  0  0  0  0  0  0  0  0  0  0
    2.6029    2.1693   -0.0555 H   0  0  0  0  0  0  0  0  0  0  0  0
    5.0707    2.1269   -0.1999 H   0  0  0  0  0  0  0  0  0  0  0  0
    6.2657   -0.0234   -0.4412 H   0  0  0  0  0  0  0  0  0  0  0  0
    2.5468   -2.1351    0.0616 H   0  0  0  0  0  0  0  0  0  0  0  0
    6.0033   -2.2732   -0.6476 H   0  0  0  0  0  0  0  0  0  0  0  0
  1  2  1  0  0  0  0
  1  9  1  0  0  0  0
  2  3  2  0  0  0  0
  2  7  1  0  0  0  0
  3  4  1  0  0  0  0
  3 10  1  0  0  0  0
  4  5  2  0  0  0  0
  4 11  1  0  0  0  0
  5  6  1  0  0  0  0
  5 12  1  0  0  0  0
  6  7  2  0  0  0  0
  6  8  1  0  0  0  0
  7 13  1  0  0  0  0
  8 14  1  0  0  0  0
M  END
$$$$
