RCP
 OpenBabel04121316183D

 71 76  0  0  1  0  0  0  0  0999 V2000
    4.4279   -1.1895   -1.4071 O   0  0  0  0  0  0  0  0  0  0  0  0
    4.3172    0.0160   -1.1380 C   0  0  0  0  0  0  0  0  0  0  0  0
    5.4373    0.8485   -1.2936 N   0  0  0  0  0  0  0  0  0  0  0  0
    6.5340    0.4477   -2.2046 C   0  0  0  0  0  0  0  0  0  0  0  0
    6.9548    1.6428   -3.0825 C   0  0  0  0  0  0  0  0  0  0  0  0
    7.5192    2.6475   -2.2014 O   0  0  0  0  0  0  0  0  0  0  0  0
    6.4387    3.0790   -1.3869 C   0  0  0  0  0  0  0  0  0  0  0  0
    5.9011    1.9792   -0.4577 C   0  0  0  0  0  0  0  0  0  0  0  0
    2.8320    0.5566   -0.9170 C   0  0  2  0  0  0  0  0  0  0  0  0
    2.2931   -0.1681   -0.2958 H   0  0  0  0  0  0  0  0  0  0  0  0
    2.1468    0.6469   -2.2924 C   0  0  0  0  0  0  0  0  0  0  0  0
    0.7990    1.3637   -2.1822 C   0  0  0  0  0  0  0  0  0  0  0  0
    1.0015    2.7822   -1.7097 C   0  0  0  0  0  0  0  0  0  0  0  0
    1.6238    2.9071   -0.3985 N   0  0  3  0  0  0  0  0  0  0  0  0
    2.7377    1.9046   -0.2197 C   0  0  0  0  0  0  0  0  0  0  0  0
    2.0243    4.3587   -0.1080 C   0  0  0  0  0  0  0  0  0  0  0  0
    3.5134    4.4779   -0.2146 C   0  0  0  0  0  0  0  0  0  0  0  0
    3.8190    4.2611   -1.6728 C   0  0  0  0  0  0  0  0  0  0  0  0
    3.3501    5.2083   -2.5856 N   0  0  0  0  0  0  0  0  0  0  0  0
    1.9502    5.5979   -2.4639 C   0  0  0  0  0  0  0  0  0  0  0  0
    1.5653    5.6144   -0.9708 C   0  0  0  0  0  0  0  0  0  0  0  0
    4.2889    5.5158   -3.5373 C   0  0  0  0  0  0  0  0  0  0  0  0
    5.4259    5.0164   -3.6491 O   0  0  0  0  0  0  0  0  0  0  0  0
    4.0006    6.6141   -4.3823 C   0  0  0  0  0  0  0  0  0  0  0  0
    3.3482    6.3573   -5.5888 C   0  0  0  0  0  0  0  0  0  0  0  0
    2.9398    5.0638   -5.9862 C   0  0  0  0  0  0  0  0  0  0  0  0
    2.2944    4.8818   -7.1972 C   0  0  0  0  0  0  0  0  0  0  0  0
    2.0597    5.9805   -8.0161 C   0  0  0  0  0  0  0  0  0  0  0  0
    2.4603    7.2602   -7.6259 C   0  0  0  0  0  0  0  0  0  0  0  0
    3.1034    7.4622   -6.4048 C   0  0  0  0  0  0  0  0  0  0  0  0
    3.5082    8.7435   -5.9886 C   0  0  0  0  0  0  0  0  0  0  0  0
    4.1504    8.9547   -4.7554 C   0  0  0  0  0  0  0  0  0  0  0  0
    4.4068    7.8728   -3.9158 C   0  0  0  0  0  0  0  0  0  0  0  0
    5.0440    8.0746   -2.6648 C   0  0  0  0  0  0  0  0  0  0  0  0
    5.4296    9.3431   -2.2697 C   0  0  0  0  0  0  0  0  0  0  0  0
    5.1844   10.4170   -3.1151 C   0  0  0  0  0  0  0  0  0  0  0  0
    4.5488   10.2276   -4.3450 C   0  0  0  0  0  0  0  0  0  0  0  0
    6.2499   -0.3980   -2.8244 H   0  0  0  0  0  0  0  0  0  0  0  0
    7.3889    0.1928   -1.5670 H   0  0  0  0  0  0  0  0  0  0  0  0
    6.0803    2.0335   -3.6376 H   0  0  0  0  0  0  0  0  0  0  0  0
    7.7182    1.4089   -3.8191 H   0  0  0  0  0  0  0  0  0  0  0  0
    5.7127    3.2337   -2.1665 H   0  0  0  0  0  0  0  0  0  0  0  0
    6.6431    4.0257   -0.8693 H   0  0  0  0  0  0  0  0  0  0  0  0
    5.1568    2.2912    0.2612 H   0  0  0  0  0  0  0  0  0  0  0  0
    6.7322    1.6444    0.1654 H   0  0  0  0  0  0  0  0  0  0  0  0
    1.9900   -0.3497   -2.7156 H   0  0  0  0  0  0  0  0  0  0  0  0
    2.7990    1.1753   -3.0061 H   0  0  0  0  0  0  0  0  0  0  0  0
    0.1242    0.8433   -1.5009 H   0  0  0  0  0  0  0  0  0  0  0  0
    0.3360    1.4155   -3.1744 H   0  0  0  0  0  0  0  0  0  0  0  0
    0.0646    3.3481   -1.7224 H   0  0  0  0  0  0  0  0  0  0  0  0
    1.6416    3.1736   -2.4911 H   0  0  0  0  0  0  0  0  0  0  0  0
    3.0390    1.8194    0.8297 H   0  0  0  0  0  0  0  0  0  0  0  0
    3.5742    2.3081   -0.7261 H   0  0  0  0  0  0  0  0  0  0  0  0
    1.7541    4.5644    0.9364 H   0  0  0  0  0  0  0  0  0  0  0  0
    4.0048    3.8023    0.4861 H   0  0  0  0  0  0  0  0  0  0  0  0
    3.9449    5.4394    0.0781 H   0  0  0  0  0  0  0  0  0  0  0  0
    3.6403    3.2976   -2.1765 H   0  0  0  0  0  0  0  0  0  0  0  0
    4.8433    4.5029   -1.6139 H   0  0  0  0  0  0  0  0  0  0  0  0
    1.3220    4.9072   -3.0298 H   0  0  0  0  0  0  0  0  0  0  0  0
    1.7909    6.5549   -2.9612 H   0  0  0  0  0  0  0  0  0  0  0  0
    0.5115    5.8402   -0.8300 H   0  0  0  0  0  0  0  0  0  0  0  0
    2.1238    6.4833   -0.5711 H   0  0  0  0  0  0  0  0  0  0  0  0
    3.1246    4.1928   -5.3569 H   0  0  0  0  0  0  0  0  0  0  0  0
    1.9882    3.8850   -7.4976 H   0  0  0  0  0  0  0  0  0  0  0  0
    1.5652    5.8436   -8.9713 H   0  0  0  0  0  0  0  0  0  0  0  0
    2.2726    8.1039   -8.2828 H   0  0  0  0  0  0  0  0  0  0  0  0
    3.3208    9.5940   -6.6380 H   0  0  0  0  0  0  0  0  0  0  0  0
    5.2546    7.2410   -1.9938 H   0  0  0  0  0  0  0  0  0  0  0  0
    5.9276    9.4803   -1.3151 H   0  0  0  0  0  0  0  0  0  0  0  0
    5.4953   11.4129   -2.8213 H   0  0  0  0  0  0  0  0  0  0  0  0
    4.3705   11.0811   -4.9912 H   0  0  0  0  0  0  0  0  0  0  0  0
  1  2  2  0  0  0  0
  2  3  1  0  0  0  0
  3  4  1  0  0  0  0
  3  8  1  0  0  0  0
  4  5  1  0  0  0  0
  4 38  1  0  0  0  0
  4 39  1  0  0  0  0
  5  6  1  0  0  0  0
  5 40  1  0  0  0  0
  5 41  1  0  0  0  0
  6  7  1  0  0  0  0
  7  8  1  0  0  0  0
  7 42  1  0  0  0  0
  7 43  1  0  0  0  0
  8 44  1  0  0  0  0
  8 45  1  0  0  0  0
  9 11  1  0  0  0  0
  9 15  1  0  0  0  0
  9 10  1  1  0  0  0
  9  2  1  0  0  0  0
 11 12  1  0  0  0  0
 11 46  1  0  0  0  0
 11 47  1  0  0  0  0
 12 13  1  0  0  0  0
 12 48  1  0  0  0  0
 12 49  1  0  0  0  0
 13 14  1  0  0  0  0
 13 50  1  0  0  0  0
 13 51  1  0  0  0  0
 14 15  1  0  0  0  0
 14 16  1  0  0  0  0
 15 52  1  0  0  0  0
 15 53  1  0  0  0  0
 16 17  1  0  0  0  0
 16 21  1  0  0  0  0
 16 54  1  0  0  0  0
 17 18  1  0  0  0  0
 17 55  1  0  0  0  0
 17 56  1  0  0  0  0
 18 19  1  0  0  0  0
 18 57  1  0  0  0  0
 18 58  1  0  0  0  0
 19 20  1  0  0  0  0
 19 22  1  0  0  0  0
 20 21  1  0  0  0  0
 20 59  1  0  0  0  0
 20 60  1  0  0  0  0
 21 61  1  0  0  0  0
 21 62  1  0  0  0  0
 22 23  2  0  0  0  0
 22 24  1  0  0  0  0
 24 25  2  0  0  0  0
 24 33  1  0  0  0  0
 25 26  1  0  0  0  0
 25 30  1  0  0  0  0
 26 27  2  0  0  0  0
 26 63  1  0  0  0  0
 27 28  1  0  0  0  0
 27 64  1  0  0  0  0
 28 29  2  0  0  0  0
 28 65  1  0  0  0  0
 29 30  1  0  0  0  0
 29 66  1  0  0  0  0
 30 31  2  0  0  0  0
 31 32  1  0  0  0  0
 31 67  1  0  0  0  0
 32 33  2  0  0  0  0
 32 37  1  0  0  0  0
 33 34  1  0  0  0  0
 34 35  2  0  0  0  0
 34 68  1  0  0  0  0
 35 36  1  0  0  0  0
 35 69  1  0  0  0  0
 36 37  2  0  0  0  0
 36 70  1  0  0  0  0
 37 71  1  0  0  0  0
M  END
$$$$
