RDA
 OpenBabel04121316183D

 46 47  0  0  0  0  0  0  0  0999 V2000
    1.0580    0.0041    0.0241 C   0  0  0  0  0  0  0  0  0  0  0  0
    2.4895    0.0891    0.0254 O   0  0  0  0  0  0  0  0  0  0  0  0
    3.0547   -0.9873   -0.6022 C   0  0  0  0  0  0  0  0  0  0  0  0
    3.9605   -0.7466   -1.6522 C   0  0  0  0  0  0  0  0  0  0  0  0
    4.3896   -1.8102   -2.4473 C   0  0  0  0  0  0  0  0  0  0  0  0
    5.1260   -1.6181   -3.5865 O   0  0  0  0  0  0  0  0  0  0  0  0
    4.0472   -3.1090   -2.0834 C   0  0  0  0  0  0  0  0  0  0  0  0
    3.3356   -3.3236   -0.9068 C   0  0  0  0  0  0  0  0  0  0  0  0
    2.7768   -2.2867   -0.2108 C   0  0  0  0  0  0  0  0  0  0  0  0
    1.9772   -2.5935    0.8518 O   0  0  0  0  0  0  0  0  0  0  0  0
    4.3912   -4.1895   -2.9034 N   0  0  0  0  0  0  0  0  0  0  0  0
    3.9928   -5.4770   -2.6221 C   0  0  0  0  0  0  0  0  0  0  0  0
    3.3377   -5.8736   -1.6636 O   0  0  0  0  0  0  0  0  0  0  0  0
    4.4080   -6.4375   -3.6528 C   0  0  0  0  0  0  0  0  0  0  0  0
    3.9961   -7.8152   -3.2029 C   0  0  0  0  0  0  0  0  0  0  0  0
    4.2855   -8.9643   -4.1210 C   0  0  0  0  0  0  0  0  0  0  0  0
    4.8298   -8.7842   -5.4240 C   0  0  0  0  0  0  0  0  0  0  0  0
    5.3977   -7.2992   -6.1551 Cl  0  0  0  0  0  0  0  0  0  0  0  0
    4.9671   -9.8684   -6.2788 C   0  0  0  0  0  0  0  0  0  0  0  0
    5.4453   -9.7028   -7.5520 O   0  0  0  0  0  0  0  0  0  0  0  0
    4.6173  -11.1378   -5.8776 C   0  0  0  0  0  0  0  0  0  0  0  0
    4.1187  -11.3470   -4.5913 C   0  0  0  0  0  0  0  0  0  0  0  0
    3.9353  -10.2883   -3.6799 C   0  0  0  0  0  0  0  0  0  0  0  0
    3.3685  -10.6486   -2.3014 C   0  0  0  0  0  0  0  0  0  0  0  0
    3.0639  -11.7791   -1.9303 O   0  0  0  0  0  0  0  0  0  0  0  0
    3.2349   -9.5750   -1.4921 O   0  0  0  0  0  0  0  0  0  0  0  0
    2.7250   -9.8270   -0.1801 C   0  0  0  0  0  0  0  0  0  0  0  0
    3.7985  -12.6292   -4.2461 O   0  0  0  0  0  0  0  0  0  0  0  0
    0.6759    0.8741    0.5604 H   0  0  0  0  0  0  0  0  0  0  0  0
    0.6492   -0.8676    0.5432 H   0  0  0  0  0  0  0  0  0  0  0  0
    0.6757    0.0212   -1.0022 H   0  0  0  0  0  0  0  0  0  0  0  0
    4.2917    0.2670   -1.8456 H   0  0  0  0  0  0  0  0  0  0  0  0
    5.2450   -0.6630   -3.7286 H   0  0  0  0  0  0  0  0  0  0  0  0
    3.1760   -4.3034   -0.4908 H   0  0  0  0  0  0  0  0  0  0  0  0
    1.7500   -3.5407    0.8124 H   0  0  0  0  0  0  0  0  0  0  0  0
    4.8670   -3.9643   -3.7752 H   0  0  0  0  0  0  0  0  0  0  0  0
    5.4972   -6.3837   -3.7436 H   0  0  0  0  0  0  0  0  0  0  0  0
    3.8660   -6.1545   -4.5583 H   0  0  0  0  0  0  0  0  0  0  0  0
    2.9069   -7.8038   -3.0299 H   0  0  0  0  0  0  0  0  0  0  0  0
    4.5118   -7.9821   -2.2473 H   0  0  0  0  0  0  0  0  0  0  0  0
    5.6209   -8.7440   -7.6559 H   0  0  0  0  0  0  0  0  0  0  0  0
    4.7433  -11.9495   -6.5826 H   0  0  0  0  0  0  0  0  0  0  0  0
    2.6804   -8.8734    0.3553 H   0  0  0  0  0  0  0  0  0  0  0  0
    3.3935  -10.4984    0.3669 H   0  0  0  0  0  0  0  0  0  0  0  0
    1.7133  -10.2382   -0.2392 H   0  0  0  0  0  0  0  0  0  0  0  0
    3.9669  -13.2366   -4.9820 H   0  0  0  0  0  0  0  0  0  0  0  0
  1  2  1  0  0  0  0
  1 29  1  0  0  0  0
  1 30  1  0  0  0  0
  1 31  1  0  0  0  0
  2  3  1  0  0  0  0
  3  4  2  0  0  0  0
  3  9  1  0  0  0  0
  4  5  1  0  0  0  0
  4 32  1  0  0  0  0
  5  6  1  0  0  0  0
  5  7  2  0  0  0  0
  6 33  1  0  0  0  0
  7  8  1  0  0  0  0
  7 11  1  0  0  0  0
  8  9  2  0  0  0  0
  8 34  1  0  0  0  0
  9 10  1  0  0  0  0
 10 35  1  0  0  0  0
 11 12  1  0  0  0  0
 11 36  1  0  0  0  0
 12 13  2  0  0  0  0
 12 14  1  0  0  0  0
 14 15  1  0  0  0  0
 14 37  1  0  0  0  0
 14 38  1  0  0  0  0
 15 16  1  0  0  0  0
 15 39  1  0  0  0  0
 15 40  1  0  0  0  0
 16 17  2  0  0  0  0
 16 23  1  0  0  0  0
 17 18  1  0  0  0  0
 17 19  1  0  0  0  0
 19 20  1  0  0  0  0
 19 21  2  0  0  0  0
 20 41  1  0  0  0  0
 21 22  1  0  0  0  0
 21 42  1  0  0  0  0
 22 23  2  0  0  0  0
 22 28  1  0  0  0  0
 23 24  1  0  0  0  0
 24 25  2  0  0  0  0
 24 26  1  0  0  0  0
 26 27  1  0  0  0  0
 27 43  1  0  0  0  0
 27 44  1  0  0  0  0
 27 45  1  0  0  0  0
 28 46  1  0  0  0  0
M  END
$$$$
