RDL
 OpenBabel04121316183D

 37 38  0  0  1  0  0  0  0  0999 V2000
   -0.6377    3.9534    4.7434 O   0  0  0  0  0  0  0  0  0  0  0  0
    0.2411    2.9034    4.4258 C   0  0  0  0  0  0  0  0  0  0  0  0
    1.7168    3.2114    4.7014 C   0  0  2  0  0  0  0  0  0  0  0  0
    1.7985    4.2932    4.7469 H   0  0  0  0  0  0  0  0  0  0  0  0
    2.4492    2.5874    3.5229 C   0  0  2  0  0  0  0  0  0  0  0  0
    1.7699    2.4954    2.6648 H   0  0  0  0  0  0  0  0  0  0  0  0
    2.9860    1.1352    3.7711 C   0  0  2  0  0  0  0  0  0  0  0  0
    2.7004    0.5902    2.8652 H   0  0  0  0  0  0  0  0  0  0  0  0
    2.4615    0.2829    5.0342 C   0  0  0  0  0  0  0  0  0  0  0  0
    0.9762    0.1136    5.2395 N   0  0  0  0  0  0  0  0  0  0  0  0
    0.3312    0.6747    6.4081 C   0  0  0  0  0  0  0  0  0  0  0  0
    0.9208    1.2575    7.3100 O   0  0  0  0  0  0  0  0  0  0  0  0
   -1.2517    0.8769    6.3113 C   0  0  0  0  0  0  0  0  0  0  0  0
   -1.8539    1.6871    6.9783 O   0  0  0  0  0  0  0  0  0  0  0  0
   -1.8423    0.2777    5.2190 N   0  0  0  0  0  0  0  0  0  0  0  0
   -2.8305    0.4740    5.0596 H   0  0  0  0  0  0  0  0  0  0  0  0
   -1.1427   -0.3794    4.2482 C   0  0  0  0  0  0  0  0  0  0  0  0
    0.2036   -0.4589    4.2292 C   0  0  0  0  0  0  0  0  0  0  0  0
    0.8148   -1.0749    3.1771 N   0  0  0  0  0  0  0  0  0  0  0  0
    1.8184   -1.1718    3.1246 H   0  0  0  0  0  0  0  0  0  0  0  0
    0.1721   -1.6993    2.1530 C   0  0  0  0  0  0  0  0  0  0  0  0
    0.7973   -2.2789    1.2799 O   0  0  0  0  0  0  0  0  0  0  0  0
   -1.1855   -1.6378    2.1795 N   0  0  0  0  0  0  0  0  0  0  0  0
   -1.6825   -2.1102    1.4402 H   0  0  0  0  0  0  0  0  0  0  0  0
   -1.9131   -0.9761    3.1214 C   0  0  0  0  0  0  0  0  0  0  0  0
   -3.1357   -0.8755    3.0738 O   0  0  0  0  0  0  0  0  0  0  0  0
    4.4196    1.1302    3.7034 O   0  0  0  0  0  0  0  0  0  0  0  0
    3.4052    3.5580    3.0848 O   0  0  0  0  0  0  0  0  0  0  0  0
    2.4089    2.8017    5.8851 O   0  0  0  0  0  0  0  0  0  0  0  0
   -1.4769    3.5375    5.0184 H   0  0  0  0  0  0  0  0  0  0  0  0
    0.0201    2.5541    3.4087 H   0  0  0  0  0  0  0  0  0  0  0  0
   -0.1008    2.1080    5.0038 H   0  0  0  0  0  0  0  0  0  0  0  0
    2.9428    0.6337    5.9533 H   0  0  0  0  0  0  0  0  0  0  0  0
    2.8712   -0.7323    4.9392 H   0  0  0  0  0  0  0  0  0  0  0  0
    4.7491    0.2289    3.8378 H   0  0  0  0  0  0  0  0  0  0  0  0
    3.4754    3.5076    2.1197 H   0  0  0  0  0  0  0  0  0  0  0  0
    1.8457    2.5504    6.6410 H   0  0  0  0  0  0  0  0  0  0  0  0
  1  2  1  0  0  0  0
  1 30  1  0  0  0  0
  2 31  1  0  0  0  0
  2 32  1  0  0  0  0
  3 29  1  0  0  0  0
  3  4  1  6  0  0  0
  3  2  1  0  0  0  0
  5 28  1  0  0  0  0
  5  6  1  6  0  0  0
  5  3  1  0  0  0  0
  7  9  1  0  0  0  0
  7 27  1  0  0  0  0
  7  8  1  6  0  0  0
  7  5  1  0  0  0  0
  9 10  1  0  0  0  0
  9 33  1  0  0  0  0
  9 34  1  0  0  0  0
 10 11  1  0  0  0  0
 10 18  1  0  0  0  0
 11 12  2  0  0  0  0
 11 13  1  0  0  0  0
 13 14  2  0  0  0  0
 13 15  1  0  0  0  0
 15 16  1  0  0  0  0
 15 17  1  0  0  0  0
 17 18  2  0  0  0  0
 17 25  1  0  0  0  0
 18 19  1  0  0  0  0
 19 20  1  0  0  0  0
 19 21  1  0  0  0  0
 21 22  2  0  0  0  0
 21 23  1  0  0  0  0
 23 24  1  0  0  0  0
 23 25  1  0  0  0  0
 25 26  2  0  0  0  0
 27 35  1  0  0  0  0
 28 36  1  0  0  0  0
 29 37  1  0  0  0  0
M  END
$$$$
