REL
 OpenBabel04121316183D

 23 22  0  0  1  0  0  0  0  0999 V2000
    1.9840   -0.5701   -1.8339 O   0  0  0  0  0  0  0  0  0  0  0  0
    1.9514   -1.7965   -1.8382 C   0  0  0  0  0  0  0  0  0  0  0  0
    2.8436   -2.6570   -0.9771 C   0  0  1  0  0  0  0  0  0  0  0  0
    3.8953   -2.4391   -1.1936 H   0  0  0  0  0  0  0  0  0  0  0  0
    2.5203   -2.4015    0.5123 C   0  0  2  0  0  0  0  0  0  0  0  0
    2.7780   -1.3601    0.7493 H   0  0  0  0  0  0  0  0  0  0  0  0
    3.3071   -3.3520    1.4574 C   0  0  1  0  0  0  0  0  0  0  0  0
    3.0685   -3.0808    2.4953 H   0  0  0  0  0  0  0  0  0  0  0  0
    2.9297   -4.8392    1.2544 C   0  0  1  0  0  0  0  0  0  0  0  0
    3.2549   -5.2143    0.2819 H   0  0  0  0  0  0  0  0  0  0  0  0
    3.6772   -5.7563    2.2220 C   0  0  0  0  0  0  0  0  0  0  0  0
    3.1441   -6.5499    2.9897 O   0  0  0  0  0  0  0  0  0  0  0  0
    5.0281   -5.6902    2.0947 O   0  0  0  0  0  0  0  0  0  0  0  0
    1.5176   -5.0159    1.3552 O   0  0  0  0  0  0  0  0  0  0  0  0
    4.7198   -3.1576    1.2663 O   0  0  0  0  0  0  0  0  0  0  0  0
    1.1079   -2.5473    0.7265 O   0  0  0  0  0  0  0  0  0  0  0  0
    2.5780   -4.0062   -1.3608 O   0  0  0  0  0  0  0  0  0  0  0  0
    1.2396   -2.3504   -2.4766 H   0  0  0  0  0  0  0  0  0  0  0  0
    5.3129   -4.9670    1.4907 H   0  0  0  0  0  0  0  0  0  0  0  0
    1.1001   -4.4066    0.7108 H   0  0  0  0  0  0  0  0  0  0  0  0
    4.9214   -2.2338    1.5225 H   0  0  0  0  0  0  0  0  0  0  0  0
    0.9108   -2.3363    1.6593 H   0  0  0  0  0  0  0  0  0  0  0  0
    3.0265   -4.1891   -2.2052 H   0  0  0  0  0  0  0  0  0  0  0  0
  1  2  2  0  0  0  0
  2  3  1  0  0  0  0
  2 18  1  0  0  0  0
  3  4  1  6  0  0  0
  3 17  1  0  0  0  0
  5  7  1  0  0  0  0
  5 16  1  0  0  0  0
  5  6  1  1  0  0  0
  5  3  1  0  0  0  0
  7  8  1  1  0  0  0
  7  9  1  0  0  0  0
  7 15  1  0  0  0  0
  9 10  1  6  0  0  0
  9 11  1  0  0  0  0
  9 14  1  0  0  0  0
 11 12  2  0  0  0  0
 11 13  1  0  0  0  0
 13 19  1  0  0  0  0
 14 20  1  0  0  0  0
 15 21  1  0  0  0  0
 16 22  1  0  0  0  0
 17 23  1  0  0  0  0
M  END
$$$$
