REM
 OpenBabel04121316183D

 94 97  0  0  1  0  0  0  0  0999 V2000
    3.5470   -0.3384    2.9455 O   0  0  0  0  0  0  0  0  0  0  0  0
    2.3806   -0.3085    2.6527 C   0  0  0  0  0  0  0  0  0  0  0  0
    1.1987    0.3033    3.4781 C   0  0  2  0  0  0  0  0  0  0  0  0
    1.0250   -0.4327    4.2720 H   0  0  0  0  0  0  0  0  0  0  0  0
   -0.1340    0.5757    2.7386 C   0  0  0  0  0  0  0  0  0  0  0  0
   -0.8617   -0.6520    2.2009 C   0  0  0  0  0  0  0  0  0  0  0  0
   -0.4945   -1.9834    2.0206 C   0  0  0  0  0  0  0  0  0  0  0  0
   -1.2484   -2.5785    1.0534 N   0  0  0  0  0  0  0  0  0  0  0  0
   -2.2510   -1.7605    0.8827 C   0  0  0  0  0  0  0  0  0  0  0  0
   -2.0675   -0.5850    1.5525 N   0  0  0  0  0  0  0  0  0  0  0  0
   -2.7133    0.1879    1.5832 H   0  0  0  0  0  0  0  0  0  0  0  0
    1.6178    1.5288    4.0990 N   0  0  0  0  0  0  0  0  0  0  0  0
    2.2918    2.4796    3.3905 C   0  0  0  0  0  0  0  0  0  0  0  0
    2.3167    2.4805    2.1637 O   0  0  0  0  0  0  0  0  0  0  0  0
    2.9761    3.5422    4.2173 C   0  0  1  0  0  0  0  0  0  0  0  0
    2.2141    3.9843    4.8714 H   0  0  0  0  0  0  0  0  0  0  0  0
    4.1426    2.9812    5.0512 C   0  0  0  0  0  0  0  0  0  0  0  0
    3.6251    1.8191    6.3189 S   0  0  0  0  0  0  0  0  0  0  0  0
    2.6985    2.5299    7.1809 O   0  0  0  0  0  0  0  0  0  0  0  0
    3.1684    0.5905    5.7050 O   0  0  0  0  0  0  0  0  0  0  0  0
    5.0568    1.3132    7.2582 C   0  0  0  0  0  0  0  0  0  0  0  0
    6.0898    0.6778    6.3190 C   0  0  0  0  0  0  0  0  0  0  0  0
    5.6432    2.5062    7.9939 C   0  0  0  0  0  0  0  0  0  0  0  0
    4.5626    0.2492    8.2560 C   0  0  0  0  0  0  0  0  0  0  0  0
    3.4624    4.6028    3.2145 C   0  0  0  0  0  0  0  0  0  0  0  0
    4.0397    5.8094    3.8867 C   0  0  0  0  0  0  0  0  0  0  0  0
    3.2061    6.8538    4.2934 C   0  0  0  0  0  0  0  0  0  0  0  0
    3.7669    8.0212    4.7974 C   0  0  0  0  0  0  0  0  0  0  0  0
    5.1404    8.0890    5.0285 C   0  0  0  0  0  0  0  0  0  0  0  0
    5.9535    6.9897    4.7629 C   0  0  0  0  0  0  0  0  0  0  0  0
    5.4158    5.8776    4.1303 C   0  0  0  0  0  0  0  0  0  0  0  0
    1.7877   -0.8533    1.5473 N   0  0  0  0  0  0  0  0  0  0  0  0
    2.1203   -1.6883    0.4494 C   0  0  2  0  0  0  0  0  0  0  0  0
    1.1947   -2.1964    0.1517 H   0  0  0  0  0  0  0  0  0  0  0  0
    3.0471   -2.7709    0.9263 C   0  0  2  0  0  0  0  0  0  0  0  0
    3.6157   -2.4520    1.8020 H   0  0  0  0  0  0  0  0  0  0  0  0
    3.9703   -3.1763   -0.1820 C   0  0  2  0  0  0  0  0  0  0  0  0
    4.2148   -2.3198   -0.7814 H   0  0  0  0  0  0  0  0  0  0  0  0
    3.4176   -4.1775   -1.1251 C   0  0  0  0  0  0  0  0  0  0  0  0
    3.3433   -3.9460   -2.6146 C   0  0  0  0  0  0  0  0  0  0  0  0
    4.3955   -4.8495   -2.0409 C   0  0  0  0  0  0  0  0  0  0  0  0
    5.1700   -3.6465    0.4199 O   0  0  0  0  0  0  0  0  0  0  0  0
    2.2573   -3.8771    1.4217 O   0  0  0  0  0  0  0  0  0  0  0  0
    2.2979   -0.7012   -0.6821 C   0  0  0  0  0  0  0  0  0  0  0  0
    3.3454    0.3780   -0.3451 C   0  0  0  0  0  0  0  0  0  0  0  0
    4.6814    0.1004   -1.0003 C   0  0  0  0  0  0  0  0  0  0  0  0
    4.4945    0.1087   -2.5038 C   0  0  0  0  0  0  0  0  0  0  0  0
    4.0017    1.4947   -2.9067 C   0  0  0  0  0  0  0  0  0  0  0  0
    2.6900    1.8883   -2.2191 C   0  0  0  0  0  0  0  0  0  0  0  0
    2.8231    1.7660   -0.7132 C   0  0  0  0  0  0  0  0  0  0  0  0
    0.0934    1.2540    1.8939 H   0  0  0  0  0  0  0  0  0  0  0  0
   -0.7986    1.1473    3.3888 H   0  0  0  0  0  0  0  0  0  0  0  0
    0.4062   -2.4909    2.3550 H   0  0  0  0  0  0  0  0  0  0  0  0
   -3.1375   -2.0018    0.3189 H   0  0  0  0  0  0  0  0  0  0  0  0
    1.7619    1.4012    5.0884 H   0  0  0  0  0  0  0  0  0  0  0  0
    4.6035    3.7993    5.6125 H   0  0  0  0  0  0  0  0  0  0  0  0
    4.8963    2.5131    4.4144 H   0  0  0  0  0  0  0  0  0  0  0  0
    6.4536    1.3933    5.5751 H   0  0  0  0  0  0  0  0  0  0  0  0
    5.6668   -0.1709    5.7664 H   0  0  0  0  0  0  0  0  0  0  0  0
    6.9517    0.3099    6.8817 H   0  0  0  0  0  0  0  0  0  0  0  0
    5.9939    3.2695    7.2927 H   0  0  0  0  0  0  0  0  0  0  0  0
    6.4893    2.1970    8.6115 H   0  0  0  0  0  0  0  0  0  0  0  0
    4.8947    2.9741    8.6427 H   0  0  0  0  0  0  0  0  0  0  0  0
    4.1206   -0.6120    7.7365 H   0  0  0  0  0  0  0  0  0  0  0  0
    3.7798    0.6535    8.9088 H   0  0  0  0  0  0  0  0  0  0  0  0
    5.3787   -0.1228    8.8777 H   0  0  0  0  0  0  0  0  0  0  0  0
    2.6344    4.9316    2.5677 H   0  0  0  0  0  0  0  0  0  0  0  0
    4.2058    4.1791    2.5228 H   0  0  0  0  0  0  0  0  0  0  0  0
    2.1256    6.7698    4.1967 H   0  0  0  0  0  0  0  0  0  0  0  0
    3.1329    8.8766    5.0110 H   0  0  0  0  0  0  0  0  0  0  0  0
    5.5780    9.0014    5.4209 H   0  0  0  0  0  0  0  0  0  0  0  0
    7.0058    7.0047    5.0292 H   0  0  0  0  0  0  0  0  0  0  0  0
    6.0662    5.0548    3.8410 H   0  0  0  0  0  0  0  0  0  0  0  0
    0.9862   -0.3531    1.2495 H   0  0  0  0  0  0  0  0  0  0  0  0
    2.5612   -4.7085   -0.7288 H   0  0  0  0  0  0  0  0  0  0  0  0
    3.6619   -3.0000   -3.0360 H   0  0  0  0  0  0  0  0  0  0  0  0
    2.4980   -4.3872   -3.1298 H   0  0  0  0  0  0  0  0  0  0  0  0
    5.4154   -4.4790   -2.0732 H   0  0  0  0  0  0  0  0  0  0  0  0
    4.3170   -5.9256   -2.0552 H   0  0  0  0  0  0  0  0  0  0  0  0
    5.8728   -3.4868   -0.2294 H   0  0  0  0  0  0  0  0  0  0  0  0
    2.8847   -4.5968    1.6043 H   0  0  0  0  0  0  0  0  0  0  0  0
    1.3165   -0.2037   -0.8190 H   0  0  0  0  0  0  0  0  0  0  0  0
    2.4171   -1.2372   -1.6225 H   0  0  0  0  0  0  0  0  0  0  0  0
    3.5644    0.4321    0.7145 H   0  0  0  0  0  0  0  0  0  0  0  0
    5.1364   -0.8174   -0.6380 H   0  0  0  0  0  0  0  0  0  0  0  0
    5.3980    0.8636   -0.6837 H   0  0  0  0  0  0  0  0  0  0  0  0
    3.7703   -0.6386   -2.8442 H   0  0  0  0  0  0  0  0  0  0  0  0
    5.4344   -0.1569   -2.9878 H   0  0  0  0  0  0  0  0  0  0  0  0
    3.8749    1.5334   -3.9882 H   0  0  0  0  0  0  0  0  0  0  0  0
    4.7740    2.2159   -2.6169 H   0  0  0  0  0  0  0  0  0  0  0  0
    1.8743    1.2408   -2.5642 H   0  0  0  0  0  0  0  0  0  0  0  0
    2.4104    2.9143   -2.4743 H   0  0  0  0  0  0  0  0  0  0  0  0
    1.8582    1.9643   -0.2274 H   0  0  0  0  0  0  0  0  0  0  0  0
    3.5249    2.5167   -0.3279 H   0  0  0  0  0  0  0  0  0  0  0  0
  1  2  2  0  0  0  0
  2 32  1  0  0  0  0
  3  5  1  0  0  0  0
  3 12  1  0  0  0  0
  3  4  1  1  0  0  0
  3  2  1  0  0  0  0
  5  6  1  0  0  0  0
  5 51  1  0  0  0  0
  5 52  1  0  0  0  0
  6  7  2  0  0  0  0
  6 10  1  0  0  0  0
  7  8  1  0  0  0  0
  7 53  1  0  0  0  0
  8  9  2  0  0  0  0
  9 10  1  0  0  0  0
  9 54  1  0  0  0  0
 10 11  1  0  0  0  0
 12 13  1  0  0  0  0
 12 55  1  0  0  0  0
 13 14  2  0  0  0  0
 13 15  1  0  0  0  0
 15 16  1  1  0  0  0
 15 17  1  0  0  0  0
 15 25  1  0  0  0  0
 17 18  1  0  0  0  0
 17 56  1  0  0  0  0
 17 57  1  0  0  0  0
 18 19  2  0  0  0  0
 18 20  2  0  0  0  0
 18 21  1  0  0  0  0
 21 22  1  0  0  0  0
 21 23  1  0  0  0  0
 21 24  1  0  0  0  0
 22 58  1  0  0  0  0
 22 59  1  0  0  0  0
 22 60  1  0  0  0  0
 23 61  1  0  0  0  0
 23 62  1  0  0  0  0
 23 63  1  0  0  0  0
 24 64  1  0  0  0  0
 24 65  1  0  0  0  0
 24 66  1  0  0  0  0
 25 26  1  0  0  0  0
 25 67  1  0  0  0  0
 25 68  1  0  0  0  0
 26 27  2  0  0  0  0
 26 31  1  0  0  0  0
 27 28  1  0  0  0  0
 27 69  1  0  0  0  0
 28 29  2  0  0  0  0
 28 70  1  0  0  0  0
 29 30  1  0  0  0  0
 29 71  1  0  0  0  0
 30 31  2  0  0  0  0
 30 72  1  0  0  0  0
 31 73  1  0  0  0  0
 32 74  1  0  0  0  0
 33 44  1  0  0  0  0
 33 34  1  6  0  0  0
 33 32  1  0  0  0  0
 35 43  1  0  0  0  0
 35 36  1  1  0  0  0
 35 33  1  0  0  0  0
 37 39  1  0  0  0  0
 37 42  1  0  0  0  0
 37 38  1  6  0  0  0
 37 35  1  0  0  0  0
 39 40  1  0  0  0  0
 39 41  1  0  0  0  0
 39 75  1  0  0  0  0
 40 41  1  0  0  0  0
 40 76  1  0  0  0  0
 40 77  1  0  0  0  0
 41 78  1  0  0  0  0
 41 79  1  0  0  0  0
 42 80  1  0  0  0  0
 43 81  1  0  0  0  0
 44 45  1  0  0  0  0
 44 82  1  0  0  0  0
 44 83  1  0  0  0  0
 45 46  1  0  0  0  0
 45 50  1  0  0  0  0
 45 84  1  0  0  0  0
 46 47  1  0  0  0  0
 46 85  1  0  0  0  0
 46 86  1  0  0  0  0
 47 48  1  0  0  0  0
 47 87  1  0  0  0  0
 47 88  1  0  0  0  0
 48 49  1  0  0  0  0
 48 89  1  0  0  0  0
 48 90  1  0  0  0  0
 49 50  1  0  0  0  0
 49 91  1  0  0  0  0
 49 92  1  0  0  0  0
 50 93  1  0  0  0  0
 50 94  1  0  0  0  0
M  END
$$$$
