RET
 OpenBabel04121316183D

 49 49  0  0  0  0  0  0  0  0999 V2000
    0.8770    0.0756   -0.0351 O   0  0  0  0  0  0  0  0  0  0  0  0
    2.1062    0.1207    0.0443 C   0  0  0  0  0  0  0  0  0  0  0  0
    2.9413   -0.4742   -1.0019 C   0  0  0  0  0  0  0  0  0  0  0  0
    4.2900   -0.4849   -1.0182 C   0  0  0  0  0  0  0  0  0  0  0  0
    5.0406   -1.1036   -2.1015 C   0  0  0  0  0  0  0  0  0  0  0  0
    4.4291   -1.6909   -3.1295 C   0  0  0  0  0  0  0  0  0  0  0  0
    5.0790   -2.3033   -4.2296 C   0  0  0  0  0  0  0  0  0  0  0  0
    4.4214   -2.8723   -5.2550 C   0  0  0  0  0  0  0  0  0  0  0  0
    5.1618   -3.4478   -6.3553 C   0  0  0  0  0  0  0  0  0  0  0  0
    6.4987   -3.5366   -6.3958 C   0  0  0  0  0  0  0  0  0  0  0  0
    7.2189   -4.1301   -7.4907 C   0  0  0  0  0  0  0  0  0  0  0  0
    7.6867   -3.3377   -8.4653 C   0  0  0  0  0  0  0  0  0  0  0  0
    7.5151   -1.8366   -8.4968 C   0  0  0  0  0  0  0  0  0  0  0  0
    8.4135   -3.8844   -9.6427 C   0  0  0  0  0  0  0  0  0  0  0  0
    8.6616   -5.3800   -9.7061 C   0  0  0  0  0  0  0  0  0  0  0  0
    8.1659   -6.2716   -8.5885 C   0  0  0  0  0  0  0  0  0  0  0  0
    7.3734   -5.6392   -7.4287 C   0  0  0  0  0  0  0  0  0  0  0  0
    5.9682   -6.2796   -7.4970 C   0  0  0  0  0  0  0  0  0  0  0  0
    8.1272   -6.0049   -6.1279 C   0  0  0  0  0  0  0  0  0  0  0  0
    2.9167   -2.9639   -5.3850 C   0  0  0  0  0  0  0  0  0  0  0  0
    5.1690    0.1159    0.0348 C   0  0  0  0  0  0  0  0  0  0  0  0
    2.6147    0.5973    0.8843 H   0  0  0  0  0  0  0  0  0  0  0  0
    2.3245   -0.9154   -1.7781 H   0  0  0  0  0  0  0  0  0  0  0  0
    6.1303   -1.0792   -2.0662 H   0  0  0  0  0  0  0  0  0  0  0  0
    3.3573   -1.7140   -3.1699 H   0  0  0  0  0  0  0  0  0  0  0  0
    6.1620   -2.2662   -4.1809 H   0  0  0  0  0  0  0  0  0  0  0  0
    4.5713   -3.8534   -7.1760 H   0  0  0  0  0  0  0  0  0  0  0  0
    7.1512   -3.1599   -5.6158 H   0  0  0  0  0  0  0  0  0  0  0  0
    6.9724   -1.4282   -7.6391 H   0  0  0  0  0  0  0  0  0  0  0  0
    6.9584   -1.5514   -9.3944 H   0  0  0  0  0  0  0  0  0  0  0  0
    8.4951   -1.3499   -8.5146 H   0  0  0  0  0  0  0  0  0  0  0  0
    9.3812   -3.3748   -9.7167 H   0  0  0  0  0  0  0  0  0  0  0  0
    7.8374   -3.6060  -10.5329 H   0  0  0  0  0  0  0  0  0  0  0  0
    9.7395   -5.5495   -9.8126 H   0  0  0  0  0  0  0  0  0  0  0  0
    8.2157   -5.7495  -10.6372 H   0  0  0  0  0  0  0  0  0  0  0  0
    9.0228   -6.8364   -8.1975 H   0  0  0  0  0  0  0  0  0  0  0  0
    7.5553   -7.0524   -9.0632 H   0  0  0  0  0  0  0  0  0  0  0  0
    5.4670   -5.9522   -8.4205 H   0  0  0  0  0  0  0  0  0  0  0  0
    5.3231   -6.0181   -6.6551 H   0  0  0  0  0  0  0  0  0  0  0  0
    6.0210   -7.3713   -7.5182 H   0  0  0  0  0  0  0  0  0  0  0  0
    9.1221   -5.5352   -6.1284 H   0  0  0  0  0  0  0  0  0  0  0  0
    8.2763   -7.0861   -6.0449 H   0  0  0  0  0  0  0  0  0  0  0  0
    7.6137   -5.6734   -5.2194 H   0  0  0  0  0  0  0  0  0  0  0  0
    2.3616   -2.5042   -4.5654 H   0  0  0  0  0  0  0  0  0  0  0  0
    2.5939   -4.0095   -5.4085 H   0  0  0  0  0  0  0  0  0  0  0  0
    2.5777   -2.4543   -6.2918 H   0  0  0  0  0  0  0  0  0  0  0  0
    4.6077    0.5777    0.8449 H   0  0  0  0  0  0  0  0  0  0  0  0
    5.8025    0.8949   -0.4015 H   0  0  0  0  0  0  0  0  0  0  0  0
    5.8028   -0.6563    0.4826 H   0  0  0  0  0  0  0  0  0  0  0  0
  1  2  2  0  0  0  0
  2  3  1  0  0  0  0
  2 22  1  0  0  0  0
  3  4  2  0  0  0  0
  3 23  1  0  0  0  0
  4  5  1  0  0  0  0
  4 21  1  0  0  0  0
  5  6  2  0  0  0  0
  5 24  1  0  0  0  0
  6  7  1  0  0  0  0
  6 25  1  0  0  0  0
  7  8  2  0  0  0  0
  7 26  1  0  0  0  0
  8  9  1  0  0  0  0
  8 20  1  0  0  0  0
  9 10  2  0  0  0  0
  9 27  1  0  0  0  0
 10 11  1  0  0  0  0
 10 28  1  0  0  0  0
 11 12  2  0  0  0  0
 11 17  1  0  0  0  0
 12 13  1  0  0  0  0
 12 14  1  0  0  0  0
 13 29  1  0  0  0  0
 13 30  1  0  0  0  0
 13 31  1  0  0  0  0
 14 15  1  0  0  0  0
 14 32  1  0  0  0  0
 14 33  1  0  0  0  0
 15 16  1  0  0  0  0
 15 34  1  0  0  0  0
 15 35  1  0  0  0  0
 16 17  1  0  0  0  0
 16 36  1  0  0  0  0
 16 37  1  0  0  0  0
 17 18  1  0  0  0  0
 17 19  1  0  0  0  0
 18 38  1  0  0  0  0
 18 39  1  0  0  0  0
 18 40  1  0  0  0  0
 19 41  1  0  0  0  0
 19 42  1  0  0  0  0
 19 43  1  0  0  0  0
 20 44  1  0  0  0  0
 20 45  1  0  0  0  0
 20 46  1  0  0  0  0
 21 47  1  0  0  0  0
 21 48  1  0  0  0  0
 21 49  1  0  0  0  0
M  END
$$$$
