REW
 OpenBabel04121316183D

 66 70  0  0  1  0  0  0  0  0999 V2000
    1.0065   -0.0797    0.0846 C   0  0  0  0  0  0  0  0  0  0  0  0
    2.4315    0.0076    0.1048 O   0  0  0  0  0  0  0  0  0  0  0  0
    3.0109   -0.7501    1.0859 C   0  0  0  0  0  0  0  0  0  0  0  0
    3.9331   -0.1303    1.9289 C   0  0  0  0  0  0  0  0  0  0  0  0
    4.6879   -0.8846    2.8463 C   0  0  0  0  0  0  0  0  0  0  0  0
    4.4316   -2.2460    3.0186 C   0  0  0  0  0  0  0  0  0  0  0  0
    3.4427   -2.8394    2.2164 C   0  0  0  0  0  0  0  0  0  0  0  0
    2.7936   -2.1162    1.2060 C   0  0  0  0  0  0  0  0  0  0  0  0
    5.1556   -3.0340    3.9226 N   0  0  0  0  0  0  0  0  0  0  0  0
    6.3600   -2.9018    4.5350 C   0  0  0  0  0  0  0  0  0  0  0  0
    7.0092   -1.9454    4.9074 O   0  0  0  0  0  0  0  0  0  0  0  0
    6.5447   -4.4419    4.4558 C   0  0  2  0  0  0  0  0  0  0  0  0
    6.8906   -4.7693    3.4714 H   0  0  0  0  0  0  0  0  0  0  0  0
    5.0253   -4.4652    4.2361 C   0  0  1  0  0  0  0  0  0  0  0  0
    4.8005   -5.0784    3.3522 H   0  0  0  0  0  0  0  0  0  0  0  0
    4.1006   -4.8543    5.3998 C   0  0  0  0  0  0  0  0  0  0  0  0
    3.5132   -5.9320    5.4566 O   0  0  0  0  0  0  0  0  0  0  0  0
    3.9737   -3.9446    6.4049 O   0  0  0  0  0  0  0  0  0  0  0  0
    7.3389   -5.1688    5.5370 C   0  0  0  0  0  0  0  0  0  0  0  0
    8.7290   -5.5537    5.0081 C   0  0  0  0  0  0  0  0  0  0  0  0
    9.2117   -5.0908    3.7704 C   0  0  0  0  0  0  0  0  0  0  0  0
   10.4264   -5.5052    3.2474 C   0  0  0  0  0  0  0  0  0  0  0  0
   11.1707   -6.4596    3.9165 C   0  0  0  0  0  0  0  0  0  0  0  0
   10.7587   -6.9323    5.1598 C   0  0  0  0  0  0  0  0  0  0  0  0
    9.5677   -6.4244    5.7347 C   0  0  0  0  0  0  0  0  0  0  0  0
   11.6117   -7.8950    5.6788 O   0  0  0  0  0  0  0  0  0  0  0  0
   11.2123   -8.3938    6.9478 C   0  0  0  0  0  0  0  0  0  0  0  0
   12.1018   -9.4946    7.5982 C   0  0  0  0  0  0  0  0  0  0  0  0
   11.6206   -9.8917    9.0136 C   0  0  0  0  0  0  0  0  0  0  0  0
   12.2510  -10.7888    9.9150 N   0  0  0  0  0  0  0  0  0  0  0  0
   11.5107  -10.7579   11.0349 C   0  0  0  0  0  0  0  0  0  0  0  0
   10.4298   -9.9181   10.9099 O   0  0  0  0  0  0  0  0  0  0  0  0
   10.5086   -9.3912    9.6623 C   0  0  0  0  0  0  0  0  0  0  0  0
    9.4700   -8.4196    9.2883 C   0  0  0  0  0  0  0  0  0  0  0  0
   11.5881  -11.4366   12.3781 C   0  0  0  0  0  0  0  0  0  0  0  0
   12.5986  -12.3525   12.7083 C   0  0  0  0  0  0  0  0  0  0  0  0
   12.5734  -13.0885   13.9184 C   0  0  0  0  0  0  0  0  0  0  0  0
   11.6084  -12.8404   14.8909 C   0  0  0  0  0  0  0  0  0  0  0  0
   10.6741  -11.8422   14.6571 C   0  0  0  0  0  0  0  0  0  0  0  0
   10.6309  -11.1951   13.4010 C   0  0  0  0  0  0  0  0  0  0  0  0
    0.6419    0.5199   -0.7563 H   0  0  0  0  0  0  0  0  0  0  0  0
    0.5932    0.3419    1.0061 H   0  0  0  0  0  0  0  0  0  0  0  0
    0.6429   -1.1012   -0.0658 H   0  0  0  0  0  0  0  0  0  0  0  0
    4.0656    0.9477    1.8752 H   0  0  0  0  0  0  0  0  0  0  0  0
    5.4571   -0.3812    3.4270 H   0  0  0  0  0  0  0  0  0  0  0  0
    3.1784   -3.8874    2.3236 H   0  0  0  0  0  0  0  0  0  0  0  0
    2.1378   -2.6364    0.5134 H   0  0  0  0  0  0  0  0  0  0  0  0
    4.4378   -3.0935    6.2732 H   0  0  0  0  0  0  0  0  0  0  0  0
    7.4358   -4.5810    6.4581 H   0  0  0  0  0  0  0  0  0  0  0  0
    6.8086   -6.0964    5.7980 H   0  0  0  0  0  0  0  0  0  0  0  0
    8.6706   -4.3943    3.1386 H   0  0  0  0  0  0  0  0  0  0  0  0
   10.7673   -5.0814    2.3084 H   0  0  0  0  0  0  0  0  0  0  0  0
   12.0866   -6.8295    3.4700 H   0  0  0  0  0  0  0  0  0  0  0  0
    9.2652   -6.6923    6.7428 H   0  0  0  0  0  0  0  0  0  0  0  0
   10.2059   -8.8051    6.8182 H   0  0  0  0  0  0  0  0  0  0  0  0
   11.2371   -7.5257    7.6091 H   0  0  0  0  0  0  0  0  0  0  0  0
   13.1251   -9.1050    7.6390 H   0  0  0  0  0  0  0  0  0  0  0  0
   12.1177  -10.3568    6.9198 H   0  0  0  0  0  0  0  0  0  0  0  0
    8.7440   -8.2410   10.0753 H   0  0  0  0  0  0  0  0  0  0  0  0
    8.9310   -8.7753    8.4048 H   0  0  0  0  0  0  0  0  0  0  0  0
    9.9324   -7.4542    9.0656 H   0  0  0  0  0  0  0  0  0  0  0  0
   13.4283  -12.5147   12.0266 H   0  0  0  0  0  0  0  0  0  0  0  0
   13.3181  -13.8600   14.1069 H   0  0  0  0  0  0  0  0  0  0  0  0
   11.5942  -13.4089   15.8212 H   0  0  0  0  0  0  0  0  0  0  0  0
    9.9727  -11.5756   15.4477 H   0  0  0  0  0  0  0  0  0  0  0  0
    9.8160  -10.4906   13.2425 H   0  0  0  0  0  0  0  0  0  0  0  0
  1  2  1  0  0  0  0
  1 41  1  0  0  0  0
  1 42  1  0  0  0  0
  1 43  1  0  0  0  0
  2  3  1  0  0  0  0
  3  4  2  0  0  0  0
  3  8  1  0  0  0  0
  4  5  1  0  0  0  0
  4 44  1  0  0  0  0
  5  6  2  0  0  0  0
  5 45  1  0  0  0  0
  6  7  1  0  0  0  0
  6  9  1  0  0  0  0
  7  8  2  0  0  0  0
  7 46  1  0  0  0  0
  8 47  1  0  0  0  0
  9 10  1  0  0  0  0
  9 14  1  0  0  0  0
 10 11  2  0  0  0  0
 10 12  1  0  0  0  0
 12 14  1  0  0  0  0
 12 19  1  0  0  0  0
 12 13  1  6  0  0  0
 14 16  1  0  0  0  0
 14 15  1  6  0  0  0
 16 17  2  0  0  0  0
 16 18  1  0  0  0  0
 18 48  1  0  0  0  0
 19 20  1  0  0  0  0
 19 49  1  0  0  0  0
 19 50  1  0  0  0  0
 20 21  2  0  0  0  0
 20 25  1  0  0  0  0
 21 22  1  0  0  0  0
 21 51  1  0  0  0  0
 22 23  2  0  0  0  0
 22 52  1  0  0  0  0
 23 24  1  0  0  0  0
 23 53  1  0  0  0  0
 24 25  2  0  0  0  0
 24 26  1  0  0  0  0
 25 54  1  0  0  0  0
 26 27  1  0  0  0  0
 27 28  1  0  0  0  0
 27 55  1  0  0  0  0
 27 56  1  0  0  0  0
 28 29  1  0  0  0  0
 28 57  1  0  0  0  0
 28 58  1  0  0  0  0
 29 30  1  0  0  0  0
 29 33  2  0  0  0  0
 30 31  2  0  0  0  0
 31 32  1  0  0  0  0
 31 35  1  0  0  0  0
 32 33  1  0  0  0  0
 33 34  1  0  0  0  0
 34 59  1  0  0  0  0
 34 60  1  0  0  0  0
 34 61  1  0  0  0  0
 35 36  2  0  0  0  0
 35 40  1  0  0  0  0
 36 37  1  0  0  0  0
 36 62  1  0  0  0  0
 37 38  2  0  0  0  0
 37 63  1  0  0  0  0
 38 39  1  0  0  0  0
 38 64  1  0  0  0  0
 39 40  2  0  0  0  0
 39 65  1  0  0  0  0
 40 66  1  0  0  0  0
M  END
$$$$
