RF2
 OpenBabel04121316183D

 28 30  0  0  0  0  0  0  0  0999 V2000
    0.9005    0.1078    0.1457 F   0  0  0  0  0  0  0  0  0  0  0  0
    2.2362    0.1277    0.0667 C   0  0  0  0  0  0  0  0  0  0  0  0
    2.9020    1.3453    0.0467 C   0  0  0  0  0  0  0  0  0  0  0  0
    4.2797    1.3633   -0.1531 C   0  0  0  0  0  0  0  0  0  0  0  0
    5.0043    0.1665   -0.2500 C   0  0  0  0  0  0  0  0  0  0  0  0
    4.3252   -1.0544   -0.1057 C   0  0  0  0  0  0  0  0  0  0  0  0
    2.9341   -1.0719   -0.0013 C   0  0  0  0  0  0  0  0  0  0  0  0
    6.4289    0.2368   -0.5386 C   0  0  0  0  0  0  0  0  0  0  0  0
    7.1466    1.3315   -0.7121 N   0  0  0  0  0  0  0  0  0  0  0  0
    8.4336    0.9626   -1.0019 N   0  0  0  0  0  0  0  0  0  0  0  0
    8.4979   -0.3564   -1.0035 C   0  0  0  0  0  0  0  0  0  0  0  0
    7.2478   -0.8359   -0.7379 N   0  0  0  0  0  0  0  0  0  0  0  0
    6.9739   -1.8074   -0.7190 H   0  0  0  0  0  0  0  0  0  0  0  0
    9.6659   -1.1755   -1.2909 C   0  0  0  0  0  0  0  0  0  0  0  0
   10.8639   -0.5445   -1.6473 C   0  0  0  0  0  0  0  0  0  0  0  0
   11.9558   -1.2921   -2.0818 C   0  0  0  0  0  0  0  0  0  0  0  0
   11.8938   -2.6832   -2.0666 C   0  0  0  0  0  0  0  0  0  0  0  0
   10.7478   -3.3254   -1.6048 C   0  0  0  0  0  0  0  0  0  0  0  0
    9.6232   -2.5774   -1.2574 C   0  0  0  0  0  0  0  0  0  0  0  0
    2.3512    2.2721    0.1625 H   0  0  0  0  0  0  0  0  0  0  0  0
    4.7942    2.3196   -0.2499 H   0  0  0  0  0  0  0  0  0  0  0  0
    4.8515   -2.0037   -0.0899 H   0  0  0  0  0  0  0  0  0  0  0  0
    2.3917   -2.0117    0.0218 H   0  0  0  0  0  0  0  0  0  0  0  0
   10.9395    0.5421   -1.6104 H   0  0  0  0  0  0  0  0  0  0  0  0
   12.8489   -0.7846   -2.4355 H   0  0  0  0  0  0  0  0  0  0  0  0
   12.7422   -3.2669   -2.4116 H   0  0  0  0  0  0  0  0  0  0  0  0
   10.7223   -4.4093   -1.5303 H   0  0  0  0  0  0  0  0  0  0  0  0
    8.7248   -3.1145   -0.9714 H   0  0  0  0  0  0  0  0  0  0  0  0
  1  2  1  0  0  0  0
  2  3  2  0  0  0  0
  2  7  1  0  0  0  0
  3  4  1  0  0  0  0
  3 20  1  0  0  0  0
  4  5  2  0  0  0  0
  4 21  1  0  0  0  0
  5  6  1  0  0  0  0
  5  8  1  0  0  0  0
  6  7  2  0  0  0  0
  6 22  1  0  0  0  0
  7 23  1  0  0  0  0
  8  9  2  0  0  0  0
  8 12  1  0  0  0  0
  9 10  1  0  0  0  0
 10 11  2  0  0  0  0
 11 12  1  0  0  0  0
 11 14  1  0  0  0  0
 12 13  1  0  0  0  0
 14 15  2  0  0  0  0
 14 19  1  0  0  0  0
 15 16  1  0  0  0  0
 15 24  1  0  0  0  0
 16 17  2  0  0  0  0
 16 25  1  0  0  0  0
 17 18  1  0  0  0  0
 17 26  1  0  0  0  0
 18 19  2  0  0  0  0
 18 27  1  0  0  0  0
 19 28  1  0  0  0  0
M  END
$$$$
