RF5
 OpenBabel04121316183D

 24 24  0  0  1  0  0  0  0  0999 V2000
    1.0985    0.0524    0.2938 O   0  0  0  0  0  0  0  0  0  0  0  0
    2.5044   -0.0372    0.1737 C   0  0  1  0  0  0  0  0  0  0  0  0
    2.7687    0.0586   -0.8865 H   0  0  0  0  0  0  0  0  0  0  0  0
    3.1109    1.0241    0.9146 O   0  0  0  0  0  0  0  0  0  0  0  0
    4.4109    0.5562    1.3276 C   0  0  1  0  0  0  0  0  0  0  0  0
    4.6791    1.0670    2.2589 H   0  0  0  0  0  0  0  0  0  0  0  0
    4.2640   -0.9501    1.5459 C   0  0  2  0  0  0  0  0  0  0  0  0
    5.1530   -1.5119    1.2457 H   0  0  0  0  0  0  0  0  0  0  0  0
    3.0380   -1.3475    0.7397 C   0  0  2  0  0  0  0  0  0  0  0  0
    2.2896   -1.8855    1.3308 H   0  0  0  0  0  0  0  0  0  0  0  0
    3.4198   -2.1606   -0.2860 F   0  0  0  0  0  0  0  0  0  0  0  0
    4.0498   -1.2367    2.9373 O   0  0  0  0  0  0  0  0  0  0  0  0
    5.4219    0.9257    0.2416 C   0  0  0  0  0  0  0  0  0  0  0  0
    6.7206    0.4140    0.5210 O   0  0  0  0  0  0  0  0  0  0  0  0
    7.8269    0.7287   -0.7713 P   0  0  0  0  0  0  0  0  0  0  0  0
    8.9223   -0.1084   -0.1177 O   0  0  0  0  0  0  0  0  0  0  0  0
    7.0432   -0.3380   -1.7242 O   0  0  0  0  0  0  0  0  0  0  0  0
    8.9332    1.0433   -2.0636 O   0  0  0  0  0  0  0  0  0  0  0  0
    0.8304    0.7687   -0.3065 H   0  0  0  0  0  0  0  0  0  0  0  0
    3.3098   -0.6865    3.2530 H   0  0  0  0  0  0  0  0  0  0  0  0
    5.4828    2.0163    0.1485 H   0  0  0  0  0  0  0  0  0  0  0  0
    5.0748    0.5542   -0.7280 H   0  0  0  0  0  0  0  0  0  0  0  0
    7.3770   -1.2286   -1.5370 H   0  0  0  0  0  0  0  0  0  0  0  0
    9.6483    0.3939   -1.9039 H   0  0  0  0  0  0  0  0  0  0  0  0
  1  2  1  0  0  0  0
  1 19  1  0  0  0  0
  2  3  1  6  0  0  0
  2  4  1  0  0  0  0
  2  9  1  0  0  0  0
  4  5  1  0  0  0  0
  5  6  1  1  0  0  0
  5  7  1  0  0  0  0
  5 13  1  0  0  0  0
  7  9  1  0  0  0  0
  7 12  1  0  0  0  0
  7  8  1  6  0  0  0
  9 10  1  1  0  0  0
  9 11  1  0  0  0  0
 12 20  1  0  0  0  0
 13 14  1  0  0  0  0
 13 21  1  0  0  0  0
 13 22  1  0  0  0  0
 14 15  1  0  0  0  0
 15 16  2  0  0  0  0
 15 17  1  0  0  0  0
 15 18  1  0  0  0  0
 17 23  1  0  0  0  0
 18 24  1  0  0  0  0
M  END
$$$$
