RFX
 OpenBabel04121316183D

 40 41  0  0  1  0  0  0  0  0999 V2000
    5.7993    1.1559   -7.1043 C   0  0  0  0  0  0  0  0  0  0  0  0
    4.7829    0.7554   -6.1152 N   0  0  0  0  0  0  0  0  0  0  0  0
    5.2129    1.2837   -4.8241 C   0  0  0  0  0  0  0  0  0  0  0  0
    4.4468    0.9523   -3.5628 C   0  0  0  0  0  0  0  0  0  0  0  0
    5.0740    1.6459   -2.2877 C   0  0  2  0  0  0  0  0  0  0  0  0
    4.7964    0.9903   -1.4485 H   0  0  0  0  0  0  0  0  0  0  0  0
    4.3718    2.9713   -1.9566 C   0  0  0  0  0  0  0  0  0  0  0  0
    2.9948    3.1984   -2.0805 C   0  0  0  0  0  0  0  0  0  0  0  0
    2.5068    4.5113   -2.1464 C   0  0  0  0  0  0  0  0  0  0  0  0
    3.3785    5.5922   -2.0894 C   0  0  0  0  0  0  0  0  0  0  0  0
    4.6983    5.3597   -1.7382 C   0  0  0  0  0  0  0  0  0  0  0  0
    5.1068    4.0507   -1.5169 C   0  0  0  0  0  0  0  0  0  0  0  0
    6.5845    1.6415   -2.2270 O   0  0  0  0  0  0  0  0  0  0  0  0
    7.3371    2.3661   -3.1324 C   0  0  0  0  0  0  0  0  0  0  0  0
    7.4081    3.7440   -3.1599 C   0  0  0  0  0  0  0  0  0  0  0  0
    7.6047    4.4391   -4.3368 C   0  0  0  0  0  0  0  0  0  0  0  0
    8.1117    3.7648   -5.4402 C   0  0  0  0  0  0  0  0  0  0  0  0
    8.4482    2.4171   -5.2829 C   0  0  0  0  0  0  0  0  0  0  0  0
    8.0680    1.7098   -4.1260 C   0  0  0  0  0  0  0  0  0  0  0  0
    8.3196    4.5528   -6.6984 C   0  0  0  0  0  0  0  0  0  0  0  0
    7.1598    5.0685   -7.1946 F   0  0  0  0  0  0  0  0  0  0  0  0
    9.1404    5.6199   -6.4941 F   0  0  0  0  0  0  0  0  0  0  0  0
    8.8738    3.8299   -7.7069 F   0  0  0  0  0  0  0  0  0  0  0  0
    5.5370    0.7752   -8.0918 H   0  0  0  0  0  0  0  0  0  0  0  0
    6.7883    0.7504   -6.8534 H   0  0  0  0  0  0  0  0  0  0  0  0
    5.8828    2.2476   -7.1719 H   0  0  0  0  0  0  0  0  0  0  0  0
    4.7995   -0.2631   -6.0540 H   0  0  0  0  0  0  0  0  0  0  0  0
    5.3300    2.3701   -4.8960 H   0  0  0  0  0  0  0  0  0  0  0  0
    6.1438    0.7596   -4.6722 H   0  0  0  0  0  0  0  0  0  0  0  0
    4.4751   -0.1360   -3.4237 H   0  0  0  0  0  0  0  0  0  0  0  0
    3.3908    1.2089   -3.7031 H   0  0  0  0  0  0  0  0  0  0  0  0
    2.2922    2.3725   -2.1325 H   0  0  0  0  0  0  0  0  0  0  0  0
    1.4416    4.6912   -2.2768 H   0  0  0  0  0  0  0  0  0  0  0  0
    3.0334    6.6084   -2.2443 H   0  0  0  0  0  0  0  0  0  0  0  0
    5.4067    6.1742   -1.6373 H   0  0  0  0  0  0  0  0  0  0  0  0
    6.0749    3.8488   -1.0729 H   0  0  0  0  0  0  0  0  0  0  0  0
    7.3026    4.3687   -2.2860 H   0  0  0  0  0  0  0  0  0  0  0  0
    7.3681    5.4983   -4.3786 H   0  0  0  0  0  0  0  0  0  0  0  0
    8.9193    1.8765   -6.1048 H   0  0  0  0  0  0  0  0  0  0  0  0
    8.1888    0.6307   -4.0960 H   0  0  0  0  0  0  0  0  0  0  0  0
  1  2  1  0  0  0  0
  1 24  1  0  0  0  0
  1 25  1  0  0  0  0
  1 26  1  0  0  0  0
  2  3  1  0  0  0  0
  2 27  1  0  0  0  0
  3  4  1  0  0  0  0
  3 28  1  0  0  0  0
  3 29  1  0  0  0  0
  4 30  1  0  0  0  0
  4 31  1  0  0  0  0
  5  7  1  0  0  0  0
  5 13  1  0  0  0  0
  5  6  1  1  0  0  0
  5  4  1  0  0  0  0
  7  8  2  0  0  0  0
  7 12  1  0  0  0  0
  8  9  1  0  0  0  0
  8 32  1  0  0  0  0
  9 10  2  0  0  0  0
  9 33  1  0  0  0  0
 10 11  1  0  0  0  0
 10 34  1  0  0  0  0
 11 12  2  0  0  0  0
 11 35  1  0  0  0  0
 12 36  1  0  0  0  0
 13 14  1  0  0  0  0
 14 15  2  0  0  0  0
 14 19  1  0  0  0  0
 15 16  1  0  0  0  0
 15 37  1  0  0  0  0
 16 17  2  0  0  0  0
 16 38  1  0  0  0  0
 17 18  1  0  0  0  0
 17 20  1  0  0  0  0
 18 19  2  0  0  0  0
 18 39  1  0  0  0  0
 19 40  1  0  0  0  0
 20 21  1  0  0  0  0
 20 22  1  0  0  0  0
 20 23  1  0  0  0  0
M  END
$$$$
