RGA
 OpenBabel04121316183D

155156  0  0  1  0  0  0  0  0999 V2000
   -7.4391    6.4809   -7.3542 C   0  0  0  0  0  0  0  0  0  0  0  0
   -8.2108    5.2750   -6.9843 O   0  0  0  0  0  0  0  0  0  0  0  0
   -7.7545    4.5947   -5.7462 C   0  0  2  0  0  0  0  0  0  0  0  0
   -6.9282    4.1359   -6.2848 H   0  0  0  0  0  0  0  0  0  0  0  0
   -8.6315    3.0425   -4.6367 C   0  0  0  0  0  0  0  0  0  0  0  0
   -7.4135    2.1046   -4.2647 C   0  0  0  0  0  0  0  0  0  0  0  0
   -6.0725    2.2749   -4.4720 C   0  0  0  0  0  0  0  0  0  0  0  0
   -5.2947    3.3636   -5.0539 C   0  0  0  0  0  0  0  0  0  0  0  0
   -4.0722    3.3436   -5.5869 C   0  0  0  0  0  0  0  0  0  0  0  0
   -3.8329    4.4055   -6.5764 C   0  0  0  0  0  0  0  0  0  0  0  0
   -4.7262    4.9214   -7.2347 O   0  0  0  0  0  0  0  0  0  0  0  0
   -2.5085    4.6752   -6.6391 O   0  0  0  0  0  0  0  0  0  0  0  0
   -2.2100    5.8163   -7.4849 C   0  0  1  0  0  0  0  0  0  0  0  0
   -2.8044    5.6571   -8.3862 H   0  0  0  0  0  0  0  0  0  0  0  0
   -2.6140    7.0935   -6.6364 C   0  0  1  0  0  0  0  0  0  0  0  0
   -2.0230    6.8313   -5.7687 H   0  0  0  0  0  0  0  0  0  0  0  0
   -2.3730    8.5128   -7.2031 C   0  0  0  0  0  0  0  0  0  0  0  0
   -3.9631    7.2062   -6.0897 C   0  0  0  0  0  0  0  0  0  0  0  0
   -4.2969    8.2678   -5.3605 C   0  0  0  0  0  0  0  0  0  0  0  0
   -5.6212    8.8414   -5.1879 C   0  0  2  0  0  0  0  0  0  0  0  0
   -6.0517    7.9931   -4.6606 H   0  0  0  0  0  0  0  0  0  0  0  0
   -6.1915    9.1705   -6.4778 O   0  0  0  0  0  0  0  0  0  0  0  0
   -5.1606    9.6131   -7.2951 C   0  0  0  0  0  0  0  0  0  0  0  0
   -5.6685   10.1525   -4.4290 C   0  0  0  0  0  0  0  0  0  0  0  0
   -7.0841   10.5145   -4.1691 C   0  0  1  0  0  0  0  0  0  0  0  0
   -7.6650   10.5102   -5.1069 H   0  0  0  0  0  0  0  0  0  0  0  0
   -7.5927    9.4642   -3.2122 C   0  0  2  0  0  0  0  0  0  0  0  0
   -7.3713    8.5363   -3.6766 H   0  0  0  0  0  0  0  0  0  0  0  0
   -9.0770    9.6933   -3.1756 C   0  0  0  0  0  0  0  0  0  0  0  0
   -9.6399   10.1802   -2.0629 C   0  0  0  0  0  0  0  0  0  0  0  0
  -11.0737   10.4193   -1.8967 C   0  0  2  0  0  0  0  0  0  0  0  0
  -11.1297   11.3736   -1.3603 H   0  0  0  0  0  0  0  0  0  0  0  0
  -11.5996    9.2234   -1.0953 C   0  0  0  0  0  0  0  0  0  0  0  0
  -11.4837    7.8465   -1.8073 C   0  0  1  0  0  0  0  0  0  0  0  0
  -11.9086    8.0142   -2.8133 H   0  0  0  0  0  0  0  0  0  0  0  0
  -10.0628    7.3309   -1.8506 C   0  0  2  0  0  0  0  0  0  0  0  0
   -9.5928    8.1511   -2.2267 H   0  0  0  0  0  0  0  0  0  0  0  0
   -9.5990    6.3684   -2.8844 C   0  0  1  0  0  0  0  0  0  0  0  0
   -9.0684    5.5349   -2.4188 H   0  0  0  0  0  0  0  0  0  0  0  0
  -10.4688    5.8548   -3.9408 C   0  0  0  0  0  0  0  0  0  0  0  0
   -9.4066    5.7104   -4.9777 C   0  0  0  0  0  0  0  0  0  0  0  0
   -9.8365    6.7375   -5.6999 C   0  0  0  0  0  0  0  0  0  0  0  0
   -8.9059    7.5591   -4.9765 C   0  0  0  0  0  0  0  0  0  0  0  0
   -8.1658    8.2911   -5.5873 O   0  0  0  0  0  0  0  0  0  0  0  0
   -8.6785    7.2181   -3.6189 O   0  0  0  0  0  0  0  0  0  0  0  0
   -7.5994    5.6065   -4.7014 C   0  0  0  0  0  0  0  0  0  0  0  0
   -9.1646    7.2879   -0.6540 C   0  0  0  0  0  0  0  0  0  0  0  0
  -12.2104    6.8365   -1.1037 O   0  0  0  0  0  0  0  0  0  0  0  0
  -12.1041    5.5757   -1.7528 C   0  0  0  0  0  0  0  0  0  0  0  0
  -11.6758   10.5601   -3.1819 O   0  0  0  0  0  0  0  0  0  0  0  0
  -12.9207   11.2284   -3.1024 C   0  0  0  0  0  0  0  0  0  0  0  0
   -6.7540    9.1145   -1.9825 C   0  0  0  0  0  0  0  0  0  0  0  0
   -7.0673   11.8323   -3.6104 O   0  0  0  0  0  0  0  0  0  0  0  0
   -8.3674   12.3610   -3.5081 C   0  0  0  0  0  0  0  0  0  0  0  0
   -0.6919    5.7766   -7.9079 C   0  0  2  0  0  0  0  0  0  0  0  0
   -0.0375    5.8621   -7.0327 H   0  0  0  0  0  0  0  0  0  0  0  0
   -0.2388    6.8274   -8.9961 C   0  0  2  0  0  0  0  0  0  0  0  0
    0.4759    6.2884   -9.6376 H   0  0  0  0  0  0  0  0  0  0  0  0
    0.7261    8.0346   -8.4030 C   0  0  2  0  0  0  0  0  0  0  0  0
    1.5982    7.5159   -7.9811 H   0  0  0  0  0  0  0  0  0  0  0  0
    0.3302    9.0548   -7.2455 C   0  0  0  0  0  0  0  0  0  0  0  0
   -0.0302    8.3307   -5.9171 C   0  0  0  0  0  0  0  0  0  0  0  0
   -1.0148    9.0542   -4.9403 C   0  0  0  0  0  0  0  0  0  0  0  0
   -1.1728   10.2789   -5.0478 O   0  0  0  0  0  0  0  0  0  0  0  0
   -1.8966    8.2805   -3.9220 C   0  0  1  0  0  0  0  0  0  0  0  0
   -2.5572    7.4707   -4.2265 H   0  0  0  0  0  0  0  0  0  0  0  0
   -0.9691    7.5210   -3.0454 C   0  0  1  0  0  0  0  0  0  0  0  0
   -0.2249    8.2557   -2.7337 H   0  0  0  0  0  0  0  0  0  0  0  0
   -1.6930    6.8242   -1.9020 C   0  0  0  0  0  0  0  0  0  0  0  0
   -2.3288    7.8109   -1.0295 C   0  0  0  0  0  0  0  0  0  0  0  0
   -3.2012    7.5613   -0.0725 C   0  0  0  0  0  0  0  0  0  0  0  0
   -3.9092    8.5610    0.5530 N   0  0  0  0  0  0  0  0  0  0  0  0
   -3.9912    9.8994    0.1328 C   0  0  0  0  0  0  0  0  0  0  0  0
   -3.4772   10.4630   -0.8234 O   0  0  0  0  0  0  0  0  0  0  0  0
   -4.6313    8.1835    1.7403 C   0  0  0  0  0  0  0  0  0  0  0  0
   -0.3784    6.4970   -3.8570 O   0  0  0  0  0  0  0  0  0  0  0  0
    0.7320    5.9511   -3.1787 C   0  0  0  0  0  0  0  0  0  0  0  0
   -2.8202    9.3134   -3.2719 C   0  0  0  0  0  0  0  0  0  0  0  0
    1.1573    8.8980   -9.5785 C   0  0  0  0  0  0  0  0  0  0  0  0
   -1.2528    7.0990  -10.0348 O   0  0  0  0  0  0  0  0  0  0  0  0
   -2.2981    7.9419   -9.6542 C   0  0  0  0  0  0  0  0  0  0  0  0
   -0.3131    4.3651   -8.3586 C   0  0  0  0  0  0  0  0  0  0  0  0
   -8.3597    3.3549   -4.5067 C   0  0  0  0  0  0  0  0  0  0  0  0
   -8.0909    7.3597   -7.5078 H   0  0  0  0  0  0  0  0  0  0  0  0
   -6.9266    6.3014   -8.2796 H   0  0  0  0  0  0  0  0  0  0  0  0
   -6.6677    6.7882   -6.6538 H   0  0  0  0  0  0  0  0  0  0  0  0
   -9.6416    2.4993   -5.3480 H   0  0  0  0  0  0  0  0  0  0  0  0
   -9.0325    3.4464   -3.1032 H   0  0  0  0  0  0  0  0  0  0  0  0
   -5.4267    1.4432   -4.2320 H   0  0  0  0  0  0  0  0  0  0  0  0
   -5.6904    4.3532   -5.1709 H   0  0  0  0  0  0  0  0  0  0  0  0
   -3.3629    2.5536   -5.5100 H   0  0  0  0  0  0  0  0  0  0  0  0
   -1.5060    8.2974   -7.7402 H   0  0  0  0  0  0  0  0  0  0  0  0
   -2.1453    9.4231   -6.6659 H   0  0  0  0  0  0  0  0  0  0  0  0
   -3.0554    9.0150   -7.8790 H   0  0  0  0  0  0  0  0  0  0  0  0
   -4.7355    6.8424   -6.7240 H   0  0  0  0  0  0  0  0  0  0  0  0
   -3.5598    9.0435   -5.3596 H   0  0  0  0  0  0  0  0  0  0  0  0
   -5.0595    9.8013   -8.3565 H   0  0  0  0  0  0  0  0  0  0  0  0
   -4.8270    8.6196   -7.5009 H   0  0  0  0  0  0  0  0  0  0  0  0
   -4.4793   10.2599   -6.7292 H   0  0  0  0  0  0  0  0  0  0  0  0
   -5.2321   10.9791   -4.9790 H   0  0  0  0  0  0  0  0  0  0  0  0
   -5.1652   10.1436   -3.4710 H   0  0  0  0  0  0  0  0  0  0  0  0
   -9.7479    9.3680   -3.9836 H   0  0  0  0  0  0  0  0  0  0  0  0
   -8.9645   10.4969   -1.2789 H   0  0  0  0  0  0  0  0  0  0  0  0
  -12.6445    9.4016   -0.8587 H   0  0  0  0  0  0  0  0  0  0  0  0
  -11.0506    9.1811   -0.1487 H   0  0  0  0  0  0  0  0  0  0  0  0
  -11.2256    6.6458   -4.1726 H   0  0  0  0  0  0  0  0  0  0  0  0
  -11.0522    4.9481   -3.8691 H   0  0  0  0  0  0  0  0  0  0  0  0
   -9.8871    6.6991   -6.7717 H   0  0  0  0  0  0  0  0  0  0  0  0
   -7.0749    5.3762   -3.7353 H   0  0  0  0  0  0  0  0  0  0  0  0
   -6.8210    6.3101   -4.9934 H   0  0  0  0  0  0  0  0  0  0  0  0
   -9.5011    6.5451    0.0405 H   0  0  0  0  0  0  0  0  0  0  0  0
   -9.0307    8.2900   -0.2269 H   0  0  0  0  0  0  0  0  0  0  0  0
   -8.1822    6.9630   -1.0042 H   0  0  0  0  0  0  0  0  0  0  0  0
  -12.5284    4.7530   -1.2012 H   0  0  0  0  0  0  0  0  0  0  0  0
  -11.0705    5.2262   -1.7901 H   0  0  0  0  0  0  0  0  0  0  0  0
  -12.5653    5.6593   -2.7422 H   0  0  0  0  0  0  0  0  0  0  0  0
  -13.3577   11.2807   -4.1019 H   0  0  0  0  0  0  0  0  0  0  0  0
  -12.7834   12.2444   -2.7201 H   0  0  0  0  0  0  0  0  0  0  0  0
  -13.5917   10.6639   -2.4542 H   0  0  0  0  0  0  0  0  0  0  0  0
   -6.7846    9.9089   -1.2581 H   0  0  0  0  0  0  0  0  0  0  0  0
   -5.7315    8.8456   -2.2593 H   0  0  0  0  0  0  0  0  0  0  0  0
   -7.0033    8.1675   -1.5248 H   0  0  0  0  0  0  0  0  0  0  0  0
   -8.5328   13.0832   -2.7112 H   0  0  0  0  0  0  0  0  0  0  0  0
   -8.8309   11.6725   -2.9076 H   0  0  0  0  0  0  0  0  0  0  0  0
   -9.0290   12.2431   -4.3762 H   0  0  0  0  0  0  0  0  0  0  0  0
   -0.4244    9.7162   -7.7086 H   0  0  0  0  0  0  0  0  0  0  0  0
    1.0554    9.8243   -6.9783 H   0  0  0  0  0  0  0  0  0  0  0  0
    0.8000    7.8507   -5.4170 H   0  0  0  0  0  0  0  0  0  0  0  0
   -0.4960    7.4503   -6.2756 H   0  0  0  0  0  0  0  0  0  0  0  0
   -0.9710    6.3137   -1.2785 H   0  0  0  0  0  0  0  0  0  0  0  0
   -2.4039    6.0819   -2.3024 H   0  0  0  0  0  0  0  0  0  0  0  0
   -2.0969    8.8396   -1.2378 H   0  0  0  0  0  0  0  0  0  0  0  0
   -3.3404    6.5306    0.2424 H   0  0  0  0  0  0  0  0  0  0  0  0
   -4.6316   10.4973    0.7910 H   0  0  0  0  0  0  0  0  0  0  0  0
   -4.4913    7.1207    1.9605 H   0  0  0  0  0  0  0  0  0  0  0  0
   -5.6912    8.3946    1.5921 H   0  0  0  0  0  0  0  0  0  0  0  0
   -4.2369    8.7775    2.5672 H   0  0  0  0  0  0  0  0  0  0  0  0
    1.2498    5.2613   -3.8378 H   0  0  0  0  0  0  0  0  0  0  0  0
    0.3810    5.3910   -2.3141 H   0  0  0  0  0  0  0  0  0  0  0  0
    1.3917    6.7670   -2.8733 H   0  0  0  0  0  0  0  0  0  0  0  0
   -3.3694    9.9659   -3.9336 H   0  0  0  0  0  0  0  0  0  0  0  0
   -2.2352   10.0731   -2.7751 H   0  0  0  0  0  0  0  0  0  0  0  0
   -3.6108    8.8211   -2.6901 H   0  0  0  0  0  0  0  0  0  0  0  0
    1.7697    9.7325   -9.2263 H   0  0  0  0  0  0  0  0  0  0  0  0
    0.2877    9.3188  -10.0923 H   0  0  0  0  0  0  0  0  0  0  0  0
    1.7341    8.3076  -10.2917 H   0  0  0  0  0  0  0  0  0  0  0  0
   -3.2341    8.2247  -10.1433 H   0  0  0  0  0  0  0  0  0  0  0  0
   -1.8287    8.8946   -9.4080 H   0  0  0  0  0  0  0  0  0  0  0  0
   -2.8129    7.3877   -8.8928 H   0  0  0  0  0  0  0  0  0  0  0  0
   -0.5201    3.6465   -7.5585 H   0  0  0  0  0  0  0  0  0  0  0  0
    0.7650    4.3120   -8.5522 H   0  0  0  0  0  0  0  0  0  0  0  0
   -0.8632    4.0881   -9.2573 H   0  0  0  0  0  0  0  0  0  0  0  0
   -9.9799    3.3749   -4.0904 H   0  0  0  0  0  0  0  0  0  0  0  0
   -8.2963    3.0556   -6.0629 H   0  0  0  0  0  0  0  0  0  0  0  0
   -7.6492    3.9509   -3.5377 H   0  0  0  0  0  0  0  0  0  0  0  0
  1  2  1  0  0  0  0
  1 84  1  0  0  0  0
  1 85  1  0  0  0  0
  1 86  1  0  0  0  0
  2  3  1  0  0  0  0
  3  4  1  6  0  0  0
  3  5  1  0  0  0  0
  3 46  1  0  0  0  0
  5  6  1  0  0  0  0
  5 87  1  0  0  0  0
  5 88  1  0  0  0  0
  6  7  2  0  0  0  0
  6 83  1  0  0  0  0
  7  8  1  0  0  0  0
  7 89  1  0  0  0  0
  8  9  2  0  0  0  0
  8 90  1  0  0  0  0
  9 10  1  0  0  0  0
  9 91  1  0  0  0  0
 10 11  2  0  0  0  0
 10 12  1  0  0  0  0
 12 13  1  0  0  0  0
 13 14  1  6  0  0  0
 13 15  1  0  0  0  0
 15 16  1  1  0  0  0
 15 17  1  0  0  0  0
 15 18  1  0  0  0  0
 17 92  1  0  0  0  0
 17 93  1  0  0  0  0
 17 94  1  0  0  0  0
 18 19  2  0  0  0  0
 18 95  1  0  0  0  0
 19 20  1  0  0  0  0
 19 96  1  0  0  0  0
 20 24  1  0  0  0  0
 20 22  1  0  0  0  0
 20 21  1  1  0  0  0
 22 23  1  0  0  0  0
 23 97  1  0  0  0  0
 23 98  1  0  0  0  0
 23 99  1  0  0  0  0
 24 25  1  0  0  0  0
 24100  1  0  0  0  0
 24101  1  0  0  0  0
 25 26  1  6  0  0  0
 25 27  1  0  0  0  0
 25 53  1  0  0  0  0
 27 29  1  0  0  0  0
 27 52  1  0  0  0  0
 27 28  1  6  0  0  0
 29 30  2  0  0  0  0
 29102  1  0  0  0  0
 30 31  1  0  0  0  0
 30103  1  0  0  0  0
 31 33  1  0  0  0  0
 31 50  1  0  0  0  0
 31 32  1  1  0  0  0
 33 34  1  0  0  0  0
 33104  1  0  0  0  0
 33105  1  0  0  0  0
 34 35  1  6  0  0  0
 34 36  1  0  0  0  0
 34 48  1  0  0  0  0
 36 38  1  0  0  0  0
 36 47  1  0  0  0  0
 36 37  1  6  0  0  0
 38 39  1  1  0  0  0
 38 40  1  0  0  0  0
 38 45  1  0  0  0  0
 40 41  1  0  0  0  0
 40106  1  0  0  0  0
 40107  1  0  0  0  0
 41 42  2  0  0  0  0
 41 46  1  0  0  0  0
 42 43  1  0  0  0  0
 42108  1  0  0  0  0
 43 44  2  0  0  0  0
 43 45  1  0  0  0  0
 46109  1  0  0  0  0
 46110  1  0  0  0  0
 47111  1  0  0  0  0
 47112  1  0  0  0  0
 47113  1  0  0  0  0
 48 49  1  0  0  0  0
 49114  1  0  0  0  0
 49115  1  0  0  0  0
 49116  1  0  0  0  0
 50 51  1  0  0  0  0
 51117  1  0  0  0  0
 51118  1  0  0  0  0
 51119  1  0  0  0  0
 52120  1  0  0  0  0
 52121  1  0  0  0  0
 52122  1  0  0  0  0
 53 54  1  0  0  0  0
 54123  1  0  0  0  0
 54124  1  0  0  0  0
 54125  1  0  0  0  0
 55 82  1  0  0  0  0
 55 56  1  1  0  0  0
 55 13  1  0  0  0  0
 57 80  1  0  0  0  0
 57 58  1  6  0  0  0
 57 55  1  0  0  0  0
 59 61  1  0  0  0  0
 59 79  1  0  0  0  0
 59 60  1  1  0  0  0
 59 57  1  0  0  0  0
 61 62  1  0  0  0  0
 61126  1  0  0  0  0
 61127  1  0  0  0  0
 62 63  1  0  0  0  0
 62128  1  0  0  0  0
 62129  1  0  0  0  0
 63 64  2  0  0  0  0
 63 65  1  0  0  0  0
 65 66  1  6  0  0  0
 65 67  1  0  0  0  0
 65 78  1  0  0  0  0
 67 68  1  1  0  0  0
 67 69  1  0  0  0  0
 67 76  1  0  0  0  0
 69 70  1  0  0  0  0
 69130  1  0  0  0  0
 69131  1  0  0  0  0
 70 71  2  0  0  0  0
 70132  1  0  0  0  0
 71 72  1  0  0  0  0
 71133  1  0  0  0  0
 72 73  1  0  0  0  0
 72 75  1  0  0  0  0
 73 74  2  0  0  0  0
 73134  1  0  0  0  0
 75135  1  0  0  0  0
 75136  1  0  0  0  0
 75137  1  0  0  0  0
 76 77  1  0  0  0  0
 77138  1  0  0  0  0
 77139  1  0  0  0  0
 77140  1  0  0  0  0
 78141  1  0  0  0  0
 78142  1  0  0  0  0
 78143  1  0  0  0  0
 79144  1  0  0  0  0
 79145  1  0  0  0  0
 79146  1  0  0  0  0
 80 81  1  0  0  0  0
 81147  1  0  0  0  0
 81148  1  0  0  0  0
 81149  1  0  0  0  0
 82150  1  0  0  0  0
 82151  1  0  0  0  0
 82152  1  0  0  0  0
 83153  1  0  0  0  0
 83154  1  0  0  0  0
 83155  1  0  0  0  0
M  END
$$$$
