RI2
 OpenBabel04121316183D

 30 30  0  0  1  0  0  0  0  0999 V2000
    2.7884    0.1592   -1.3278 O   0  0  0  0  0  0  0  0  0  0  0  0
    2.3221    0.0289    0.0213 C   0  0  2  0  0  0  0  0  0  0  0  0
    1.2309    0.0767   -0.0126 H   0  0  0  0  0  0  0  0  0  0  0  0
    2.9928    1.0793    0.8631 C   0  0  1  0  0  0  0  0  0  0  0  0
    3.1261    2.0186    0.3200 H   0  0  0  0  0  0  0  0  0  0  0  0
    2.1360    1.3184    2.1057 C   0  0  0  0  0  0  0  0  0  0  0  0
    0.7648    1.7355    1.7980 O   0  0  0  0  0  0  0  0  0  0  0  0
   -0.1997    1.9533    3.2176 P   0  0  0  0  0  0  0  0  0  0  0  0
    0.7709    1.2225    4.1403 O   0  0  0  0  0  0  0  0  0  0  0  0
    0.1864    3.5304    3.2093 O   0  0  0  0  0  0  0  0  0  0  0  0
   -1.1643    2.1711    4.6372 O   0  0  0  0  0  0  0  0  0  0  0  0
    4.3215    0.5035    1.1290 O   0  0  0  0  0  0  0  0  0  0  0  0
    4.1324   -0.9158    1.3828 C   0  0  1  0  0  0  0  0  0  0  0  0
    4.0257   -0.9587    2.4726 H   0  0  0  0  0  0  0  0  0  0  0  0
    2.7771   -1.2641    0.6846 C   0  0  2  0  0  0  0  0  0  0  0  0
    2.0818   -1.5742    1.4736 H   0  0  0  0  0  0  0  0  0  0  0  0
    2.7665   -2.2433   -0.3377 O   0  0  0  0  0  0  0  0  0  0  0  0
    5.2220   -1.8172    1.0907 O   0  0  0  0  0  0  0  0  0  0  0  0
    4.8087   -3.3378    1.4431 P   0  0  0  0  0  0  0  0  0  0  0  0
    3.7782   -3.4574    2.5273 O   0  0  0  0  0  0  0  0  0  0  0  0
    4.3147   -3.8393    0.0166 O   0  0  0  0  0  0  0  0  0  0  0  0
    6.0386   -4.3153    1.6378 O   0  0  0  0  0  0  0  0  0  0  0  0
    3.7530    0.0271   -1.3165 H   0  0  0  0  0  0  0  0  0  0  0  0
    2.6132    2.0607    2.7542 H   0  0  0  0  0  0  0  0  0  0  0  0
    2.0849    0.3725    2.6585 H   0  0  0  0  0  0  0  0  0  0  0  0
    0.5027    3.8000    2.3286 H   0  0  0  0  0  0  0  0  0  0  0  0
   -1.2374    1.3017    5.0705 H   0  0  0  0  0  0  0  0  0  0  0  0
    2.6729   -3.1242    0.0832 H   0  0  0  0  0  0  0  0  0  0  0  0
    4.4037   -3.0901   -0.6276 H   0  0  0  0  0  0  0  0  0  0  0  0
    5.6575   -5.1467    2.0045 H   0  0  0  0  0  0  0  0  0  0  0  0
  1 23  1  0  0  0  0
  2  4  1  0  0  0  0
  2 15  1  0  0  0  0
  2  3  1  1  0  0  0
  2  1  1  0  0  0  0
  4  5  1  6  0  0  0
  4  6  1  0  0  0  0
  4 12  1  0  0  0  0
  6  7  1  0  0  0  0
  6 24  1  0  0  0  0
  6 25  1  0  0  0  0
  7  8  1  0  0  0  0
  8  9  2  0  0  0  0
  8 10  1  0  0  0  0
  8 11  1  0  0  0  0
 10 26  1  0  0  0  0
 11 27  1  0  0  0  0
 12 13  1  0  0  0  0
 13 14  1  1  0  0  0
 13 15  1  0  0  0  0
 13 18  1  0  0  0  0
 15 16  1  1  0  0  0
 15 17  1  0  0  0  0
 17 28  1  0  0  0  0
 18 19  1  0  0  0  0
 19 20  2  0  0  0  0
 19 21  1  0  0  0  0
 19 22  1  0  0  0  0
 21 29  1  0  0  0  0
 22 30  1  0  0  0  0
M  END
$$$$
