RIB
 OpenBabel04121316183D

 20 20  0  0  1  0  0  0  0  0999 V2000
    0.9733    0.0479   -0.1252 O   0  0  0  0  0  0  0  0  0  0  0  0
    2.3975    0.1071   -0.0956 C   0  0  0  0  0  0  0  0  0  0  0  0
    2.9273    1.1337   -1.1012 C   0  0  1  0  0  0  0  0  0  0  0  0
    2.5643    0.8689   -2.1025 H   0  0  0  0  0  0  0  0  0  0  0  0
    2.4508    2.4644   -0.8049 O   0  0  0  0  0  0  0  0  0  0  0  0
    3.3621    3.3547   -1.4439 C   0  0  1  0  0  0  0  0  0  0  0  0
    3.3213    4.3352   -0.9597 H   0  0  0  0  0  0  0  0  0  0  0  0
    4.7496    2.7099   -1.2901 C   0  0  1  0  0  0  0  0  0  0  0  0
    5.1989    3.1105   -0.3742 H   0  0  0  0  0  0  0  0  0  0  0  0
    4.4525    1.2275   -1.0545 C   0  0  2  0  0  0  0  0  0  0  0  0
    4.8253    0.9597   -0.0595 H   0  0  0  0  0  0  0  0  0  0  0  0
    5.0768    0.3431   -1.9764 O   0  0  0  0  0  0  0  0  0  0  0  0
    5.6876    2.9296   -2.3387 O   0  0  0  0  0  0  0  0  0  0  0  0
    3.0118    3.5206   -2.8049 O   0  0  0  0  0  0  0  0  0  0  0  0
    0.7019   -0.6000    0.5488 H   0  0  0  0  0  0  0  0  0  0  0  0
    2.7810   -0.8904   -0.3353 H   0  0  0  0  0  0  0  0  0  0  0  0
    2.6976    0.3687    0.9247 H   0  0  0  0  0  0  0  0  0  0  0  0
    5.9137    0.7769   -2.2357 H   0  0  0  0  0  0  0  0  0  0  0  0
    5.5076    3.8209   -2.6953 H   0  0  0  0  0  0  0  0  0  0  0  0
    2.1307    3.9421   -2.7880 H   0  0  0  0  0  0  0  0  0  0  0  0
  1  2  1  0  0  0  0
  1 15  1  0  0  0  0
  2  3  1  0  0  0  0
  2 16  1  0  0  0  0
  2 17  1  0  0  0  0
  3  4  1  6  0  0  0
  3  5  1  0  0  0  0
  3 10  1  0  0  0  0
  5  6  1  0  0  0  0
  6  7  1  1  0  0  0
  6  8  1  0  0  0  0
  6 14  1  0  0  0  0
  8  9  1  1  0  0  0
  8 10  1  0  0  0  0
  8 13  1  0  0  0  0
 10 11  1  1  0  0  0
 10 12  1  0  0  0  0
 12 18  1  0  0  0  0
 13 19  1  0  0  0  0
 14 20  1  0  0  0  0
M  END
$$$$
