RIS
 OpenBabel04121316183D

 28 28  0  0  0  0  0  0  0  0999 V2000
    1.0455   -0.0446    0.0771 O   0  0  0  0  0  0  0  0  0  0  0  0
    2.7755   -0.0446    0.0771 P   0  0  0  0  0  0  0  0  0  0  0  0
    2.7691    1.3682   -0.4920 O   0  0  0  0  0  0  0  0  0  0  0  0
    2.8380   -0.0966    2.0635 C   0  0  0  0  0  0  0  0  0  0  0  0
    3.2391   -1.6612    2.9472 P   0  0  0  0  0  0  0  0  0  0  0  0
    3.4371   -1.4937    4.4295 O   0  0  0  0  0  0  0  0  0  0  0  0
    2.0552   -2.6879    2.6111 O   0  0  0  0  0  0  0  0  0  0  0  0
    4.4637   -2.4793    2.3238 O   0  0  0  0  0  0  0  0  0  0  0  0
    3.6512    1.1211    2.5785 C   0  0  0  0  0  0  0  0  0  0  0  0
    5.1219    1.2277    2.2081 C   0  0  0  0  0  0  0  0  0  0  0  0
    5.6586    2.4261    1.7678 C   0  0  0  0  0  0  0  0  0  0  0  0
    6.9108    2.4449    1.1401 C   0  0  0  0  0  0  0  0  0  0  0  0
    7.5596    1.2371    0.9109 C   0  0  0  0  0  0  0  0  0  0  0  0
    7.1390    0.0808    1.4095 N   0  0  0  0  0  0  0  0  0  0  0  0
    5.9698    0.1187    2.1001 C   0  0  0  0  0  0  0  0  0  0  0  0
    1.4487    0.1296    2.4906 O   0  0  0  0  0  0  0  0  0  0  0  0
    4.5055   -0.0446    0.0771 O   0  0  0  0  0  0  0  0  0  0  0  0
    0.7083   -0.1538   -0.8360 H   0  0  0  0  0  0  0  0  0  0  0  0
    1.4776   -2.4435    1.8660 H   0  0  0  0  0  0  0  0  0  0  0  0
    4.9192   -2.9743    3.0455 H   0  0  0  0  0  0  0  0  0  0  0  0
    3.5449    1.1843    3.6645 H   0  0  0  0  0  0  0  0  0  0  0  0
    3.1322    2.0069    2.1790 H   0  0  0  0  0  0  0  0  0  0  0  0
    5.0851    3.3494    1.8372 H   0  0  0  0  0  0  0  0  0  0  0  0
    7.3547    3.3666    0.8076 H   0  0  0  0  0  0  0  0  0  0  0  0
    8.4588    1.1760    0.3053 H   0  0  0  0  0  0  0  0  0  0  0  0
    5.6879   -0.8497    2.4299 H   0  0  0  0  0  0  0  0  0  0  0  0
    0.8706   -0.2957    1.8257 H   0  0  0  0  0  0  0  0  0  0  0  0
    4.8683    0.2170   -0.7916 H   0  0  0  0  0  0  0  0  0  0  0  0
  1  2  1  0  0  0  0
  1 18  1  0  0  0  0
  2  3  2  0  0  0  0
  2  4  1  0  0  0  0
  2 17  1  0  0  0  0
  4  5  1  0  0  0  0
  4  9  1  0  0  0  0
  4 16  1  0  0  0  0
  5  6  2  0  0  0  0
  5  7  1  0  0  0  0
  5  8  1  0  0  0  0
  7 19  1  0  0  0  0
  8 20  1  0  0  0  0
  9 10  1  0  0  0  0
  9 21  1  0  0  0  0
  9 22  1  0  0  0  0
 10 11  2  0  0  0  0
 10 15  1  0  0  0  0
 11 12  1  0  0  0  0
 11 23  1  0  0  0  0
 12 13  2  0  0  0  0
 12 24  1  0  0  0  0
 13 14  1  0  0  0  0
 13 25  1  0  0  0  0
 14 15  2  0  0  0  0
 15 26  1  0  0  0  0
 16 27  1  0  0  0  0
 17 28  1  0  0  0  0
M  END
$$$$
