RIT
 OpenBabel04121316183D

 98101  0  0  1  0  0  0  0  0999 V2000
   -2.9743   -7.1013   -5.4382 O   0  0  0  0  0  0  0  0  0  0  0  0
   -3.9727   -7.1322   -6.1851 C   0  0  0  0  0  0  0  0  0  0  0  0
   -3.8953   -6.9482   -7.5471 N   0  0  0  0  0  0  0  0  0  0  0  0
   -2.7976   -6.1299   -8.0965 C   0  0  2  0  0  0  0  0  0  0  0  0
   -1.8649   -6.5527   -7.7154 H   0  0  0  0  0  0  0  0  0  0  0  0
   -2.8800   -4.6986   -7.5561 C   0  0  2  0  0  0  0  0  0  0  0  0
   -3.6081   -4.2951   -8.2314 H   0  0  0  0  0  0  0  0  0  0  0  0
   -1.7055   -3.7945   -7.7261 C   0  0  0  0  0  0  0  0  0  0  0  0
   -2.0154   -2.2818   -7.4922 C   0  0  2  0  0  0  0  0  0  0  0  0
   -2.3344   -2.1225   -6.4562 H   0  0  0  0  0  0  0  0  0  0  0  0
   -3.1094   -1.5463   -8.4710 C   0  0  0  0  0  0  0  0  0  0  0  0
   -4.5785   -1.9103   -8.4046 C   0  0  0  0  0  0  0  0  0  0  0  0
   -4.9497   -2.8316   -7.4805 C   0  0  0  0  0  0  0  0  0  0  0  0
   -5.9071   -3.7839   -7.7483 C   0  0  0  0  0  0  0  0  0  0  0  0
   -6.9567   -3.3947   -8.5148 C   0  0  0  0  0  0  0  0  0  0  0  0
   -6.8847   -2.1099   -9.0526 C   0  0  0  0  0  0  0  0  0  0  0  0
   -5.6481   -1.4184   -9.1150 C   0  0  0  0  0  0  0  0  0  0  0  0
   -0.7317   -1.6051   -7.5454 N   0  0  0  0  0  0  0  0  0  0  0  0
   -0.1107   -1.5595   -8.7664 C   0  0  0  0  0  0  0  0  0  0  0  0
   -0.3191   -2.4171   -9.6159 O   0  0  0  0  0  0  0  0  0  0  0  0
    0.7040   -0.3091   -9.0192 C   0  0  2  0  0  0  0  0  0  0  0  0
    1.3389   -0.1674   -8.1338 H   0  0  0  0  0  0  0  0  0  0  0  0
   -0.1095    0.9767   -9.2217 C   0  0  0  0  0  0  0  0  0  0  0  0
   -0.9538    0.9122  -10.4879 C   0  0  0  0  0  0  0  0  0  0  0  0
   -0.9912    1.2953   -8.0236 C   0  0  0  0  0  0  0  0  0  0  0  0
    1.6001   -0.5926  -10.1148 N   0  0  0  0  0  0  0  0  0  0  0  0
    1.2659   -0.9762  -11.3795 C   0  0  0  0  0  0  0  0  0  0  0  0
    0.1159   -1.2184  -11.7355 O   0  0  0  0  0  0  0  0  0  0  0  0
    2.2793   -0.9604  -12.3133 N   0  0  0  0  0  0  0  0  0  0  0  0
    3.7414   -0.9125  -12.1049 C   0  0  0  0  0  0  0  0  0  0  0  0
    4.1784   -0.5076  -10.7244 C   0  0  0  0  0  0  0  0  0  0  0  0
    4.1487    0.7812  -10.2188 C   0  0  0  0  0  0  0  0  0  0  0  0
    4.3500    0.7737   -8.5178 S   0  0  0  0  0  0  0  0  0  0  0  0
    4.3647   -0.9512   -8.5230 C   0  0  0  0  0  0  0  0  0  0  0  0
    4.2771   -1.4910   -9.7268 N   0  0  0  0  0  0  0  0  0  0  0  0
    4.4018   -1.7156   -7.2174 C   0  0  0  0  0  0  0  0  0  0  0  0
    3.1954   -1.4246   -6.3123 C   0  0  0  0  0  0  0  0  0  0  0  0
    4.4870   -3.2230   -7.4622 C   0  0  0  0  0  0  0  0  0  0  0  0
    1.8370   -1.2087  -13.6797 C   0  0  0  0  0  0  0  0  0  0  0  0
   -3.2720   -4.7249   -6.1875 O   0  0  0  0  0  0  0  0  0  0  0  0
   -2.7998   -6.1238   -9.6510 C   0  0  0  0  0  0  0  0  0  0  0  0
   -4.0972   -5.7713  -10.3737 C   0  0  0  0  0  0  0  0  0  0  0  0
   -4.9912   -6.7827  -10.7397 C   0  0  0  0  0  0  0  0  0  0  0  0
   -6.0894   -6.5038  -11.5587 C   0  0  0  0  0  0  0  0  0  0  0  0
   -6.3925   -5.1921  -11.9101 C   0  0  0  0  0  0  0  0  0  0  0  0
   -5.5852   -4.1615  -11.4506 C   0  0  0  0  0  0  0  0  0  0  0  0
   -4.4098   -4.4551  -10.7497 C   0  0  0  0  0  0  0  0  0  0  0  0
   -5.1942   -7.3291   -5.6468 O   0  0  0  0  0  0  0  0  0  0  0  0
   -6.3782   -7.4052   -6.4372 C   0  0  0  0  0  0  0  0  0  0  0  0
   -7.4803   -7.6163   -5.4778 C   0  0  0  0  0  0  0  0  0  0  0  0
   -7.8672   -8.7727   -4.8372 C   0  0  0  0  0  0  0  0  0  0  0  0
   -8.9465   -8.6427   -3.9875 N   0  0  0  0  0  0  0  0  0  0  0  0
   -9.3365   -7.3867   -3.9768 C   0  0  0  0  0  0  0  0  0  0  0  0
   -8.4704   -6.3081   -4.9824 S   0  0  0  0  0  0  0  0  0  0  0  0
   -4.7228   -7.0354   -8.1160 H   0  0  0  0  0  0  0  0  0  0  0  0
   -1.3390   -3.9612   -8.7337 H   0  0  0  0  0  0  0  0  0  0  0  0
   -0.9053   -4.1125   -7.0465 H   0  0  0  0  0  0  0  0  0  0  0  0
   -2.7574   -1.6531   -9.5051 H   0  0  0  0  0  0  0  0  0  0  0  0
   -3.1293   -0.4824   -8.2496 H   0  0  0  0  0  0  0  0  0  0  0  0
   -4.2505   -2.9429   -6.7040 H   0  0  0  0  0  0  0  0  0  0  0  0
   -5.7726   -4.7862   -7.3723 H   0  0  0  0  0  0  0  0  0  0  0  0
   -7.7944   -4.0692   -8.6470 H   0  0  0  0  0  0  0  0  0  0  0  0
   -7.7825   -1.6761   -9.4668 H   0  0  0  0  0  0  0  0  0  0  0  0
   -5.5492   -0.5010   -9.6820 H   0  0  0  0  0  0  0  0  0  0  0  0
   -0.3960   -1.0552   -6.7634 H   0  0  0  0  0  0  0  0  0  0  0  0
    0.5985    1.8079   -9.3305 H   0  0  0  0  0  0  0  0  0  0  0  0
   -1.5323   -0.0166  -10.5232 H   0  0  0  0  0  0  0  0  0  0  0  0
   -0.3038    0.9709  -11.3650 H   0  0  0  0  0  0  0  0  0  0  0  0
   -1.6492    1.7420  -10.5839 H   0  0  0  0  0  0  0  0  0  0  0  0
   -1.6737    0.4896   -7.8238 H   0  0  0  0  0  0  0  0  0  0  0  0
   -1.6221    2.1652   -8.2070 H   0  0  0  0  0  0  0  0  0  0  0  0
   -0.4141    1.4240   -7.1055 H   0  0  0  0  0  0  0  0  0  0  0  0
    2.4429   -1.0216   -9.7854 H   0  0  0  0  0  0  0  0  0  0  0  0
    4.1370   -0.1841  -12.8211 H   0  0  0  0  0  0  0  0  0  0  0  0
    4.1352   -1.9016  -12.3639 H   0  0  0  0  0  0  0  0  0  0  0  0
    3.8623    1.6830  -10.7380 H   0  0  0  0  0  0  0  0  0  0  0  0
    5.3102   -1.4011   -6.6914 H   0  0  0  0  0  0  0  0  0  0  0  0
    2.2594   -1.7845   -6.7528 H   0  0  0  0  0  0  0  0  0  0  0  0
    3.0773   -0.3549   -6.1104 H   0  0  0  0  0  0  0  0  0  0  0  0
    3.3121   -1.9224   -5.3426 H   0  0  0  0  0  0  0  0  0  0  0  0
    3.5727   -3.6058   -7.9326 H   0  0  0  0  0  0  0  0  0  0  0  0
    4.6305   -3.7598   -6.5186 H   0  0  0  0  0  0  0  0  0  0  0  0
    5.3272   -3.4647   -8.1211 H   0  0  0  0  0  0  0  0  0  0  0  0
    0.7457   -1.2038  -13.7907 H   0  0  0  0  0  0  0  0  0  0  0  0
    2.1945   -2.1902  -13.9960 H   0  0  0  0  0  0  0  0  0  0  0  0
    2.2196   -0.4181  -14.3273 H   0  0  0  0  0  0  0  0  0  0  0  0
   -3.3537   -3.8918   -5.7087 H   0  0  0  0  0  0  0  0  0  0  0  0
   -2.4950   -7.1214   -9.9817 H   0  0  0  0  0  0  0  0  0  0  0  0
   -2.0247   -5.4464  -10.0278 H   0  0  0  0  0  0  0  0  0  0  0  0
   -4.8140   -7.8064  -10.4233 H   0  0  0  0  0  0  0  0  0  0  0  0
   -6.7031   -7.3165  -11.9348 H   0  0  0  0  0  0  0  0  0  0  0  0
   -7.2501   -4.9707  -12.5391 H   0  0  0  0  0  0  0  0  0  0  0  0
   -5.8733   -3.1269  -11.6267 H   0  0  0  0  0  0  0  0  0  0  0  0
   -3.7562   -3.6278  -10.4853 H   0  0  0  0  0  0  0  0  0  0  0  0
   -6.2987   -8.2327   -7.1447 H   0  0  0  0  0  0  0  0  0  0  0  0
   -6.5610   -6.4847   -6.9871 H   0  0  0  0  0  0  0  0  0  0  0  0
   -7.3895   -9.7388   -4.9570 H   0  0  0  0  0  0  0  0  0  0  0  0
  -10.1606   -7.0340   -3.3750 H   0  0  0  0  0  0  0  0  0  0  0  0
  1  2  2  0  0  0  0
  2  3  1  0  0  0  0
  2 48  1  0  0  0  0
  3 55  1  0  0  0  0
  4 41  1  0  0  0  0
  4  5  1  1  0  0  0
  4  3  1  0  0  0  0
  6  8  1  0  0  0  0
  6 40  1  0  0  0  0
  6  7  1  6  0  0  0
  6  4  1  0  0  0  0
  8 56  1  0  0  0  0
  8 57  1  0  0  0  0
  9 11  1  0  0  0  0
  9 18  1  0  0  0  0
  9 10  1  1  0  0  0
  9  8  1  0  0  0  0
 11 12  1  0  0  0  0
 11 58  1  0  0  0  0
 11 59  1  0  0  0  0
 12 13  2  0  0  0  0
 12 17  1  0  0  0  0
 13 14  1  0  0  0  0
 13 60  1  0  0  0  0
 14 15  2  0  0  0  0
 14 61  1  0  0  0  0
 15 16  1  0  0  0  0
 15 62  1  0  0  0  0
 16 17  2  0  0  0  0
 16 63  1  0  0  0  0
 17 64  1  0  0  0  0
 18 19  1  0  0  0  0
 18 65  1  0  0  0  0
 19 20  2  0  0  0  0
 21 23  1  0  0  0  0
 21 26  1  0  0  0  0
 21 22  1  1  0  0  0
 21 19  1  0  0  0  0
 23 24  1  0  0  0  0
 23 25  1  0  0  0  0
 23 66  1  0  0  0  0
 24 67  1  0  0  0  0
 24 68  1  0  0  0  0
 24 69  1  0  0  0  0
 25 70  1  0  0  0  0
 25 71  1  0  0  0  0
 25 72  1  0  0  0  0
 26 27  1  0  0  0  0
 26 73  1  0  0  0  0
 27 28  2  0  0  0  0
 27 29  1  0  0  0  0
 29 30  1  0  0  0  0
 29 39  1  0  0  0  0
 30 31  1  0  0  0  0
 30 74  1  0  0  0  0
 30 75  1  0  0  0  0
 31 32  2  0  0  0  0
 31 35  1  0  0  0  0
 32 33  1  0  0  0  0
 32 76  1  0  0  0  0
 33 34  1  0  0  0  0
 34 35  2  0  0  0  0
 34 36  1  0  0  0  0
 36 37  1  0  0  0  0
 36 38  1  0  0  0  0
 36 77  1  0  0  0  0
 37 78  1  0  0  0  0
 37 79  1  0  0  0  0
 37 80  1  0  0  0  0
 38 81  1  0  0  0  0
 38 82  1  0  0  0  0
 38 83  1  0  0  0  0
 39 84  1  0  0  0  0
 39 85  1  0  0  0  0
 39 86  1  0  0  0  0
 40 87  1  0  0  0  0
 41 42  1  0  0  0  0
 41 88  1  0  0  0  0
 41 89  1  0  0  0  0
 42 43  2  0  0  0  0
 42 47  1  0  0  0  0
 43 44  1  0  0  0  0
 43 90  1  0  0  0  0
 44 45  2  0  0  0  0
 44 91  1  0  0  0  0
 45 46  1  0  0  0  0
 45 92  1  0  0  0  0
 46 47  2  0  0  0  0
 46 93  1  0  0  0  0
 47 94  1  0  0  0  0
 48 49  1  0  0  0  0
 49 50  1  0  0  0  0
 49 95  1  0  0  0  0
 49 96  1  0  0  0  0
 50 51  2  0  0  0  0
 50 54  1  0  0  0  0
 51 52  1  0  0  0  0
 51 97  1  0  0  0  0
 52 53  2  0  0  0  0
 53 54  1  0  0  0  0
 53 98  1  0  0  0  0
M  END
$$$$
