RIV
 OpenBabel04121316183D

 47 50  0  0  1  0  0  0  0  0999 V2000
    1.1475   -0.0494    0.1837 O   0  0  0  0  0  0  0  0  0  0  0  0
    2.3490   -0.0955   -0.0139 C   0  0  0  0  0  0  0  0  0  0  0  0
    3.1265    1.0521   -0.1341 O   0  0  0  0  0  0  0  0  0  0  0  0
    4.2573    0.6902   -0.9198 C   0  0  2  0  0  0  0  0  0  0  0  0
    3.9738    0.8687   -1.9643 H   0  0  0  0  0  0  0  0  0  0  0  0
    4.4059   -0.7938   -0.6374 C   0  0  0  0  0  0  0  0  0  0  0  0
    3.1515   -1.2169   -0.1601 N   0  0  0  0  0  0  0  0  0  0  0  0
    2.9148   -2.5754    0.1856 C   0  0  0  0  0  0  0  0  0  0  0  0
    3.9038   -3.5586   -0.0349 C   0  0  0  0  0  0  0  0  0  0  0  0
    3.6414   -4.9203    0.1765 C   0  0  0  0  0  0  0  0  0  0  0  0
    2.4310   -5.3206    0.7423 C   0  0  0  0  0  0  0  0  0  0  0  0
    1.4977   -4.3458    1.0884 C   0  0  0  0  0  0  0  0  0  0  0  0
    1.7212   -2.9926    0.7732 C   0  0  0  0  0  0  0  0  0  0  0  0
    2.0730   -6.6785    0.6047 N   0  0  0  0  0  0  0  0  0  0  0  0
    0.9929   -6.9776   -0.3249 C   0  0  0  0  0  0  0  0  0  0  0  0
    1.2456   -8.3280   -0.9822 C   0  0  0  0  0  0  0  0  0  0  0  0
    1.3401   -9.3568    0.0098 O   0  0  0  0  0  0  0  0  0  0  0  0
    2.3646   -9.0515    0.9567 C   0  0  0  0  0  0  0  0  0  0  0  0
    2.2506   -7.6499    1.6024 C   0  0  0  0  0  0  0  0  0  0  0  0
    2.3919   -7.4460    2.8020 O   0  0  0  0  0  0  0  0  0  0  0  0
    5.5848    1.4372   -0.6727 C   0  0  0  0  0  0  0  0  0  0  0  0
    6.6865    0.5096   -0.9066 N   0  0  0  0  0  0  0  0  0  0  0  0
    8.0189    0.7080   -0.6928 C   0  0  0  0  0  0  0  0  0  0  0  0
    8.5082    1.7597   -0.3412 O   0  0  0  0  0  0  0  0  0  0  0  0
    8.7464   -0.5235   -0.9407 C   0  0  0  0  0  0  0  0  0  0  0  0
    9.3535   -1.3804   -0.0428 C   0  0  0  0  0  0  0  0  0  0  0  0
   10.0121   -2.4614   -0.7104 C   0  0  0  0  0  0  0  0  0  0  0  0
    9.8130   -2.4006   -2.0663 C   0  0  0  0  0  0  0  0  0  0  0  0
    8.8290   -1.1162   -2.5480 S   0  0  0  0  0  0  0  0  0  0  0  0
   10.4449   -3.4571   -3.2608 Cl  0  0  0  0  0  0  0  0  0  0  0  0
    5.1329   -1.0071    0.1553 H   0  0  0  0  0  0  0  0  0  0  0  0
    4.6677   -1.3208   -1.5623 H   0  0  0  0  0  0  0  0  0  0  0  0
    4.8944   -3.3063   -0.4048 H   0  0  0  0  0  0  0  0  0  0  0  0
    4.3610   -5.6603   -0.1699 H   0  0  0  0  0  0  0  0  0  0  0  0
    0.5705   -4.6325    1.5750 H   0  0  0  0  0  0  0  0  0  0  0  0
    0.9313   -2.2802    0.9904 H   0  0  0  0  0  0  0  0  0  0  0  0
    0.9263   -6.1979   -1.0904 H   0  0  0  0  0  0  0  0  0  0  0  0
    0.0596   -7.0051    0.2524 H   0  0  0  0  0  0  0  0  0  0  0  0
    2.1745   -8.3048   -1.5640 H   0  0  0  0  0  0  0  0  0  0  0  0
    0.4200   -8.5732   -1.6552 H   0  0  0  0  0  0  0  0  0  0  0  0
    3.3387   -9.0988    0.4496 H   0  0  0  0  0  0  0  0  0  0  0  0
    2.3661   -9.8288    1.7271 H   0  0  0  0  0  0  0  0  0  0  0  0
    5.7095    2.2563   -1.3923 H   0  0  0  0  0  0  0  0  0  0  0  0
    5.6695    1.8835    0.3251 H   0  0  0  0  0  0  0  0  0  0  0  0
    6.4928   -0.3866   -1.3270 H   0  0  0  0  0  0  0  0  0  0  0  0
    9.3561   -1.2248    1.0312 H   0  0  0  0  0  0  0  0  0  0  0  0
   10.6104   -3.2196   -0.2200 H   0  0  0  0  0  0  0  0  0  0  0  0
  1  2  2  0  0  0  0
  2  3  1  0  0  0  0
  2  7  1  0  0  0  0
  3  4  1  0  0  0  0
  4  6  1  0  0  0  0
  4 21  1  0  0  0  0
  4  5  1  6  0  0  0
  6  7  1  0  0  0  0
  6 31  1  0  0  0  0
  6 32  1  0  0  0  0
  7  8  1  0  0  0  0
  8  9  2  0  0  0  0
  8 13  1  0  0  0  0
  9 10  1  0  0  0  0
  9 33  1  0  0  0  0
 10 11  2  0  0  0  0
 10 34  1  0  0  0  0
 11 12  1  0  0  0  0
 11 14  1  0  0  0  0
 12 13  2  0  0  0  0
 12 35  1  0  0  0  0
 13 36  1  0  0  0  0
 14 15  1  0  0  0  0
 14 19  1  0  0  0  0
 15 16  1  0  0  0  0
 15 37  1  0  0  0  0
 15 38  1  0  0  0  0
 16 17  1  0  0  0  0
 16 39  1  0  0  0  0
 16 40  1  0  0  0  0
 17 18  1  0  0  0  0
 18 19  1  0  0  0  0
 18 41  1  0  0  0  0
 18 42  1  0  0  0  0
 19 20  2  0  0  0  0
 21 22  1  0  0  0  0
 21 43  1  0  0  0  0
 21 44  1  0  0  0  0
 22 23  1  0  0  0  0
 22 45  1  0  0  0  0
 23 24  2  0  0  0  0
 23 25  1  0  0  0  0
 25 26  2  0  0  0  0
 25 29  1  0  0  0  0
 26 27  1  0  0  0  0
 26 46  1  0  0  0  0
 27 28  2  0  0  0  0
 27 47  1  0  0  0  0
 28 29  1  0  0  0  0
 28 30  1  0  0  0  0
M  END
$$$$
