RJP
 OpenBabel04121316183D

 40 41  0  0  1  0  0  0  0  0999 V2000
    0.8773    0.1224    0.0083 O   0  0  0  0  0  0  0  0  0  0  0  0
    2.1056    0.0940    0.0756 C   0  0  0  0  0  0  0  0  0  0  0  0
    2.8335   -0.2826    1.1947 N   0  0  0  0  0  0  0  0  0  0  0  0
    2.1720   -0.7678    2.3213 C   0  0  0  0  0  0  0  0  0  0  0  0
    2.3113   -2.1040    2.6905 C   0  0  0  0  0  0  0  0  0  0  0  0
    1.5115   -2.5960    3.7184 C   0  0  0  0  0  0  0  0  0  0  0  0
    0.7218   -1.7199    4.4666 C   0  0  0  0  0  0  0  0  0  0  0  0
    0.7207   -0.3548    4.1830 C   0  0  0  0  0  0  0  0  0  0  0  0
    1.3911    0.1117    3.0625 C   0  0  0  0  0  0  0  0  0  0  0  0
    2.9160    0.4925   -1.1322 C   0  0  0  0  0  0  0  0  0  0  0  0
    4.4184    0.4160   -0.9203 C   0  0  0  0  0  0  0  0  0  0  0  0
    5.1294    0.8549   -2.1486 C   0  0  0  0  0  0  0  0  0  0  0  0
    5.1717    2.1417   -2.4978 C   0  0  0  0  0  0  0  0  0  0  0  0
    5.8312    2.6976   -3.7093 C   0  0  2  0  0  0  0  0  0  0  0  0
    4.7869    3.4185   -4.3623 O   0  0  0  0  0  0  0  0  0  0  0  0
    6.3205    1.6924   -4.7457 C   0  0  0  0  0  0  0  0  0  0  0  0
    6.4935    0.2640   -4.2632 C   0  0  2  0  0  0  0  0  0  0  0  0
    6.1032   -0.4016   -5.0456 H   0  0  0  0  0  0  0  0  0  0  0  0
    5.7796   -0.1727   -2.9886 C   0  0  0  0  0  0  0  0  0  0  0  0
    5.7535   -1.3522   -2.6364 O   0  0  0  0  0  0  0  0  0  0  0  0
    7.8959    0.0680   -4.1092 O   0  0  0  0  0  0  0  0  0  0  0  0
    6.9858    3.5808   -3.1286 C   0  0  0  0  0  0  0  0  0  0  0  0
    6.7965    4.6738   -2.5881 O   0  0  0  0  0  0  0  0  0  0  0  0
    8.2283    3.0387   -3.1441 O   0  0  0  0  0  0  0  0  0  0  0  0
    3.7839   -0.6050    1.0884 H   0  0  0  0  0  0  0  0  0  0  0  0
    2.9593   -2.7801    2.1401 H   0  0  0  0  0  0  0  0  0  0  0  0
    1.4912   -3.6612    3.9312 H   0  0  0  0  0  0  0  0  0  0  0  0
    0.1015   -2.1007    5.2721 H   0  0  0  0  0  0  0  0  0  0  0  0
    0.1819    0.3436    4.8146 H   0  0  0  0  0  0  0  0  0  0  0  0
    1.3307    1.1582    2.7776 H   0  0  0  0  0  0  0  0  0  0  0  0
    2.6175    1.5193   -1.3839 H   0  0  0  0  0  0  0  0  0  0  0  0
    2.6193   -0.1482   -1.9730 H   0  0  0  0  0  0  0  0  0  0  0  0
    4.7110   -0.6051   -0.6525 H   0  0  0  0  0  0  0  0  0  0  0  0
    4.7195    1.0526   -0.0773 H   0  0  0  0  0  0  0  0  0  0  0  0
    4.6838    2.8807   -1.8541 H   0  0  0  0  0  0  0  0  0  0  0  0
    4.0947    2.7788   -4.6166 H   0  0  0  0  0  0  0  0  0  0  0  0
    7.2664    2.0507   -5.1734 H   0  0  0  0  0  0  0  0  0  0  0  0
    5.6522    1.6786   -5.6142 H   0  0  0  0  0  0  0  0  0  0  0  0
    8.2868    0.0712   -5.0027 H   0  0  0  0  0  0  0  0  0  0  0  0
    8.3398    2.1186   -3.4624 H   0  0  0  0  0  0  0  0  0  0  0  0
  1  2  2  0  0  0  0
  2  3  1  0  0  0  0
  2 10  1  0  0  0  0
  3  4  1  0  0  0  0
  3 25  1  0  0  0  0
  4  5  2  0  0  0  0
  4  9  1  0  0  0  0
  5  6  1  0  0  0  0
  5 26  1  0  0  0  0
  6  7  2  0  0  0  0
  6 27  1  0  0  0  0
  7  8  1  0  0  0  0
  7 28  1  0  0  0  0
  8  9  2  0  0  0  0
  8 29  1  0  0  0  0
  9 30  1  0  0  0  0
 10 11  1  0  0  0  0
 10 31  1  0  0  0  0
 10 32  1  0  0  0  0
 11 12  1  0  0  0  0
 11 33  1  0  0  0  0
 11 34  1  0  0  0  0
 12 13  2  0  0  0  0
 12 19  1  0  0  0  0
 13 14  1  0  0  0  0
 13 35  1  0  0  0  0
 14 16  1  0  0  0  0
 14 22  1  1  0  0  0
 14 15  1  0  0  0  0
 15 36  1  0  0  0  0
 16 17  1  0  0  0  0
 16 37  1  0  0  0  0
 16 38  1  0  0  0  0
 17 18  1  6  0  0  0
 17 19  1  0  0  0  0
 17 21  1  0  0  0  0
 19 20  2  0  0  0  0
 21 39  1  0  0  0  0
 22 23  2  0  0  0  0
 22 24  1  0  0  0  0
 24 40  1  0  0  0  0
M  END
$$$$
