RLT
 OpenBabel04121316183D

 53 55  0  0  0  0  0  0  0  0999 V2000
    0.8516    0.1284    0.0584 F   0  0  0  0  0  0  0  0  0  0  0  0
    2.1878    0.1274   -0.0117 C   0  0  0  0  0  0  0  0  0  0  0  0
    2.8821    1.3312   -0.0235 C   0  0  0  0  0  0  0  0  0  0  0  0
    4.2624    1.3316   -0.2321 C   0  0  0  0  0  0  0  0  0  0  0  0
    4.9673    0.1220   -0.3119 C   0  0  0  0  0  0  0  0  0  0  0  0
    4.2474   -1.0753   -0.1372 C   0  0  0  0  0  0  0  0  0  0  0  0
    2.8596   -1.0790   -0.0667 C   0  0  0  0  0  0  0  0  0  0  0  0
    6.4466    0.1728   -0.6330 C   0  0  0  0  0  0  0  0  0  0  0  0
    7.0620   -1.1225   -0.6660 N   0  0  0  0  0  0  0  0  0  0  0  0
    8.3718   -1.3448   -0.9922 C   0  0  0  0  0  0  0  0  0  0  0  0
    9.1543   -0.4376   -1.2206 O   0  0  0  0  0  0  0  0  0  0  0  0
    8.7786   -2.8186   -1.0127 C   0  0  0  0  0  0  0  0  0  0  0  0
   10.1276   -3.0857   -1.0743 N   0  0  0  0  0  0  0  0  0  0  0  0
   10.5552   -4.3182   -1.0979 C   0  0  0  0  0  0  0  0  0  0  0  0
    9.6902   -5.3909   -1.0345 N   0  0  0  0  0  0  0  0  0  0  0  0
    8.3283   -5.1708   -0.9877 C   0  0  0  0  0  0  0  0  0  0  0  0
    7.4638   -6.0491   -0.9382 O   0  0  0  0  0  0  0  0  0  0  0  0
    7.8492   -3.7845   -0.9795 C   0  0  0  0  0  0  0  0  0  0  0  0
    6.4728   -3.6144   -0.9219 O   0  0  0  0  0  0  0  0  0  0  0  0
    9.9647   -6.8183   -1.0551 C   0  0  0  0  0  0  0  0  0  0  0  0
   12.1303   -4.4599   -1.2207 C   0  0  0  0  0  0  0  0  0  0  0  0
   12.5413   -3.7680   -2.4709 N   0  0  0  0  0  0  0  0  0  0  0  0
   12.0977   -4.2072   -3.7225 C   0  0  0  0  0  0  0  0  0  0  0  0
   11.3046   -5.1488   -3.7981 O   0  0  0  0  0  0  0  0  0  0  0  0
   12.6427   -3.5703   -4.9112 C   0  0  0  0  0  0  0  0  0  0  0  0
   12.6496   -2.2902   -5.2286 N   0  0  0  0  0  0  0  0  0  0  0  0
   13.1249   -2.2132   -6.5339 N   0  0  0  0  0  0  0  0  0  0  0  0
   13.4068   -3.4451   -6.9039 C   0  0  0  0  0  0  0  0  0  0  0  0
   13.1250   -4.3640   -5.9288 O   0  0  0  0  0  0  0  0  0  0  0  0
   13.9751   -3.9616   -8.1676 C   0  0  0  0  0  0  0  0  0  0  0  0
   12.7354   -3.7747    0.0274 C   0  0  0  0  0  0  0  0  0  0  0  0
   12.7197   -5.8626   -1.1975 C   0  0  0  0  0  0  0  0  0  0  0  0
    2.3426    2.2619    0.1085 H   0  0  0  0  0  0  0  0  0  0  0  0
    4.7872    2.2793   -0.3401 H   0  0  0  0  0  0  0  0  0  0  0  0
    4.7273   -2.0423   -0.0623 H   0  0  0  0  0  0  0  0  0  0  0  0
    2.3163   -2.0178   -0.0505 H   0  0  0  0  0  0  0  0  0  0  0  0
    6.9789    0.7768    0.1085 H   0  0  0  0  0  0  0  0  0  0  0  0
    6.5869    0.6301   -1.6207 H   0  0  0  0  0  0  0  0  0  0  0  0
    6.4799   -1.9436   -0.6168 H   0  0  0  0  0  0  0  0  0  0  0  0
    6.1051   -4.5284   -0.9329 H   0  0  0  0  0  0  0  0  0  0  0  0
   10.9766   -7.1633   -1.0838 H   0  0  0  0  0  0  0  0  0  0  0  0
    9.4883   -7.2496   -1.9398 H   0  0  0  0  0  0  0  0  0  0  0  0
    9.5533   -7.2563   -0.1406 H   0  0  0  0  0  0  0  0  0  0  0  0
   13.2333   -3.0290   -2.4228 H   0  0  0  0  0  0  0  0  0  0  0  0
   14.1146   -3.1628   -8.9029 H   0  0  0  0  0  0  0  0  0  0  0  0
   13.3182   -4.7167   -8.6113 H   0  0  0  0  0  0  0  0  0  0  0  0
   14.9505   -4.4258   -7.9880 H   0  0  0  0  0  0  0  0  0  0  0  0
   12.5255   -2.7028    0.0729 H   0  0  0  0  0  0  0  0  0  0  0  0
   13.8244   -3.9014    0.0554 H   0  0  0  0  0  0  0  0  0  0  0  0
   12.3322   -4.2289    0.9443 H   0  0  0  0  0  0  0  0  0  0  0  0
   12.3851   -6.4399   -2.0634 H   0  0  0  0  0  0  0  0  0  0  0  0
   12.4511   -6.3536   -0.2524 H   0  0  0  0  0  0  0  0  0  0  0  0
   13.8096   -5.8900   -1.2449 H   0  0  0  0  0  0  0  0  0  0  0  0
  1  2  1  0  0  0  0
  2  3  2  0  0  0  0
  2  7  1  0  0  0  0
  3  4  1  0  0  0  0
  3 33  1  0  0  0  0
  4  5  2  0  0  0  0
  4 34  1  0  0  0  0
  5  6  1  0  0  0  0
  5  8  1  0  0  0  0
  6  7  2  0  0  0  0
  6 35  1  0  0  0  0
  7 36  1  0  0  0  0
  8  9  1  0  0  0  0
  8 37  1  0  0  0  0
  8 38  1  0  0  0  0
  9 10  1  0  0  0  0
  9 39  1  0  0  0  0
 10 11  2  0  0  0  0
 10 12  1  0  0  0  0
 12 13  1  0  0  0  0
 12 18  2  0  0  0  0
 13 14  2  0  0  0  0
 14 15  1  0  0  0  0
 14 21  1  0  0  0  0
 15 16  1  0  0  0  0
 15 20  1  0  0  0  0
 16 17  2  0  0  0  0
 16 18  1  0  0  0  0
 18 19  1  0  0  0  0
 19 40  1  0  0  0  0
 20 41  1  0  0  0  0
 20 42  1  0  0  0  0
 20 43  1  0  0  0  0
 21 22  1  0  0  0  0
 21 31  1  0  0  0  0
 21 32  1  0  0  0  0
 22 23  1  0  0  0  0
 22 44  1  0  0  0  0
 23 24  2  0  0  0  0
 23 25  1  0  0  0  0
 25 26  2  0  0  0  0
 25 29  1  0  0  0  0
 26 27  1  0  0  0  0
 27 28  2  0  0  0  0
 28 29  1  0  0  0  0
 28 30  1  0  0  0  0
 30 45  1  0  0  0  0
 30 46  1  0  0  0  0
 30 47  1  0  0  0  0
 31 48  1  0  0  0  0
 31 49  1  0  0  0  0
 31 50  1  0  0  0  0
 32 51  1  0  0  0  0
 32 52  1  0  0  0  0
 32 53  1  0  0  0  0
M  END
$$$$
