RM2
 OpenBabel04121316183D

 27 28  0  0  1  0  0  0  0  0999 V2000
    0.8289   -0.1282   -0.0553 O   0  0  0  0  0  0  0  0  0  0  0  0
    2.1872   -0.0792    0.0249 C   0  0  0  0  0  0  0  0  0  0  0  0
    2.8525    1.1581    0.0137 C   0  0  0  0  0  0  0  0  0  0  0  0
    4.2512    1.2205    0.0646 C   0  0  0  0  0  0  0  0  0  0  0  0
    4.9871    0.0501    0.1573 C   0  0  0  0  0  0  0  0  0  0  0  0
    4.3086   -1.1663    0.1411 C   0  0  0  0  0  0  0  0  0  0  0  0
    2.9194   -1.2530    0.0727 C   0  0  0  0  0  0  0  0  0  0  0  0
    2.4756   -2.6826   -0.0357 C   0  0  0  0  0  0  0  0  0  0  0  0
    3.7976   -3.4856   -0.0608 C   0  0  0  0  0  0  0  0  0  0  0  0
    4.9695   -2.4915   -0.0790 C   0  0  1  0  0  0  0  0  0  0  0  0
    5.6466   -2.6858    0.7612 H   0  0  0  0  0  0  0  0  0  0  0  0
    5.7217   -2.6085   -1.3426 N   0  0  0  0  0  0  0  0  0  0  0  0
    5.4649   -1.7510   -2.2711 C   0  0  0  0  0  0  0  0  0  0  0  0
    6.1956   -1.7432   -3.5425 C   0  0  0  0  0  0  0  0  0  0  0  0
    5.9769   -0.7337   -4.3996 C   0  0  0  0  0  0  0  0  0  0  0  0
    0.4937    0.7843   -0.0354 H   0  0  0  0  0  0  0  0  0  0  0  0
    2.3038    2.0922   -0.0594 H   0  0  0  0  0  0  0  0  0  0  0  0
    4.7705    2.1723   -0.0093 H   0  0  0  0  0  0  0  0  0  0  0  0
    6.0729    0.0618    0.1132 H   0  0  0  0  0  0  0  0  0  0  0  0
    1.9113   -2.8727   -0.9552 H   0  0  0  0  0  0  0  0  0  0  0  0
    1.8658   -2.9820    0.8236 H   0  0  0  0  0  0  0  0  0  0  0  0
    3.8295   -4.1706   -0.9180 H   0  0  0  0  0  0  0  0  0  0  0  0
    3.8676   -4.1261    0.8292 H   0  0  0  0  0  0  0  0  0  0  0  0
    4.7038   -0.9571   -2.1893 H   0  0  0  0  0  0  0  0  0  0  0  0
    6.8805   -2.5551   -3.7284 H   0  0  0  0  0  0  0  0  0  0  0  0
    5.2954    0.0824   -4.1780 H   0  0  0  0  0  0  0  0  0  0  0  0
    6.4929   -0.7085   -5.3505 H   0  0  0  0  0  0  0  0  0  0  0  0
  1  2  1  0  0  0  0
  1 16  1  0  0  0  0
  2  3  2  0  0  0  0
  2  7  1  0  0  0  0
  3  4  1  0  0  0  0
  3 17  1  0  0  0  0
  4  5  2  0  0  0  0
  4 18  1  0  0  0  0
  5  6  1  0  0  0  0
  5 19  1  0  0  0  0
  6  7  2  0  0  0  0
  6 10  1  0  0  0  0
  7  8  1  0  0  0  0
  8  9  1  0  0  0  0
  8 20  1  0  0  0  0
  8 21  1  0  0  0  0
  9 10  1  0  0  0  0
  9 22  1  0  0  0  0
  9 23  1  0  0  0  0
 10 12  1  0  0  0  0
 10 11  1  1  0  0  0
 12 13  2  0  0  0  0
 13 14  1  0  0  0  0
 13 24  1  0  0  0  0
 14 15  2  0  0  0  0
 14 25  1  0  0  0  0
 15 26  1  0  0  0  0
 15 27  1  0  0  0  0
M  END
$$$$
