RMA
 OpenBabel04121316183D

 29 30  0  0  1  0  0  0  0  0999 V2000
    0.9289   -0.0689    0.0139 C   0  0  0  0  0  0  0  0  0  0  0  0
    2.1190   -0.0689    0.0139 C   0  0  0  0  0  0  0  0  0  0  0  0
    3.5630   -0.0689    0.0139 C   0  0  0  0  0  0  0  0  0  0  0  0
    4.0524   -1.4863    0.1917 N   0  0  0  0  0  0  0  0  0  0  0  0
    3.5501   -2.4702   -0.8384 C   0  0  2  0  0  0  0  0  0  0  0  0
    3.7795   -2.0846   -1.8417 H   0  0  0  0  0  0  0  0  0  0  0  0
    2.0046   -2.7380   -0.7467 C   0  0  0  0  0  0  0  0  0  0  0  0
    1.6646   -4.2025   -0.5815 C   0  0  0  0  0  0  0  0  0  0  0  0
    2.9949   -4.8316   -0.6085 C   0  0  0  0  0  0  0  0  0  0  0  0
    4.0468   -3.9153   -0.7514 C   0  0  0  0  0  0  0  0  0  0  0  0
    5.3306   -4.4266   -0.8761 C   0  0  0  0  0  0  0  0  0  0  0  0
    5.5476   -5.8096   -0.7487 C   0  0  0  0  0  0  0  0  0  0  0  0
    4.4771   -6.6912   -0.5560 C   0  0  0  0  0  0  0  0  0  0  0  0
    3.1876   -6.2017   -0.5010 C   0  0  0  0  0  0  0  0  0  0  0  0
    5.5140   -1.4149    0.2310 C   0  0  0  0  0  0  0  0  0  0  0  0
   -0.1366   -0.0702    0.0196 H   0  0  0  0  0  0  0  0  0  0  0  0
    3.9321    0.5549    0.8362 H   0  0  0  0  0  0  0  0  0  0  0  0
    3.9455    0.3434   -0.9275 H   0  0  0  0  0  0  0  0  0  0  0  0
    1.4843   -2.3162   -1.6177 H   0  0  0  0  0  0  0  0  0  0  0  0
    1.5676   -2.3107    0.1544 H   0  0  0  0  0  0  0  0  0  0  0  0
    1.0129   -4.5617   -1.3827 H   0  0  0  0  0  0  0  0  0  0  0  0
    1.1818   -4.3809    0.3871 H   0  0  0  0  0  0  0  0  0  0  0  0
    6.1861   -3.7851   -1.0631 H   0  0  0  0  0  0  0  0  0  0  0  0
    6.5560   -6.2064   -0.7969 H   0  0  0  0  0  0  0  0  0  0  0  0
    4.6504   -7.7591   -0.4578 H   0  0  0  0  0  0  0  0  0  0  0  0
    2.3350   -6.8625   -0.3690 H   0  0  0  0  0  0  0  0  0  0  0  0
    5.8482   -0.7167    1.0070 H   0  0  0  0  0  0  0  0  0  0  0  0
    5.9316   -1.0884   -0.7285 H   0  0  0  0  0  0  0  0  0  0  0  0
    5.9613   -2.3664    0.5183 H   0  0  0  0  0  0  0  0  0  0  0  0
  1  2  3  0  0  0  0
  1 16  1  0  0  0  0
  2  3  1  0  0  0  0
  3  4  1  0  0  0  0
  3 17  1  0  0  0  0
  3 18  1  0  0  0  0
  4  5  1  0  0  0  0
  4 15  1  0  0  0  0
  5  6  1  6  0  0  0
  5  7  1  0  0  0  0
  5 10  1  0  0  0  0
  7  8  1  0  0  0  0
  7 19  1  0  0  0  0
  7 20  1  0  0  0  0
  8  9  1  0  0  0  0
  8 21  1  0  0  0  0
  8 22  1  0  0  0  0
  9 10  2  0  0  0  0
  9 14  1  0  0  0  0
 10 11  1  0  0  0  0
 11 12  2  0  0  0  0
 11 23  1  0  0  0  0
 12 13  1  0  0  0  0
 12 24  1  0  0  0  0
 13 14  2  0  0  0  0
 13 25  1  0  0  0  0
 14 26  1  0  0  0  0
 15 27  1  0  0  0  0
 15 28  1  0  0  0  0
 15 29  1  0  0  0  0
M  END
$$$$
