RMB
 OpenBabel04121316183D

 40 42  0  0  1  0  0  0  0  0999 V2000
    2.7008    0.5060   -1.4265 O   0  0  0  0  0  0  0  0  0  0  0  0
    2.3058    0.1570   -0.0958 C   0  0  2  0  0  0  0  0  0  0  0  0
    1.2133    0.1109   -0.0782 H   0  0  0  0  0  0  0  0  0  0  0  0
    2.8573    1.2262    0.8223 C   0  0  2  0  0  0  0  0  0  0  0  0
    2.2249    1.2772    1.7141 H   0  0  0  0  0  0  0  0  0  0  0  0
    2.9280    2.5223    0.2422 O   0  0  0  0  0  0  0  0  0  0  0  0
    4.2429    0.6804    1.1309 C   0  0  2  0  0  0  0  0  0  0  0  0
    4.9447    0.8460    0.3030 H   0  0  0  0  0  0  0  0  0  0  0  0
    4.1173   -0.7435    1.2435 O   0  0  0  0  0  0  0  0  0  0  0  0
    2.9309   -1.1276    0.5058 C   0  0  2  0  0  0  0  0  0  0  0  0
    2.2457   -1.5309    1.2623 H   0  0  0  0  0  0  0  0  0  0  0  0
    3.2548   -2.1998   -0.4224 N   0  0  0  0  0  0  0  0  0  0  0  0
    3.7885   -2.0757   -1.6752 C   0  0  0  0  0  0  0  0  0  0  0  0
    3.7768   -3.2121   -2.3425 N   0  0  0  0  0  0  0  0  0  0  0  0
    3.3043   -4.1237   -1.4545 C   0  0  0  0  0  0  0  0  0  0  0  0
    3.0016   -3.5411   -0.2232 C   0  0  0  0  0  0  0  0  0  0  0  0
    2.5443   -4.2897    0.8626 C   0  0  0  0  0  0  0  0  0  0  0  0
    2.3883   -5.6678    0.6611 C   0  0  0  0  0  0  0  0  0  0  0  0
    2.6680   -6.2711   -0.5731 C   0  0  0  0  0  0  0  0  0  0  0  0
    3.1223   -5.4964   -1.6458 C   0  0  0  0  0  0  0  0  0  0  0  0
    2.5052   -7.7466   -0.7672 C   0  0  0  0  0  0  0  0  0  0  0  0
    4.8434    1.3412    2.3537 C   0  0  0  0  0  0  0  0  0  0  0  0
    3.8378    1.7311    3.3052 O   0  0  0  0  0  0  0  0  0  0  0  0
    4.4614    2.5332    4.7054 P   0  0  0  0  0  0  0  0  0  0  0  0
    5.7765    2.9317    4.0421 O   0  0  0  0  0  0  0  0  0  0  0  0
    3.3714    3.7140    4.4858 O   0  0  0  0  0  0  0  0  0  0  0  0
    5.0849    3.3352    6.1057 O   0  0  0  0  0  0  0  0  0  0  0  0
    3.6702    0.5609   -1.4634 H   0  0  0  0  0  0  0  0  0  0  0  0
    3.2429    2.4273   -0.6764 H   0  0  0  0  0  0  0  0  0  0  0  0
    4.1566   -1.1689   -2.1102 H   0  0  0  0  0  0  0  0  0  0  0  0
    2.3321   -3.8452    1.8293 H   0  0  0  0  0  0  0  0  0  0  0  0
    2.0420   -6.2792    1.4917 H   0  0  0  0  0  0  0  0  0  0  0  0
    3.3516   -5.9282   -2.6138 H   0  0  0  0  0  0  0  0  0  0  0  0
    2.1551   -8.2294    0.1493 H   0  0  0  0  0  0  0  0  0  0  0  0
    3.4661   -8.1934   -1.0422 H   0  0  0  0  0  0  0  0  0  0  0  0
    1.7744   -7.9408   -1.5583 H   0  0  0  0  0  0  0  0  0  0  0  0
    5.5738    0.6899    2.8454 H   0  0  0  0  0  0  0  0  0  0  0  0
    5.3324    2.2520    1.9887 H   0  0  0  0  0  0  0  0  0  0  0  0
    2.9715    3.6426    3.6001 H   0  0  0  0  0  0  0  0  0  0  0  0
    6.0518    3.2075    6.0716 H   0  0  0  0  0  0  0  0  0  0  0  0
  1 28  1  0  0  0  0
  2  4  1  0  0  0  0
  2 10  1  0  0  0  0
  2  3  1  1  0  0  0
  2  1  1  0  0  0  0
  4  7  1  0  0  0  0
  4  6  1  0  0  0  0
  4  5  1  1  0  0  0
  6 29  1  0  0  0  0
  7  9  1  0  0  0  0
  7 22  1  0  0  0  0
  7  8  1  6  0  0  0
  9 10  1  0  0  0  0
 10 11  1  1  0  0  0
 10 12  1  0  0  0  0
 12 13  1  0  0  0  0
 12 16  1  0  0  0  0
 13 14  2  0  0  0  0
 13 30  1  0  0  0  0
 14 15  1  0  0  0  0
 15 16  2  0  0  0  0
 15 20  1  0  0  0  0
 16 17  1  0  0  0  0
 17 18  2  0  0  0  0
 17 31  1  0  0  0  0
 18 19  1  0  0  0  0
 18 32  1  0  0  0  0
 19 20  2  0  0  0  0
 19 21  1  0  0  0  0
 20 33  1  0  0  0  0
 21 34  1  0  0  0  0
 21 35  1  0  0  0  0
 21 36  1  0  0  0  0
 22 23  1  0  0  0  0
 22 37  1  0  0  0  0
 22 38  1  0  0  0  0
 23 24  1  0  0  0  0
 24 25  2  0  0  0  0
 24 26  1  0  0  0  0
 24 27  1  0  0  0  0
 26 39  1  0  0  0  0
 27 40  1  0  0  0  0
M  END
$$$$
