RMC
 OpenBabel04121316183D

 55 57  0  0  1  0  0  0  0  0999 V2000
    0.9589   -0.0337   -0.3644 C   0  0  0  0  0  0  0  0  0  0  0  0
    2.4497    0.0390   -0.1055 C   0  0  0  0  0  0  0  0  0  0  0  0
    2.8903    1.2546    0.7439 C   0  0  1  0  0  0  0  0  0  0  0  0
    2.5086    2.1927    0.3112 H   0  0  0  0  0  0  0  0  0  0  0  0
    2.4929    1.0663    2.1535 N   0  0  0  0  0  0  0  0  0  0  0  0
    1.1475    1.2487    2.4844 C   0  0  0  0  0  0  0  0  0  0  0  0
    0.5642    2.4517    2.3364 N   0  0  0  0  0  0  0  0  0  0  0  0
   -0.8176    2.5368    2.2960 C   0  0  0  0  0  0  0  0  0  0  0  0
   -1.4380    3.7436    2.6216 N   0  0  0  0  0  0  0  0  0  0  0  0
   -2.8280    3.9533    3.1002 C   0  0  0  0  0  0  0  0  0  0  0  0
   -3.6148    2.7829    3.6481 C   0  0  0  0  0  0  0  0  0  0  0  0
   -3.0144    1.7699    4.4043 C   0  0  0  0  0  0  0  0  0  0  0  0
   -3.6394    0.5249    4.4929 C   0  0  0  0  0  0  0  0  0  0  0  0
   -4.9081    0.3356    3.9385 C   0  0  0  0  0  0  0  0  0  0  0  0
   -5.6132    1.4196    3.4312 C   0  0  0  0  0  0  0  0  0  0  0  0
   -4.9677    2.6455    3.2887 C   0  0  0  0  0  0  0  0  0  0  0  0
   -0.6375    4.9627    2.5742 C   0  0  0  0  0  0  0  0  0  0  0  0
   -1.4542    1.2935    2.0131 C   0  0  0  0  0  0  0  0  0  0  0  0
   -0.7903    0.1483    2.4366 C   0  0  0  0  0  0  0  0  0  0  0  0
    0.5140    0.1058    2.7942 N   0  0  0  0  0  0  0  0  0  0  0  0
   -1.7013   -0.8863    2.3563 N   0  0  0  0  0  0  0  0  0  0  0  0
   -2.8247   -0.3218    1.8009 C   0  0  0  0  0  0  0  0  0  0  0  0
   -2.6969    0.9486    1.5222 N   0  0  0  0  0  0  0  0  0  0  0  0
   -1.6193   -2.3043    2.7251 C   0  0  0  0  0  0  0  0  0  0  0  0
   -0.6990   -2.6125    3.9077 C   0  0  0  0  0  0  0  0  0  0  0  0
   -2.9892   -2.9731    3.0541 C   0  0  0  0  0  0  0  0  0  0  0  0
    4.4435    1.3013    0.6964 C   0  0  0  0  0  0  0  0  0  0  0  0
    4.9589    2.4557    1.3583 O   0  0  0  0  0  0  0  0  0  0  0  0
    0.6819   -0.8843   -0.9877 H   0  0  0  0  0  0  0  0  0  0  0  0
    0.5592    0.8952   -0.7782 H   0  0  0  0  0  0  0  0  0  0  0  0
    0.4497   -0.2381    0.5538 H   0  0  0  0  0  0  0  0  0  0  0  0
    2.9441    0.0555   -1.0826 H   0  0  0  0  0  0  0  0  0  0  0  0
    2.7666   -0.8809    0.4031 H   0  0  0  0  0  0  0  0  0  0  0  0
    3.1072    1.5016    2.8266 H   0  0  0  0  0  0  0  0  0  0  0  0
   -3.3831    4.4083    2.2689 H   0  0  0  0  0  0  0  0  0  0  0  0
   -2.8279    4.7019    3.9059 H   0  0  0  0  0  0  0  0  0  0  0  0
   -1.9630    1.8481    4.6813 H   0  0  0  0  0  0  0  0  0  0  0  0
   -3.0306   -0.3315    4.7757 H   0  0  0  0  0  0  0  0  0  0  0  0
   -5.2905   -0.6669    3.7610 H   0  0  0  0  0  0  0  0  0  0  0  0
   -6.6137    1.2780    3.0342 H   0  0  0  0  0  0  0  0  0  0  0  0
   -5.4875    3.4546    2.7822 H   0  0  0  0  0  0  0  0  0  0  0  0
    0.4296    4.8072    2.3956 H   0  0  0  0  0  0  0  0  0  0  0  0
   -0.7217    5.5221    3.5153 H   0  0  0  0  0  0  0  0  0  0  0  0
   -1.0137    5.6110    1.7747 H   0  0  0  0  0  0  0  0  0  0  0  0
   -3.7688   -0.8509    1.7835 H   0  0  0  0  0  0  0  0  0  0  0  0
   -1.2265   -2.8028    1.8294 H   0  0  0  0  0  0  0  0  0  0  0  0
   -1.1255   -2.2436    4.8474 H   0  0  0  0  0  0  0  0  0  0  0  0
    0.2952   -2.1813    3.7893 H   0  0  0  0  0  0  0  0  0  0  0  0
   -0.5721   -3.6979    4.0068 H   0  0  0  0  0  0  0  0  0  0  0  0
   -3.3961   -2.6138    4.0076 H   0  0  0  0  0  0  0  0  0  0  0  0
   -2.8857   -4.0614    3.1378 H   0  0  0  0  0  0  0  0  0  0  0  0
   -3.7541   -2.8104    2.2890 H   0  0  0  0  0  0  0  0  0  0  0  0
    4.8163    1.3082   -0.3349 H   0  0  0  0  0  0  0  0  0  0  0  0
    4.8644    0.4218    1.1965 H   0  0  0  0  0  0  0  0  0  0  0  0
    4.5828    3.2368    0.9168 H   0  0  0  0  0  0  0  0  0  0  0  0
  1  2  1  0  0  0  0
  1 29  1  0  0  0  0
  1 30  1  0  0  0  0
  1 31  1  0  0  0  0
  2  3  1  0  0  0  0
  2 32  1  0  0  0  0
  2 33  1  0  0  0  0
  3  4  1  6  0  0  0
  3  5  1  0  0  0  0
  3 27  1  0  0  0  0
  5  6  1  0  0  0  0
  5 34  1  0  0  0  0
  6  7  2  0  0  0  0
  6 20  1  0  0  0  0
  7  8  1  0  0  0  0
  8  9  1  0  0  0  0
  8 18  2  0  0  0  0
  9 10  1  0  0  0  0
  9 17  1  0  0  0  0
 10 11  1  0  0  0  0
 10 35  1  0  0  0  0
 10 36  1  0  0  0  0
 11 12  2  0  0  0  0
 11 16  1  0  0  0  0
 12 13  1  0  0  0  0
 12 37  1  0  0  0  0
 13 14  2  0  0  0  0
 13 38  1  0  0  0  0
 14 15  1  0  0  0  0
 14 39  1  0  0  0  0
 15 16  2  0  0  0  0
 15 40  1  0  0  0  0
 16 41  1  0  0  0  0
 17 42  1  0  0  0  0
 17 43  1  0  0  0  0
 17 44  1  0  0  0  0
 18 19  1  0  0  0  0
 18 23  1  0  0  0  0
 19 20  2  0  0  0  0
 19 21  1  0  0  0  0
 21 22  1  0  0  0  0
 21 24  1  0  0  0  0
 22 23  2  0  0  0  0
 22 45  1  0  0  0  0
 24 25  1  0  0  0  0
 24 26  1  0  0  0  0
 24 46  1  0  0  0  0
 25 47  1  0  0  0  0
 25 48  1  0  0  0  0
 25 49  1  0  0  0  0
 26 50  1  0  0  0  0
 26 51  1  0  0  0  0
 26 52  1  0  0  0  0
 27 28  1  0  0  0  0
 27 53  1  0  0  0  0
 27 54  1  0  0  0  0
 28 55  1  0  0  0  0
M  END
$$$$
