RNP
 OpenBabel04121316183D

 38 39  0  0  1  0  0  0  0  0999 V2000
    1.0535    0.0169    0.0096 O   0  0  0  0  0  0  0  0  0  0  0  0
    2.4780    0.0346    0.0415 C   0  0  1  0  0  0  0  0  0  0  0  0
    2.8214    0.8182   -0.6410 H   0  0  0  0  0  0  0  0  0  0  0  0
    2.9782    0.2703    1.4599 C   0  0  0  0  0  0  0  0  0  0  0  0
    2.4927    1.5434    1.8740 O   0  0  0  0  0  0  0  0  0  0  0  0
    2.7856    1.9184    3.1615 C   0  0  0  0  0  0  0  0  0  0  0  0
    3.2864    1.0521    4.1380 C   0  0  0  0  0  0  0  0  0  0  0  0
    3.5110    1.5076    5.4350 C   0  0  0  0  0  0  0  0  0  0  0  0
    3.2577    2.8358    5.7579 C   0  0  0  0  0  0  0  0  0  0  0  0
    2.8250    3.7369    4.7788 C   0  0  0  0  0  0  0  0  0  0  0  0
    2.5661    3.2770    3.4630 C   0  0  0  0  0  0  0  0  0  0  0  0
    2.1474    4.2101    2.4956 C   0  0  0  0  0  0  0  0  0  0  0  0
    2.1559    5.5742    2.7680 C   0  0  0  0  0  0  0  0  0  0  0  0
    2.4860    6.0193    4.0436 C   0  0  0  0  0  0  0  0  0  0  0  0
    2.7066    5.0996    5.0658 C   0  0  0  0  0  0  0  0  0  0  0  0
    3.0056   -1.3000   -0.4067 C   0  0  0  0  0  0  0  0  0  0  0  0
    4.2772   -1.4764   -0.5149 N   0  0  0  0  0  0  0  0  0  0  0  0
    4.7027   -2.8077   -0.9475 C   0  0  0  0  0  0  0  0  0  0  0  0
    4.2120   -3.0832   -2.3649 C   0  0  0  0  0  0  0  0  0  0  0  0
    6.2296   -2.8106   -0.9159 C   0  0  0  0  0  0  0  0  0  0  0  0
    0.7736    0.8559    0.4248 H   0  0  0  0  0  0  0  0  0  0  0  0
    4.0754    0.2647    1.4945 H   0  0  0  0  0  0  0  0  0  0  0  0
    2.5748   -0.5170    2.1076 H   0  0  0  0  0  0  0  0  0  0  0  0
    3.5158    0.0137    3.9285 H   0  0  0  0  0  0  0  0  0  0  0  0
    3.8983    0.8259    6.1867 H   0  0  0  0  0  0  0  0  0  0  0  0
    3.4564    3.1773    6.7723 H   0  0  0  0  0  0  0  0  0  0  0  0
    1.8703    3.8779    1.4959 H   0  0  0  0  0  0  0  0  0  0  0  0
    1.9186    6.2851    1.9827 H   0  0  0  0  0  0  0  0  0  0  0  0
    2.5821    7.0821    4.2415 H   0  0  0  0  0  0  0  0  0  0  0  0
    2.8381    5.4612    6.0837 H   0  0  0  0  0  0  0  0  0  0  0  0
    2.2623   -2.0887   -0.6138 H   0  0  0  0  0  0  0  0  0  0  0  0
    4.3323   -3.5742   -0.2546 H   0  0  0  0  0  0  0  0  0  0  0  0
    4.5513   -2.3010   -3.0527 H   0  0  0  0  0  0  0  0  0  0  0  0
    3.1186   -3.1074   -2.4130 H   0  0  0  0  0  0  0  0  0  0  0  0
    4.5793   -4.0487   -2.7226 H   0  0  0  0  0  0  0  0  0  0  0  0
    6.6353   -2.0296   -1.5700 H   0  0  0  0  0  0  0  0  0  0  0  0
    6.6275   -3.7747   -1.2464 H   0  0  0  0  0  0  0  0  0  0  0  0
    6.6014   -2.6129    0.0955 H   0  0  0  0  0  0  0  0  0  0  0  0
  1  2  1  0  0  0  0
  1 21  1  0  0  0  0
  2  3  1  6  0  0  0
  2  4  1  0  0  0  0
  2 16  1  0  0  0  0
  4  5  1  0  0  0  0
  4 22  1  0  0  0  0
  4 23  1  0  0  0  0
  5  6  1  0  0  0  0
  6  7  2  0  0  0  0
  6 11  1  0  0  0  0
  7  8  1  0  0  0  0
  7 24  1  0  0  0  0
  8  9  2  0  0  0  0
  8 25  1  0  0  0  0
  9 10  1  0  0  0  0
  9 26  1  0  0  0  0
 10 11  2  0  0  0  0
 10 15  1  0  0  0  0
 11 12  1  0  0  0  0
 12 13  2  0  0  0  0
 12 27  1  0  0  0  0
 13 14  1  0  0  0  0
 13 28  1  0  0  0  0
 14 15  2  0  0  0  0
 14 29  1  0  0  0  0
 15 30  1  0  0  0  0
 16 17  2  0  0  0  0
 16 31  1  0  0  0  0
 17 18  1  0  0  0  0
 18 19  1  0  0  0  0
 18 20  1  0  0  0  0
 18 32  1  0  0  0  0
 19 33  1  0  0  0  0
 19 34  1  0  0  0  0
 19 35  1  0  0  0  0
 20 36  1  0  0  0  0
 20 37  1  0  0  0  0
 20 38  1  0  0  0  0
M  END
$$$$
