RNR
 OpenBabel04121316183D

 67 71  0  0  1  0  0  0  0  0999 V2000
    2.8345    0.1015   -1.2290 F   0  0  0  0  0  0  0  0  0  0  0  0
    2.3640   -0.0160    0.0448 C   0  0  2  0  0  0  0  0  0  0  0  0
    1.2731   -0.0150    0.0079 H   0  0  0  0  0  0  0  0  0  0  0  0
    2.9466    1.0892    0.8889 C   0  0  0  0  0  0  0  0  0  0  0  0
    4.3225    0.5536    1.2365 C   0  0  0  0  0  0  0  0  0  0  0  0
    4.1160   -0.8936    1.4401 N   0  0  0  0  0  0  0  0  0  0  0  0
    2.9266   -1.2823    0.6564 C   0  0  0  0  0  0  0  0  0  0  0  0
    5.2950   -1.6377    0.9988 C   0  0  0  0  0  0  0  0  0  0  0  0
    5.1659   -3.1545    1.2300 C   0  0  0  0  0  0  0  0  0  0  0  0
    6.4043   -3.7725    0.6592 C   0  0  0  0  0  0  0  0  0  0  0  0
    7.2355   -3.0454    0.1173 O   0  0  0  0  0  0  0  0  0  0  0  0
    6.4830   -5.1512    0.7641 N   0  0  0  0  0  0  0  0  0  0  0  0
    7.5868   -5.8919    0.2844 C   0  0  0  0  0  0  0  0  0  0  0  0
    8.7388   -5.2401   -0.1626 C   0  0  0  0  0  0  0  0  0  0  0  0
    9.8041   -5.9292   -0.6757 C   0  0  0  0  0  0  0  0  0  0  0  0
    9.7320   -7.3003   -0.7093 C   0  0  0  0  0  0  0  0  0  0  0  0
    8.6120   -8.0305   -0.2480 C   0  0  0  0  0  0  0  0  0  0  0  0
    7.5393   -7.2929    0.2499 C   0  0  0  0  0  0  0  0  0  0  0  0
    8.5855   -9.3830   -0.2914 N   0  0  0  0  0  0  0  0  0  0  0  0
    9.6627  -10.0330   -0.7861 C   0  0  0  0  0  0  0  0  0  0  0  0
   10.7898   -9.3147   -1.2494 C   0  0  0  0  0  0  0  0  0  0  0  0
   10.8236   -7.9487   -1.2130 C   0  0  0  0  0  0  0  0  0  0  0  0
   11.9074   -9.9204   -1.7568 C   0  0  0  0  0  0  0  0  0  0  0  0
   11.9276  -11.2848   -1.8172 C   0  0  0  0  0  0  0  0  0  0  0  0
   10.8565  -12.0678   -1.3826 C   0  0  0  0  0  0  0  0  0  0  0  0
    9.7206  -11.4283   -0.8646 C   0  0  0  0  0  0  0  0  0  0  0  0
   10.9293  -13.4779   -1.4701 N   0  0  0  0  0  0  0  0  0  0  0  0
   12.0333  -14.1401   -1.9807 C   0  0  0  0  0  0  0  0  0  0  0  0
   13.0662  -13.6162   -2.4072 O   0  0  0  0  0  0  0  0  0  0  0  0
   11.9369  -15.6257   -2.0083 C   0  0  0  0  0  0  0  0  0  0  0  0
   13.2443  -16.1555   -2.6224 C   0  0  0  0  0  0  0  0  0  0  0  0
   13.4291  -17.6030   -2.6054 N   0  0  0  0  0  0  0  0  0  0  0  0
   14.2204  -17.9918   -1.4394 C   0  0  0  0  0  0  0  0  0  0  0  0
   14.0261  -19.4876   -1.3838 C   0  0  0  0  0  0  0  0  0  0  0  0
   12.5840  -19.6763   -1.8083 C   0  0  2  0  0  0  0  0  0  0  0  0
   12.4305  -20.5919   -2.3828 H   0  0  0  0  0  0  0  0  0  0  0  0
   12.2106  -18.4188   -2.5846 C   0  0  0  0  0  0  0  0  0  0  0  0
   11.8085  -19.7370   -0.6873 F   0  0  0  0  0  0  0  0  0  0  0  0
    2.3541    1.2208    1.8003 H   0  0  0  0  0  0  0  0  0  0  0  0
    3.0033    2.0377    0.3488 H   0  0  0  0  0  0  0  0  0  0  0  0
    4.7155    1.0232    2.1450 H   0  0  0  0  0  0  0  0  0  0  0  0
    5.0223    0.7716    0.4177 H   0  0  0  0  0  0  0  0  0  0  0  0
    2.2154   -1.7241    1.3612 H   0  0  0  0  0  0  0  0  0  0  0  0
    3.1285   -2.0127   -0.1345 H   0  0  0  0  0  0  0  0  0  0  0  0
    6.1817   -1.2721    1.5382 H   0  0  0  0  0  0  0  0  0  0  0  0
    5.4813   -1.4370   -0.0691 H   0  0  0  0  0  0  0  0  0  0  0  0
    4.3098   -3.5828    0.7000 H   0  0  0  0  0  0  0  0  0  0  0  0
    5.0840   -3.3836    2.2960 H   0  0  0  0  0  0  0  0  0  0  0  0
    5.6912   -5.6660    1.1323 H   0  0  0  0  0  0  0  0  0  0  0  0
    8.8805   -4.1701   -0.1328 H   0  0  0  0  0  0  0  0  0  0  0  0
   10.6667   -5.3725   -1.0303 H   0  0  0  0  0  0  0  0  0  0  0  0
    6.6663   -7.8379    0.5978 H   0  0  0  0  0  0  0  0  0  0  0  0
   11.6914   -7.3981   -1.5682 H   0  0  0  0  0  0  0  0  0  0  0  0
   12.7741   -9.3717   -2.1116 H   0  0  0  0  0  0  0  0  0  0  0  0
   12.8438  -11.6731   -2.2298 H   0  0  0  0  0  0  0  0  0  0  0  0
    8.8612  -11.9938   -0.5131 H   0  0  0  0  0  0  0  0  0  0  0  0
   10.1330  -14.0171   -1.1462 H   0  0  0  0  0  0  0  0  0  0  0  0
   11.0778  -15.9012   -2.6278 H   0  0  0  0  0  0  0  0  0  0  0  0
   11.8093  -15.9886   -0.9831 H   0  0  0  0  0  0  0  0  0  0  0  0
   14.1014  -15.6917   -2.1052 H   0  0  0  0  0  0  0  0  0  0  0  0
   13.3386  -15.7982   -3.6575 H   0  0  0  0  0  0  0  0  0  0  0  0
   13.8475  -17.5151   -0.5246 H   0  0  0  0  0  0  0  0  0  0  0  0
   15.2754  -17.7243   -1.5697 H   0  0  0  0  0  0  0  0  0  0  0  0
   14.2222  -19.8688   -0.3788 H   0  0  0  0  0  0  0  0  0  0  0  0
   14.6970  -19.9770   -2.0978 H   0  0  0  0  0  0  0  0  0  0  0  0
   11.3593  -17.9595   -2.0744 H   0  0  0  0  0  0  0  0  0  0  0  0
   11.8982  -18.6506   -3.6076 H   0  0  0  0  0  0  0  0  0  0  0  0
  2  4  1  0  0  0  0
  2  7  1  0  0  0  0
  2  3  1  1  0  0  0
  2  1  1  0  0  0  0
  4  5  1  0  0  0  0
  4 39  1  0  0  0  0
  4 40  1  0  0  0  0
  5  6  1  0  0  0  0
  5 41  1  0  0  0  0
  5 42  1  0  0  0  0
  6  7  1  0  0  0  0
  6  8  1  0  0  0  0
  7 43  1  0  0  0  0
  7 44  1  0  0  0  0
  8  9  1  0  0  0  0
  8 45  1  0  0  0  0
  8 46  1  0  0  0  0
  9 10  1  0  0  0  0
  9 47  1  0  0  0  0
  9 48  1  0  0  0  0
 10 11  2  0  0  0  0
 10 12  1  0  0  0  0
 12 13  1  0  0  0  0
 12 49  1  0  0  0  0
 13 14  2  0  0  0  0
 13 18  1  0  0  0  0
 14 15  1  0  0  0  0
 14 50  1  0  0  0  0
 15 16  2  0  0  0  0
 15 51  1  0  0  0  0
 16 17  1  0  0  0  0
 16 22  1  0  0  0  0
 17 18  2  0  0  0  0
 17 19  1  0  0  0  0
 18 52  1  0  0  0  0
 19 20  2  0  0  0  0
 20 21  1  0  0  0  0
 20 26  1  0  0  0  0
 21 22  2  0  0  0  0
 21 23  1  0  0  0  0
 22 53  1  0  0  0  0
 23 24  2  0  0  0  0
 23 54  1  0  0  0  0
 24 25  1  0  0  0  0
 24 55  1  0  0  0  0
 25 26  2  0  0  0  0
 25 27  1  0  0  0  0
 26 56  1  0  0  0  0
 27 28  1  0  0  0  0
 27 57  1  0  0  0  0
 28 29  2  0  0  0  0
 28 30  1  0  0  0  0
 30 31  1  0  0  0  0
 30 58  1  0  0  0  0
 30 59  1  0  0  0  0
 31 32  1  0  0  0  0
 31 60  1  0  0  0  0
 31 61  1  0  0  0  0
 32 33  1  0  0  0  0
 32 37  1  0  0  0  0
 33 34  1  0  0  0  0
 33 62  1  0  0  0  0
 33 63  1  0  0  0  0
 34 35  1  0  0  0  0
 34 64  1  0  0  0  0
 34 65  1  0  0  0  0
 35 37  1  0  0  0  0
 35 38  1  0  0  0  0
 35 36  1  6  0  0  0
 37 66  1  0  0  0  0
 37 67  1  0  0  0  0
M  END
$$$$
