RNS
 OpenBabel04121316183D

 23 22  0  0  1  0  0  0  0  0999 V2000
    3.8316   -5.7715    1.3661 O   0  0  0  0  0  0  0  0  0  0  0  0
    3.2721   -4.6731    1.4193 C   0  0  0  0  0  0  0  0  0  0  0  0
    3.4884   -3.5711    0.4009 C   0  0  1  0  0  0  0  0  0  0  0  0
    4.5204   -3.2164    0.4825 H   0  0  0  0  0  0  0  0  0  0  0  0
    3.1771   -4.1213   -0.9988 C   0  0  1  0  0  0  0  0  0  0  0  0
    2.1176   -4.4010   -1.0230 H   0  0  0  0  0  0  0  0  0  0  0  0
    3.4640   -3.0481   -2.0740 C   0  0  2  0  0  0  0  0  0  0  0  0
    2.9254   -2.1239   -1.8313 H   0  0  0  0  0  0  0  0  0  0  0  0
    3.0623   -3.4860   -3.5019 C   0  0  1  0  0  0  0  0  0  0  0  0
    3.3212   -2.6833   -4.1995 H   0  0  0  0  0  0  0  0  0  0  0  0
    3.7876   -4.6227   -3.9654 O   0  0  0  0  0  0  0  0  0  0  0  0
    1.5705   -3.7752   -3.5931 C   0  0  0  0  0  0  0  0  0  0  0  0
    4.8703   -2.7334   -2.0467 O   0  0  0  0  0  0  0  0  0  0  0  0
    3.9490   -5.2892   -1.3069 O   0  0  0  0  0  0  0  0  0  0  0  0
    2.5985   -2.4901    0.7013 O   0  0  0  0  0  0  0  0  0  0  0  0
    2.5555   -4.4553    2.2246 H   0  0  0  0  0  0  0  0  0  0  0  0
    4.6575   -4.6003   -3.5182 H   0  0  0  0  0  0  0  0  0  0  0  0
    0.9909   -2.8838   -3.3336 H   0  0  0  0  0  0  0  0  0  0  0  0
    1.2685   -4.5875   -2.9238 H   0  0  0  0  0  0  0  0  0  0  0  0
    1.2977   -4.1044   -4.5986 H   0  0  0  0  0  0  0  0  0  0  0  0
    5.0401   -2.0527   -2.7188 H   0  0  0  0  0  0  0  0  0  0  0  0
    3.7868   -5.9605   -0.6146 H   0  0  0  0  0  0  0  0  0  0  0  0
    2.9114   -2.0681    1.5214 H   0  0  0  0  0  0  0  0  0  0  0  0
  1  2  2  0  0  0  0
  2  3  1  0  0  0  0
  2 16  1  0  0  0  0
  3  4  1  1  0  0  0
  3  5  1  0  0  0  0
  3 15  1  0  0  0  0
  5  6  1  6  0  0  0
  5 14  1  0  0  0  0
  7  9  1  0  0  0  0
  7 13  1  0  0  0  0
  7  8  1  1  0  0  0
  7  5  1  0  0  0  0
  9 10  1  6  0  0  0
  9 11  1  0  0  0  0
  9 12  1  0  0  0  0
 11 17  1  0  0  0  0
 12 18  1  0  0  0  0
 12 19  1  0  0  0  0
 12 20  1  0  0  0  0
 13 21  1  0  0  0  0
 14 22  1  0  0  0  0
 15 23  1  0  0  0  0
M  END
$$$$
