RO6
 OpenBabel04121316183D

 46 49  0  0  1  0  0  0  0  0999 V2000
    2.9550    0.2783    1.3168 O   0  0  0  0  0  0  0  0  0  0  0  0
    2.4915   -0.0701    0.0188 C   0  0  2  0  0  0  0  0  0  0  0  0
    1.3960   -0.0660    0.0554 H   0  0  0  0  0  0  0  0  0  0  0  0
    2.9809   -1.4702   -0.3481 C   0  0  0  0  0  0  0  0  0  0  0  0
    2.5346   -1.8475   -1.7592 C   0  0  0  0  0  0  0  0  0  0  0  0
    3.0504   -0.8241   -2.7772 C   0  0  2  0  0  0  0  0  0  0  0  0
    4.1438   -0.7670   -2.6860 H   0  0  0  0  0  0  0  0  0  0  0  0
    2.5396    0.5788   -2.4245 C   0  0  0  0  0  0  0  0  0  0  0  0
    2.9665    0.9639   -1.0037 C   0  0  0  0  0  0  0  0  0  0  0  0
    2.6639   -1.1936   -4.1308 N   0  0  0  0  0  0  0  0  0  0  0  0
    3.5155   -1.9796   -4.8778 C   0  0  0  0  0  0  0  0  0  0  0  0
    4.7405   -2.1955   -4.3727 N   0  0  0  0  0  0  0  0  0  0  0  0
    5.6390   -2.8246   -5.1285 C   0  0  0  0  0  0  0  0  0  0  0  0
    5.3555   -3.2765   -6.3802 C   0  0  0  0  0  0  0  0  0  0  0  0
    4.0736   -3.0400   -6.8258 C   0  0  0  0  0  0  0  0  0  0  0  0
    3.1294   -2.4139   -6.0903 N   0  0  0  0  0  0  0  0  0  0  0  0
    3.8060   -3.3637   -8.1565 N   0  0  0  0  0  0  0  0  0  0  0  0
    4.8008   -3.8019   -9.0125 C   0  0  0  0  0  0  0  0  0  0  0  0
    4.7984   -3.5615  -10.2057 O   0  0  0  0  0  0  0  0  0  0  0  0
    5.7605   -4.5793   -8.3592 N   0  0  0  0  0  0  0  0  0  0  0  0
    6.3831   -3.9206   -7.2404 C   0  0  0  0  0  0  0  0  0  0  0  0
    6.0661   -5.9255   -8.7619 C   0  0  0  0  0  0  0  0  0  0  0  0
    7.2548   -6.5443   -8.3181 C   0  0  0  0  0  0  0  0  0  0  0  0
    7.6343   -7.8168   -8.7689 C   0  0  0  0  0  0  0  0  0  0  0  0
    6.7808   -8.5573   -9.5720 C   0  0  0  0  0  0  0  0  0  0  0  0
    5.5411   -8.0323   -9.9065 C   0  0  0  0  0  0  0  0  0  0  0  0
    5.1981   -6.7181   -9.5561 C   0  0  0  0  0  0  0  0  0  0  0  0
    3.6162   -6.2531  -10.0975 Cl  0  0  0  0  0  0  0  0  0  0  0  0
    3.9266    0.2433    1.3151 H   0  0  0  0  0  0  0  0  0  0  0  0
    2.6103   -2.2023    0.3781 H   0  0  0  0  0  0  0  0  0  0  0  0
    4.0768   -1.5098   -0.2793 H   0  0  0  0  0  0  0  0  0  0  0  0
    1.4384   -1.8878   -1.7943 H   0  0  0  0  0  0  0  0  0  0  0  0
    2.8992   -2.8520   -2.0000 H   0  0  0  0  0  0  0  0  0  0  0  0
    1.4461    0.6140   -2.5005 H   0  0  0  0  0  0  0  0  0  0  0  0
    2.9330    1.3136   -3.1370 H   0  0  0  0  0  0  0  0  0  0  0  0
    2.5787    1.9550   -0.7421 H   0  0  0  0  0  0  0  0  0  0  0  0
    4.0608    1.0520   -0.9536 H   0  0  0  0  0  0  0  0  0  0  0  0
    1.7100   -1.1358   -4.4518 H   0  0  0  0  0  0  0  0  0  0  0  0
    6.6234   -2.9313   -4.6886 H   0  0  0  0  0  0  0  0  0  0  0  0
    2.9036   -3.1454   -8.5521 H   0  0  0  0  0  0  0  0  0  0  0  0
    7.0651   -3.1539   -7.6328 H   0  0  0  0  0  0  0  0  0  0  0  0
    6.9487   -4.6148   -6.6171 H   0  0  0  0  0  0  0  0  0  0  0  0
    7.9454   -6.0579   -7.6365 H   0  0  0  0  0  0  0  0  0  0  0  0
    8.6019   -8.2293   -8.4910 H   0  0  0  0  0  0  0  0  0  0  0  0
    7.0673   -9.5427   -9.9285 H   0  0  0  0  0  0  0  0  0  0  0  0
    4.8296   -8.6513  -10.4487 H   0  0  0  0  0  0  0  0  0  0  0  0
  1 29  1  0  0  0  0
  2  4  1  0  0  0  0
  2  9  1  0  0  0  0
  2  3  1  1  0  0  0
  2  1  1  0  0  0  0
  4  5  1  0  0  0  0
  4 30  1  0  0  0  0
  4 31  1  0  0  0  0
  5  6  1  0  0  0  0
  5 32  1  0  0  0  0
  5 33  1  0  0  0  0
  6  8  1  0  0  0  0
  6 10  1  0  0  0  0
  6  7  1  1  0  0  0
  8  9  1  0  0  0  0
  8 34  1  0  0  0  0
  8 35  1  0  0  0  0
  9 36  1  0  0  0  0
  9 37  1  0  0  0  0
 10 11  1  0  0  0  0
 10 38  1  0  0  0  0
 11 12  2  0  0  0  0
 11 16  1  0  0  0  0
 12 13  1  0  0  0  0
 13 14  2  0  0  0  0
 13 39  1  0  0  0  0
 14 15  1  0  0  0  0
 14 21  1  0  0  0  0
 15 16  2  0  0  0  0
 15 17  1  0  0  0  0
 17 18  1  0  0  0  0
 17 40  1  0  0  0  0
 18 19  2  0  0  0  0
 18 20  1  0  0  0  0
 20 21  1  0  0  0  0
 20 22  1  0  0  0  0
 21 41  1  0  0  0  0
 21 42  1  0  0  0  0
 22 23  2  0  0  0  0
 22 27  1  0  0  0  0
 23 24  1  0  0  0  0
 23 43  1  0  0  0  0
 24 25  2  0  0  0  0
 24 44  1  0  0  0  0
 25 26  1  0  0  0  0
 25 45  1  0  0  0  0
 26 27  2  0  0  0  0
 26 46  1  0  0  0  0
 27 28  1  0  0  0  0
M  END
$$$$
