RO7
 OpenBabel04121316183D

 54 57  0  0  1  0  0  0  0  0999 V2000
    2.3877   -1.9683    3.0402 C   0  0  0  0  0  0  0  0  0  0  0  0
    2.3510   -0.8761    2.1258 O   0  0  0  0  0  0  0  0  0  0  0  0
    2.9103   -1.1585    0.8318 C   0  0  2  0  0  0  0  0  0  0  0  0
    2.6001   -0.3030    0.2122 H   0  0  0  0  0  0  0  0  0  0  0  0
    2.2704   -2.3672    0.1116 C   0  0  0  0  0  0  0  0  0  0  0  0
    2.8609   -3.1678   -0.6104 O   0  0  0  0  0  0  0  0  0  0  0  0
    0.9334   -2.4760    0.2973 O   0  0  0  0  0  0  0  0  0  0  0  0
    4.4728   -1.1418    0.7937 C   0  0  0  0  0  0  0  0  0  0  0  0
    5.1356   -2.1692    1.7017 C   0  0  0  0  0  0  0  0  0  0  0  0
    4.9221   -3.5326    1.4584 C   0  0  0  0  0  0  0  0  0  0  0  0
    5.0764   -4.4933    2.4436 C   0  0  0  0  0  0  0  0  0  0  0  0
    5.6569   -4.1831    3.6771 C   0  0  0  0  0  0  0  0  0  0  0  0
    6.0190   -2.8245    3.9187 C   0  0  0  0  0  0  0  0  0  0  0  0
    5.7507   -1.8483    2.9396 C   0  0  0  0  0  0  0  0  0  0  0  0
    6.1695   -0.2660    3.5014 S   0  0  0  0  0  0  0  0  0  0  0  0
    6.7632   -0.8607    4.9734 C   0  0  0  0  0  0  0  0  0  0  0  0
    6.6059   -2.2202    5.0838 C   0  0  0  0  0  0  0  0  0  0  0  0
    5.9190   -5.1348    4.6587 O   0  0  0  0  0  0  0  0  0  0  0  0
    5.5166   -6.4741    4.3211 C   0  0  0  0  0  0  0  0  0  0  0  0
    5.8823   -7.5507    5.3769 C   0  0  0  0  0  0  0  0  0  0  0  0
    5.4502   -8.9734    4.9944 C   0  0  0  0  0  0  0  0  0  0  0  0
    6.0594  -10.1712    5.4261 N   0  0  0  0  0  0  0  0  0  0  0  0
    5.3546  -11.1577    4.8617 C   0  0  0  0  0  0  0  0  0  0  0  0
    4.3211  -10.6821    4.0848 O   0  0  0  0  0  0  0  0  0  0  0  0
    4.3928   -9.3218    4.1779 C   0  0  0  0  0  0  0  0  0  0  0  0
    3.4046   -8.5249    3.4299 C   0  0  0  0  0  0  0  0  0  0  0  0
    5.4862  -12.6485    4.8431 C   0  0  0  0  0  0  0  0  0  0  0  0
    6.3639  -13.2973    3.9517 C   0  0  0  0  0  0  0  0  0  0  0  0
    6.3695  -14.7029    3.7938 C   0  0  0  0  0  0  0  0  0  0  0  0
    5.5715  -15.5091    4.5980 C   0  0  0  0  0  0  0  0  0  0  0  0
    4.7586  -14.9028    5.5498 C   0  0  0  0  0  0  0  0  0  0  0  0
    4.6705  -13.4919    5.6275 C   0  0  0  0  0  0  0  0  0  0  0  0
    1.9706   -1.6707    4.0026 H   0  0  0  0  0  0  0  0  0  0  0  0
    3.3917   -2.2756    3.2705 H   0  0  0  0  0  0  0  0  0  0  0  0
    1.8462   -2.8300    2.6491 H   0  0  0  0  0  0  0  0  0  0  0  0
    0.5626   -1.7295    0.8099 H   0  0  0  0  0  0  0  0  0  0  0  0
    4.7989   -0.1341    1.0825 H   0  0  0  0  0  0  0  0  0  0  0  0
    4.8324   -1.2894   -0.2317 H   0  0  0  0  0  0  0  0  0  0  0  0
    4.5340   -3.8793    0.5081 H   0  0  0  0  0  0  0  0  0  0  0  0
    4.6985   -5.4805    2.1973 H   0  0  0  0  0  0  0  0  0  0  0  0
    7.1858   -0.1753    5.6925 H   0  0  0  0  0  0  0  0  0  0  0  0
    6.8905   -2.7830    5.9630 H   0  0  0  0  0  0  0  0  0  0  0  0
    5.9736   -6.7663    3.3666 H   0  0  0  0  0  0  0  0  0  0  0  0
    4.4286   -6.4269    4.2297 H   0  0  0  0  0  0  0  0  0  0  0  0
    5.3951   -7.2583    6.3161 H   0  0  0  0  0  0  0  0  0  0  0  0
    6.9610   -7.4989    5.5559 H   0  0  0  0  0  0  0  0  0  0  0  0
    2.6996   -9.1332    2.8678 H   0  0  0  0  0  0  0  0  0  0  0  0
    3.9200   -7.8775    2.7110 H   0  0  0  0  0  0  0  0  0  0  0  0
    2.8433   -7.8897    4.1254 H   0  0  0  0  0  0  0  0  0  0  0  0
    7.0515  -12.7153    3.3443 H   0  0  0  0  0  0  0  0  0  0  0  0
    7.0041  -15.1724    3.0431 H   0  0  0  0  0  0  0  0  0  0  0  0
    5.5887  -16.5941    4.4882 H   0  0  0  0  0  0  0  0  0  0  0  0
    4.1851  -15.5336    6.2285 H   0  0  0  0  0  0  0  0  0  0  0  0
    3.9396  -13.0707    6.3131 H   0  0  0  0  0  0  0  0  0  0  0  0
  1  2  1  0  0  0  0
  1 33  1  0  0  0  0
  1 34  1  0  0  0  0
  1 35  1  0  0  0  0
  3  5  1  0  0  0  0
  3  8  1  0  0  0  0
  3  4  1  6  0  0  0
  3  2  1  0  0  0  0
  5  6  2  0  0  0  0
  5  7  1  0  0  0  0
  7 36  1  0  0  0  0
  8  9  1  0  0  0  0
  8 37  1  0  0  0  0
  8 38  1  0  0  0  0
  9 10  2  0  0  0  0
  9 14  1  0  0  0  0
 10 11  1  0  0  0  0
 10 39  1  0  0  0  0
 11 12  2  0  0  0  0
 11 40  1  0  0  0  0
 12 13  1  0  0  0  0
 12 18  1  0  0  0  0
 13 14  2  0  0  0  0
 13 17  1  0  0  0  0
 14 15  1  0  0  0  0
 15 16  1  0  0  0  0
 16 17  2  0  0  0  0
 16 41  1  0  0  0  0
 17 42  1  0  0  0  0
 18 19  1  0  0  0  0
 19 20  1  0  0  0  0
 19 43  1  0  0  0  0
 19 44  1  0  0  0  0
 20 21  1  0  0  0  0
 20 45  1  0  0  0  0
 20 46  1  0  0  0  0
 21 22  1  0  0  0  0
 21 25  2  0  0  0  0
 22 23  2  0  0  0  0
 23 24  1  0  0  0  0
 23 27  1  0  0  0  0
 24 25  1  0  0  0  0
 25 26  1  0  0  0  0
 26 47  1  0  0  0  0
 26 48  1  0  0  0  0
 26 49  1  0  0  0  0
 27 28  2  0  0  0  0
 27 32  1  0  0  0  0
 28 29  1  0  0  0  0
 28 50  1  0  0  0  0
 29 30  2  0  0  0  0
 29 51  1  0  0  0  0
 30 31  1  0  0  0  0
 30 52  1  0  0  0  0
 31 32  2  0  0  0  0
 31 53  1  0  0  0  0
 32 54  1  0  0  0  0
M  END
$$$$
