RO8
 OpenBabel04121316183D

 27 28  0  0  0  0  0  0  0  0999 V2000
    0.9543   -0.0373    0.0225 Cl  0  0  0  0  0  0  0  0  0  0  0  0
    2.6725   -0.0572   -0.0320 C   0  0  0  0  0  0  0  0  0  0  0  0
    3.3872    1.1348   -0.1112 C   0  0  0  0  0  0  0  0  0  0  0  0
    4.7799    1.1072   -0.1873 C   0  0  0  0  0  0  0  0  0  0  0  0
    5.4368   -0.1118   -0.3278 C   0  0  0  0  0  0  0  0  0  0  0  0
    4.7012   -1.3015   -0.2559 C   0  0  0  0  0  0  0  0  0  0  0  0
    3.3309   -1.2785   -0.0237 C   0  0  0  0  0  0  0  0  0  0  0  0
    5.5718   -2.8066   -0.5483 S   0  0  0  0  0  0  0  0  0  0  0  0
    5.9801   -2.7373   -1.9364 O   0  0  0  0  0  0  0  0  0  0  0  0
    6.5222   -2.9152    0.5376 O   0  0  0  0  0  0  0  0  0  0  0  0
    4.4482   -4.0374   -0.3946 N   0  0  0  0  0  0  0  0  0  0  0  0
    4.9110   -5.3214   -0.6052 C   0  0  0  0  0  0  0  0  0  0  0  0
    6.0954   -5.4468   -0.8845 O   0  0  0  0  0  0  0  0  0  0  0  0
    3.9718   -6.3248   -0.4750 N   0  0  0  0  0  0  0  0  0  0  0  0
    4.3811   -7.5477   -0.6407 C   0  0  0  0  0  0  0  0  0  0  0  0
    3.6728   -8.7438   -0.5739 N   0  0  0  0  0  0  0  0  0  0  0  0
    2.6826   -8.8042   -0.3687 H   0  0  0  0  0  0  0  0  0  0  0  0
    4.4145   -9.8936   -0.8128 C   0  0  0  0  0  0  0  0  0  0  0  0
    5.7102   -9.6802   -1.0702 C   0  0  0  0  0  0  0  0  0  0  0  0
    6.0738   -8.0159   -1.0202 S   0  0  0  0  0  0  0  0  0  0  0  0
    7.0886  -10.8274   -1.4467 Br  0  0  0  0  0  0  0  0  0  0  0  0
    2.8640    2.0863   -0.1108 H   0  0  0  0  0  0  0  0  0  0  0  0
    5.3480    2.0331   -0.1624 H   0  0  0  0  0  0  0  0  0  0  0  0
    6.5137   -0.1346   -0.4978 H   0  0  0  0  0  0  0  0  0  0  0  0
    2.7526   -2.1737    0.1448 H   0  0  0  0  0  0  0  0  0  0  0  0
    3.4716   -3.8997   -0.2084 H   0  0  0  0  0  0  0  0  0  0  0  0
    3.9429  -10.8669   -0.7844 H   0  0  0  0  0  0  0  0  0  0  0  0
  1  2  1  0  0  0  0
  2  3  2  0  0  0  0
  2  7  1  0  0  0  0
  3  4  1  0  0  0  0
  3 22  1  0  0  0  0
  4  5  2  0  0  0  0
  4 23  1  0  0  0  0
  5  6  1  0  0  0  0
  5 24  1  0  0  0  0
  6  7  2  0  0  0  0
  6  8  1  0  0  0  0
  7 25  1  0  0  0  0
  8  9  2  0  0  0  0
  8 10  2  0  0  0  0
  8 11  1  0  0  0  0
 11 12  1  0  0  0  0
 11 26  1  0  0  0  0
 12 13  2  0  0  0  0
 12 14  1  0  0  0  0
 14 15  2  0  0  0  0
 15 16  1  0  0  0  0
 15 20  1  0  0  0  0
 16 17  1  0  0  0  0
 16 18  1  0  0  0  0
 18 19  2  0  0  0  0
 18 27  1  0  0  0  0
 19 20  1  0  0  0  0
 19 21  1  0  0  0  0
M  END
$$$$
