ROL
 OpenBabel04121316183D

 41 43  0  0  1  0  0  0  0  0999 V2000
    3.3730    2.0905   -9.5894 C   0  0  0  0  0  0  0  0  0  0  0  0
    2.6606    2.0424   -8.3537 O   0  0  0  0  0  0  0  0  0  0  0  0
    2.7417    0.8951   -7.6151 C   0  0  0  0  0  0  0  0  0  0  0  0
    2.9047    1.2677   -6.2875 C   0  0  0  0  0  0  0  0  0  0  0  0
    3.4968    0.3927   -5.4161 C   0  0  0  0  0  0  0  0  0  0  0  0
    3.6584   -0.9401   -5.7876 C   0  0  0  0  0  0  0  0  0  0  0  0
    3.1142   -1.3815   -7.0135 C   0  0  0  0  0  0  0  0  0  0  0  0
    2.6338   -0.4656   -7.9609 C   0  0  0  0  0  0  0  0  0  0  0  0
    2.0403   -1.0796   -9.0506 O   0  0  0  0  0  0  0  0  0  0  0  0
    1.2416   -0.3517   -9.9965 C   0  0  0  0  0  0  0  0  0  0  0  0
   -0.0913   -0.9770  -10.3982 C   0  0  0  0  0  0  0  0  0  0  0  0
   -0.8980    0.2223  -10.9673 C   0  0  0  0  0  0  0  0  0  0  0  0
   -0.5517    1.4121  -10.1244 C   0  0  0  0  0  0  0  0  0  0  0  0
    0.6674    0.9276   -9.4506 C   0  0  0  0  0  0  0  0  0  0  0  0
    4.4829   -1.8036   -4.8584 C   0  0  2  0  0  0  0  0  0  0  0  0
    4.3125   -1.4575   -3.8317 H   0  0  0  0  0  0  0  0  0  0  0  0
    5.9607   -1.6881   -5.2398 C   0  0  0  0  0  0  0  0  0  0  0  0
    6.1164   -2.7221   -6.2146 N   0  0  0  0  0  0  0  0  0  0  0  0
    5.2507   -3.7749   -5.9675 C   0  0  0  0  0  0  0  0  0  0  0  0
    5.3257   -4.8735   -6.4582 O   0  0  0  0  0  0  0  0  0  0  0  0
    4.2116   -3.3053   -4.9651 C   0  0  0  0  0  0  0  0  0  0  0  0
    2.8044    2.7457  -10.2707 H   0  0  0  0  0  0  0  0  0  0  0  0
    3.4760    1.1173  -10.0749 H   0  0  0  0  0  0  0  0  0  0  0  0
    4.3307    2.5680   -9.4280 H   0  0  0  0  0  0  0  0  0  0  0  0
    2.6722    2.2849   -5.9867 H   0  0  0  0  0  0  0  0  0  0  0  0
    3.8870    0.7869   -4.4835 H   0  0  0  0  0  0  0  0  0  0  0  0
    3.0894   -2.4419   -7.2622 H   0  0  0  0  0  0  0  0  0  0  0  0
    1.8626   -0.2284  -10.8964 H   0  0  0  0  0  0  0  0  0  0  0  0
   -0.5758   -1.3855   -9.5050 H   0  0  0  0  0  0  0  0  0  0  0  0
    0.0110   -1.7809  -11.1316 H   0  0  0  0  0  0  0  0  0  0  0  0
   -1.9753    0.0806  -10.9417 H   0  0  0  0  0  0  0  0  0  0  0  0
   -0.5733    0.4472  -11.9905 H   0  0  0  0  0  0  0  0  0  0  0  0
   -1.2558    1.7082   -9.3425 H   0  0  0  0  0  0  0  0  0  0  0  0
   -0.3119    2.3201  -10.7003 H   0  0  0  0  0  0  0  0  0  0  0  0
    0.4800    0.8686   -8.3777 H   0  0  0  0  0  0  0  0  0  0  0  0
    1.3121    1.6978   -9.7796 H   0  0  0  0  0  0  0  0  0  0  0  0
    6.6024   -1.9486   -4.3900 H   0  0  0  0  0  0  0  0  0  0  0  0
    6.2788   -0.7213   -5.6429 H   0  0  0  0  0  0  0  0  0  0  0  0
    6.8415   -2.7825   -6.9180 H   0  0  0  0  0  0  0  0  0  0  0  0
    4.3730   -3.8007   -4.0053 H   0  0  0  0  0  0  0  0  0  0  0  0
    3.2049   -3.5311   -5.3255 H   0  0  0  0  0  0  0  0  0  0  0  0
  1  2  1  0  0  0  0
  1 22  1  0  0  0  0
  1 23  1  0  0  0  0
  1 24  1  0  0  0  0
  2  3  1  0  0  0  0
  3  4  2  0  0  0  0
  3  8  1  0  0  0  0
  4  5  1  0  0  0  0
  4 25  1  0  0  0  0
  5  6  2  0  0  0  0
  5 26  1  0  0  0  0
  6  7  1  0  0  0  0
  7  8  2  0  0  0  0
  7 27  1  0  0  0  0
  8  9  1  0  0  0  0
  9 10  1  0  0  0  0
 10 11  1  0  0  0  0
 10 14  1  0  0  0  0
 10 28  1  0  0  0  0
 11 12  1  0  0  0  0
 11 29  1  0  0  0  0
 11 30  1  0  0  0  0
 12 13  1  0  0  0  0
 12 31  1  0  0  0  0
 12 32  1  0  0  0  0
 13 14  1  0  0  0  0
 13 33  1  0  0  0  0
 13 34  1  0  0  0  0
 14 35  1  0  0  0  0
 14 36  1  0  0  0  0
 15 17  1  0  0  0  0
 15 21  1  0  0  0  0
 15 16  1  1  0  0  0
 15  6  1  0  0  0  0
 17 18  1  0  0  0  0
 17 37  1  0  0  0  0
 17 38  1  0  0  0  0
 18 19  1  0  0  0  0
 18 39  1  0  0  0  0
 19 20  2  0  0  0  0
 19 21  1  0  0  0  0
 21 40  1  0  0  0  0
 21 41  1  0  0  0  0
M  END
$$$$
