RPF
 OpenBabel04121316183D

 76 80  0  0  1  0  0  0  0  0999 V2000
    1.0530   -0.0478   -0.0160 C   0  0  0  0  0  0  0  0  0  0  0  0
    2.4735    0.0194    0.1387 O   0  0  0  0  0  0  0  0  0  0  0  0
    3.0162    0.8487   -0.8080 C   0  0  0  0  0  0  0  0  0  0  0  0
    2.8693    2.2211   -0.6091 C   0  0  0  0  0  0  0  0  0  0  0  0
    3.2777    3.1136   -1.5920 C   0  0  0  0  0  0  0  0  0  0  0  0
    3.9624    2.6455   -2.7091 C   0  0  0  0  0  0  0  0  0  0  0  0
    4.2434    1.2837   -2.8353 C   0  0  0  0  0  0  0  0  0  0  0  0
    3.7246    0.3536   -1.9140 C   0  0  0  0  0  0  0  0  0  0  0  0
    3.9237   -1.1122   -2.2129 C   0  0  0  0  0  0  0  0  0  0  0  0
    3.2901   -1.9382   -1.2503 O   0  0  0  0  0  0  0  0  0  0  0  0
    3.4348   -3.3134   -1.5221 C   0  0  0  0  0  0  0  0  0  0  0  0
    2.7338   -4.0804   -0.4202 C   0  0  0  0  0  0  0  0  0  0  0  0
    2.8665   -5.5692   -0.6760 C   0  0  0  0  0  0  0  0  0  0  0  0
    2.1657   -6.2371    0.3642 O   0  0  0  0  0  0  0  0  0  0  0  0
    2.2369   -7.5914    0.2419 C   0  0  0  0  0  0  0  0  0  0  0  0
    1.0525   -8.2600   -0.0058 C   0  0  0  0  0  0  0  0  0  0  0  0
    1.0027   -9.6423    0.1402 C   0  0  0  0  0  0  0  0  0  0  0  0
    2.1466  -10.3908    0.4540 C   0  0  0  0  0  0  0  0  0  0  0  0
    3.3633   -9.6988    0.5512 C   0  0  0  0  0  0  0  0  0  0  0  0
    3.4007   -8.3006    0.5091 C   0  0  0  0  0  0  0  0  0  0  0  0
    2.0745  -11.8072    0.5839 N   0  0  0  0  0  0  0  0  0  0  0  0
    0.7810  -12.5208    0.7061 C   0  0  1  0  0  0  0  0  0  0  0  0
   -0.0762  -11.8987    0.4552 H   0  0  0  0  0  0  0  0  0  0  0  0
    0.7726  -13.6622   -0.3169 C   0  0  0  0  0  0  0  0  0  0  0  0
    1.8591  -14.6050   -0.0494 N   0  0  0  0  0  0  0  0  0  0  0  0
    3.1589  -13.8964   -0.0709 C   0  0  0  0  0  0  0  0  0  0  0  0
    3.2149  -12.6270    0.7983 C   0  0  0  0  0  0  0  0  0  0  0  0
    4.2093  -12.3432    1.4453 O   0  0  0  0  0  0  0  0  0  0  0  0
    0.5162  -13.0495    2.1444 C   0  0  0  0  0  0  0  0  0  0  0  0
    1.7165  -12.8876    2.8796 O   0  0  0  0  0  0  0  0  0  0  0  0
    1.8332  -13.4643    4.0884 C   0  0  0  0  0  0  0  0  0  0  0  0
    1.4019  -14.7464    4.3868 C   0  0  0  0  0  0  0  0  0  0  0  0
    1.5827  -15.2242    5.6732 C   0  0  0  0  0  0  0  0  0  0  0  0
    2.2125  -14.4227    6.6355 C   0  0  0  0  0  0  0  0  0  0  0  0
    2.6901  -13.1382    6.3140 C   0  0  0  0  0  0  0  0  0  0  0  0
    2.5119  -12.6810    5.0206 C   0  0  0  0  0  0  0  0  0  0  0  0
    3.2323  -12.3046    7.2777 N   0  0  0  0  0  0  0  0  0  0  0  0
    3.0758  -12.6682    8.6665 C   0  0  0  0  0  0  0  0  0  0  0  0
    3.3790  -14.1508    8.8298 C   0  0  0  0  0  0  0  0  0  0  0  0
    2.3565  -14.9540    8.0342 C   0  0  0  0  0  0  0  0  0  0  0  0
    0.6737   -0.8187    0.6613 H   0  0  0  0  0  0  0  0  0  0  0  0
    0.7610   -0.3226   -1.0374 H   0  0  0  0  0  0  0  0  0  0  0  0
    0.5877    0.9029    0.2652 H   0  0  0  0  0  0  0  0  0  0  0  0
    2.4122    2.5813    0.3074 H   0  0  0  0  0  0  0  0  0  0  0  0
    3.0633    4.1714   -1.4796 H   0  0  0  0  0  0  0  0  0  0  0  0
    4.2819    3.3422   -3.4792 H   0  0  0  0  0  0  0  0  0  0  0  0
    4.8506    0.9479   -3.6743 H   0  0  0  0  0  0  0  0  0  0  0  0
    4.9956   -1.3413   -2.2420 H   0  0  0  0  0  0  0  0  0  0  0  0
    3.4831   -1.3256   -3.1954 H   0  0  0  0  0  0  0  0  0  0  0  0
    4.4981   -3.5724   -1.5476 H   0  0  0  0  0  0  0  0  0  0  0  0
    2.9779   -3.5423   -2.4905 H   0  0  0  0  0  0  0  0  0  0  0  0
    1.6763   -3.7890   -0.3538 H   0  0  0  0  0  0  0  0  0  0  0  0
    3.1504   -3.8190    0.5625 H   0  0  0  0  0  0  0  0  0  0  0  0
    3.9268   -5.8468   -0.6809 H   0  0  0  0  0  0  0  0  0  0  0  0
    2.4203   -5.8188   -1.6470 H   0  0  0  0  0  0  0  0  0  0  0  0
    0.1560   -7.7129   -0.2789 H   0  0  0  0  0  0  0  0  0  0  0  0
    0.0299  -10.0866   -0.0123 H   0  0  0  0  0  0  0  0  0  0  0  0
    4.3055  -10.2175    0.7067 H   0  0  0  0  0  0  0  0  0  0  0  0
    4.3301   -7.7837    0.7266 H   0  0  0  0  0  0  0  0  0  0  0  0
    0.8791  -13.2414   -1.3250 H   0  0  0  0  0  0  0  0  0  0  0  0
   -0.1896  -14.1828   -0.2808 H   0  0  0  0  0  0  0  0  0  0  0  0
    1.8714  -15.3294   -0.7643 H   0  0  0  0  0  0  0  0  0  0  0  0
    3.3835  -13.5663   -1.0920 H   0  0  0  0  0  0  0  0  0  0  0  0
    3.9483  -14.5821    0.2493 H   0  0  0  0  0  0  0  0  0  0  0  0
   -0.2565  -12.4396    2.6288 H   0  0  0  0  0  0  0  0  0  0  0  0
    0.1531  -14.0829    2.1188 H   0  0  0  0  0  0  0  0  0  0  0  0
    0.9591  -15.3870    3.6336 H   0  0  0  0  0  0  0  0  0  0  0  0
    1.2373  -16.2213    5.9283 H   0  0  0  0  0  0  0  0  0  0  0  0
    2.8693  -11.6987    4.7198 H   0  0  0  0  0  0  0  0  0  0  0  0
    3.7893  -11.5034    7.0075 H   0  0  0  0  0  0  0  0  0  0  0  0
    2.0461  -12.4498    8.9775 H   0  0  0  0  0  0  0  0  0  0  0  0
    3.7406  -12.0654    9.2913 H   0  0  0  0  0  0  0  0  0  0  0  0
    3.3440  -14.4447    9.8822 H   0  0  0  0  0  0  0  0  0  0  0  0
    4.3891  -14.3652    8.4549 H   0  0  0  0  0  0  0  0  0  0  0  0
    1.3747  -14.8986    8.5190 H   0  0  0  0  0  0  0  0  0  0  0  0
    2.6647  -16.0045    7.9990 H   0  0  0  0  0  0  0  0  0  0  0  0
  1  2  1  0  0  0  0
  1 41  1  0  0  0  0
  1 42  1  0  0  0  0
  1 43  1  0  0  0  0
  2  3  1  0  0  0  0
  3  4  2  0  0  0  0
  3  8  1  0  0  0  0
  4  5  1  0  0  0  0
  4 44  1  0  0  0  0
  5  6  2  0  0  0  0
  5 45  1  0  0  0  0
  6  7  1  0  0  0  0
  6 46  1  0  0  0  0
  7  8  2  0  0  0  0
  7 47  1  0  0  0  0
  8  9  1  0  0  0  0
  9 10  1  0  0  0  0
  9 48  1  0  0  0  0
  9 49  1  0  0  0  0
 10 11  1  0  0  0  0
 11 12  1  0  0  0  0
 11 50  1  0  0  0  0
 11 51  1  0  0  0  0
 12 13  1  0  0  0  0
 12 52  1  0  0  0  0
 12 53  1  0  0  0  0
 13 14  1  0  0  0  0
 13 54  1  0  0  0  0
 13 55  1  0  0  0  0
 14 15  1  0  0  0  0
 15 16  2  0  0  0  0
 15 20  1  0  0  0  0
 16 17  1  0  0  0  0
 16 56  1  0  0  0  0
 17 18  2  0  0  0  0
 17 57  1  0  0  0  0
 18 19  1  0  0  0  0
 18 21  1  0  0  0  0
 19 20  2  0  0  0  0
 19 58  1  0  0  0  0
 20 59  1  0  0  0  0
 21 22  1  0  0  0  0
 21 27  1  0  0  0  0
 22 24  1  0  0  0  0
 22 29  1  0  0  0  0
 22 23  1  6  0  0  0
 24 25  1  0  0  0  0
 24 60  1  0  0  0  0
 24 61  1  0  0  0  0
 25 26  1  0  0  0  0
 25 62  1  0  0  0  0
 26 27  1  0  0  0  0
 26 63  1  0  0  0  0
 26 64  1  0  0  0  0
 27 28  2  0  0  0  0
 29 30  1  0  0  0  0
 29 65  1  0  0  0  0
 29 66  1  0  0  0  0
 30 31  1  0  0  0  0
 31 32  2  0  0  0  0
 31 36  1  0  0  0  0
 32 33  1  0  0  0  0
 32 67  1  0  0  0  0
 33 34  2  0  0  0  0
 33 68  1  0  0  0  0
 34 35  1  0  0  0  0
 34 40  1  0  0  0  0
 35 36  2  0  0  0  0
 35 37  1  0  0  0  0
 36 69  1  0  0  0  0
 37 38  1  0  0  0  0
 37 70  1  0  0  0  0
 38 39  1  0  0  0  0
 38 71  1  0  0  0  0
 38 72  1  0  0  0  0
 39 40  1  0  0  0  0
 39 73  1  0  0  0  0
 39 74  1  0  0  0  0
 40 75  1  0  0  0  0
 40 76  1  0  0  0  0
M  END
$$$$
