RPN
 OpenBabel04121316183D

 23 23  0  0  1  0  0  0  0  0999 V2000
    2.9277   -1.4355   -0.1415 O   0  0  0  0  0  0  0  0  0  0  0  0
    2.4795   -0.0850    0.0022 C   0  0  2  0  0  0  0  0  0  0  0  0
    1.3829   -0.1131    0.0045 H   0  0  0  0  0  0  0  0  0  0  0  0
    2.9098    0.7661   -1.1819 C   0  0  0  0  0  0  0  0  0  0  0  0
    2.8879    2.1695   -1.0861 C   0  0  0  0  0  0  0  0  0  0  0  0
    2.9958    2.9619   -2.2201 C   0  0  0  0  0  0  0  0  0  0  0  0
    3.2715    2.3555   -3.4448 C   0  0  0  0  0  0  0  0  0  0  0  0
    3.4868    0.9758   -3.5303 C   0  0  0  0  0  0  0  0  0  0  0  0
    3.2398    0.1796   -2.4130 C   0  0  0  0  0  0  0  0  0  0  0  0
    3.2662    3.1704   -4.6588 N   0  3  0  0  0  0  0  0  0  0  0  0
    2.9921    4.3739   -4.5418 O   0  0  0  0  0  0  0  0  0  0  0  0
    3.5050    2.6037   -5.7337 O   0  5  0  0  0  0  0  0  0  0  0  0
    2.9866    0.4563    1.3487 C   0  0  0  0  0  0  0  0  0  0  0  0
    4.4614    0.4411    1.3153 N   0  0  0  0  0  0  0  0  0  0  0  0
    5.0339    0.9397    2.2912 N   0  3  0  0  0  0  0  0  0  0  0  0
    5.5712    1.3961    3.1907 N   0  5  0  0  0  0  0  0  0  0  0  0
    3.9016   -1.3871   -0.1138 H   0  0  0  0  0  0  0  0  0  0  0  0
    2.7501    2.6779   -0.1363 H   0  0  0  0  0  0  0  0  0  0  0  0
    2.8378    4.0339   -2.1284 H   0  0  0  0  0  0  0  0  0  0  0  0
    3.7980    0.5055   -4.4596 H   0  0  0  0  0  0  0  0  0  0  0  0
    3.2821   -0.9045   -2.5154 H   0  0  0  0  0  0  0  0  0  0  0  0
    2.6304   -0.1790    2.1655 H   0  0  0  0  0  0  0  0  0  0  0  0
    2.6080    1.4686    1.5333 H   0  0  0  0  0  0  0  0  0  0  0  0
  1 17  1  0  0  0  0
  2  4  1  0  0  0  0
  2 13  1  0  0  0  0
  2  3  1  1  0  0  0
  2  1  1  0  0  0  0
  4  5  2  0  0  0  0
  4  9  1  0  0  0  0
  5  6  1  0  0  0  0
  5 18  1  0  0  0  0
  6  7  2  0  0  0  0
  6 19  1  0  0  0  0
  7  8  1  0  0  0  0
  7 10  1  0  0  0  0
  8  9  2  0  0  0  0
  8 20  1  0  0  0  0
  9 21  1  0  0  0  0
 10 11  2  0  0  0  0
 10 12  1  0  0  0  0
 13 14  1  0  0  0  0
 13 22  1  0  0  0  0
 13 23  1  0  0  0  0
 14 15  2  0  0  0  0
 15 16  2  0  0  0  0
M  CHG  4  10   1  12  -1  15   1  16  -1
M  END
$$$$
