RPR
 OpenBabel04121316183D

 64 66  0  0  1  0  0  0  0  0999 V2000
    3.8510    7.7395   16.3173 N   0  0  0  0  0  0  0  0  0  0  0  0
    3.7211    6.6428   15.3719 C   0  0  0  0  0  0  0  0  0  0  0  0
    4.3274    7.0353   14.0562 C   0  0  0  0  0  0  0  0  0  0  0  0
    3.9139    8.1880   13.3844 C   0  0  0  0  0  0  0  0  0  0  0  0
    4.5102    8.5701   12.1938 C   0  0  0  0  0  0  0  0  0  0  0  0
    5.3956    7.7066   11.5693 C   0  0  0  0  0  0  0  0  0  0  0  0
    5.7562    6.4882   12.1658 C   0  0  0  0  0  0  0  0  0  0  0  0
    5.2930    6.2306   13.4660 C   0  0  0  0  0  0  0  0  0  0  0  0
    6.3920    5.4098   11.4010 C   0  0  0  0  0  0  0  0  0  0  0  0
    6.5296    5.4859   10.0087 C   0  0  0  0  0  0  0  0  0  0  0  0
    6.7954    4.3347    9.2666 C   0  0  0  0  0  0  0  0  0  0  0  0
    7.1394    3.1184    9.9099 C   0  0  0  0  0  0  0  0  0  0  0  0
    7.2387    3.1159   11.3006 C   0  0  0  0  0  0  0  0  0  0  0  0
    6.8140    4.2218   12.0302 C   0  0  0  0  0  0  0  0  0  0  0  0
    7.7689    2.0311    9.0806 C   0  0  0  0  0  0  0  0  0  0  0  0
    7.5512    1.9999    7.8735 O   0  0  0  0  0  0  0  0  0  0  0  0
    8.7096    1.2101    9.6957 N   0  0  0  0  0  0  0  0  0  0  0  0
    9.5529    0.2609    8.9600 C   0  0  1  0  0  0  0  0  0  0  0  0
    8.8604   -0.1986    8.2402 H   0  0  0  0  0  0  0  0  0  0  0  0
   10.7545    0.8500    8.1157 C   0  0  2  0  0  0  0  0  0  0  0  0
   10.6910    0.3274    7.1463 H   0  0  0  0  0  0  0  0  0  0  0  0
   12.2061    0.5574    8.5453 C   0  0  0  0  0  0  0  0  0  0  0  0
   13.1178    1.3315    8.4270 O   0  0  0  0  0  0  0  0  0  0  0  0
   12.4202   -0.7115    8.9881 O   0  0  0  0  0  0  0  0  0  0  0  0
   13.6732   -0.8059    9.6710 C   0  0  0  0  0  0  0  0  0  0  0  0
   10.6940    2.3739    7.7891 C   0  0  0  0  0  0  0  0  0  0  0  0
   10.8079    3.2999    8.9858 C   0  0  0  0  0  0  0  0  0  0  0  0
    9.7767    4.1161    9.3444 C   0  0  0  0  0  0  0  0  0  0  0  0
    9.7030    4.7300   10.6009 C   0  0  0  0  0  0  0  0  0  0  0  0
   10.7752    4.8029   11.4280 C   0  0  0  0  0  0  0  0  0  0  0  0
   11.9439    4.3278   10.8957 C   0  0  0  0  0  0  0  0  0  0  0  0
   11.9312    3.5052    9.7503 C   0  0  0  0  0  0  0  0  0  0  0  0
   13.2271    4.8529   11.3865 C   0  0  0  0  0  0  0  0  0  0  0  0
   13.3112    5.7785   12.2887 N   0  0  0  0  0  0  0  0  0  0  0  0
   14.3796    4.4015   10.8373 N   0  0  0  0  0  0  0  0  0  0  0  0
    9.9639   -0.8378    9.9410 C   0  0  0  0  0  0  0  0  0  0  0  0
    3.3564    7.5146   17.1733 H   0  0  0  0  0  0  0  0  0  0  0  0
    3.3925    8.5592   15.9257 H   0  0  0  0  0  0  0  0  0  0  0  0
    2.6692    6.3772   15.2133 H   0  0  0  0  0  0  0  0  0  0  0  0
    4.2147    5.7545   15.7861 H   0  0  0  0  0  0  0  0  0  0  0  0
    3.1334    8.8111   13.8032 H   0  0  0  0  0  0  0  0  0  0  0  0
    4.2533    9.5145   11.7278 H   0  0  0  0  0  0  0  0  0  0  0  0
    5.7370    7.9862   10.5779 H   0  0  0  0  0  0  0  0  0  0  0  0
    5.6115    5.3495   14.0153 H   0  0  0  0  0  0  0  0  0  0  0  0
    6.5191    6.4419    9.4843 H   0  0  0  0  0  0  0  0  0  0  0  0
    6.9744    4.4732    8.1971 H   0  0  0  0  0  0  0  0  0  0  0  0
    7.8059    2.3694   11.8444 H   0  0  0  0  0  0  0  0  0  0  0  0
    6.9455    4.1729   13.1078 H   0  0  0  0  0  0  0  0  0  0  0  0
    8.9887    1.3954   10.6481 H   0  0  0  0  0  0  0  0  0  0  0  0
   13.8582   -1.8519    9.9165 H   0  0  0  0  0  0  0  0  0  0  0  0
   13.6157   -0.2282   10.6015 H   0  0  0  0  0  0  0  0  0  0  0  0
   14.4995   -0.4401    9.0522 H   0  0  0  0  0  0  0  0  0  0  0  0
    9.7792    2.5685    7.2138 H   0  0  0  0  0  0  0  0  0  0  0  0
   11.4898    2.6458    7.0844 H   0  0  0  0  0  0  0  0  0  0  0  0
    8.9886    4.2014    8.6203 H   0  0  0  0  0  0  0  0  0  0  0  0
    8.8206    5.2111   10.9730 H   0  0  0  0  0  0  0  0  0  0  0  0
   10.6657    5.3749   12.3401 H   0  0  0  0  0  0  0  0  0  0  0  0
   12.8552    3.1187    9.3787 H   0  0  0  0  0  0  0  0  0  0  0  0
   12.3932    6.0821   12.6194 H   0  0  0  0  0  0  0  0  0  0  0  0
   14.3986    3.8661    9.9807 H   0  0  0  0  0  0  0  0  0  0  0  0
   15.2063    4.9343   11.0507 H   0  0  0  0  0  0  0  0  0  0  0  0
    9.1243   -1.1938   10.5442 H   0  0  0  0  0  0  0  0  0  0  0  0
   10.7097   -0.4583   10.6504 H   0  0  0  0  0  0  0  0  0  0  0  0
   10.3647   -1.7041    9.4054 H   0  0  0  0  0  0  0  0  0  0  0  0
  1  2  1  0  0  0  0
  1 37  1  0  0  0  0
  1 38  1  0  0  0  0
  2  3  1  0  0  0  0
  2 39  1  0  0  0  0
  2 40  1  0  0  0  0
  3  4  2  0  0  0  0
  3  8  1  0  0  0  0
  4  5  1  0  0  0  0
  4 41  1  0  0  0  0
  5  6  2  0  0  0  0
  5 42  1  0  0  0  0
  6  7  1  0  0  0  0
  6 43  1  0  0  0  0
  7  8  2  0  0  0  0
  7  9  1  0  0  0  0
  8 44  1  0  0  0  0
  9 10  2  0  0  0  0
  9 14  1  0  0  0  0
 10 11  1  0  0  0  0
 10 45  1  0  0  0  0
 11 12  2  0  0  0  0
 11 46  1  0  0  0  0
 12 13  1  0  0  0  0
 12 15  1  0  0  0  0
 13 14  2  0  0  0  0
 13 47  1  0  0  0  0
 14 48  1  0  0  0  0
 15 16  2  0  0  0  0
 15 17  1  0  0  0  0
 17 18  1  0  0  0  0
 17 49  1  0  0  0  0
 18 19  1  6  0  0  0
 18 36  1  0  0  0  0
 20 22  1  0  0  0  0
 20 26  1  0  0  0  0
 20 21  1  6  0  0  0
 20 18  1  0  0  0  0
 22 23  2  0  0  0  0
 22 24  1  0  0  0  0
 24 25  1  0  0  0  0
 25 50  1  0  0  0  0
 25 51  1  0  0  0  0
 25 52  1  0  0  0  0
 26 27  1  0  0  0  0
 26 53  1  0  0  0  0
 26 54  1  0  0  0  0
 27 28  2  0  0  0  0
 27 32  1  0  0  0  0
 28 29  1  0  0  0  0
 28 55  1  0  0  0  0
 29 30  2  0  0  0  0
 29 56  1  0  0  0  0
 30 31  1  0  0  0  0
 30 57  1  0  0  0  0
 31 32  2  0  0  0  0
 31 33  1  0  0  0  0
 32 58  1  0  0  0  0
 33 34  2  0  0  0  0
 33 35  1  0  0  0  0
 34 59  1  0  0  0  0
 35 60  1  0  0  0  0
 35 61  1  0  0  0  0
 36 62  1  0  0  0  0
 36 63  1  0  0  0  0
 36 64  1  0  0  0  0
M  END
$$$$
