RR8
 OpenBabel04121316183D

 58 61  0  0  1  0  0  0  0  0999 V2000
    1.0755    0.1081    0.0413 O   0  0  0  0  0  0  0  0  0  0  0  0
    2.3223    0.1592    0.0207 C   0  0  0  0  0  0  0  0  0  0  0  0
    3.0385   -0.8694   -1.0017 C   0  0  1  0  0  0  0  0  0  0  0  0
    2.7219   -0.5072   -1.9939 H   0  0  0  0  0  0  0  0  0  0  0  0
    4.5314   -1.1386   -1.1105 C   0  0  0  0  0  0  0  0  0  0  0  0
    4.7729   -2.4061   -1.7290 N   0  0  0  0  0  0  0  0  0  0  0  0
    3.7449   -3.2623   -1.1106 C   0  0  0  0  0  0  0  0  0  0  0  0
    2.5382   -2.3203   -0.7999 C   0  0  2  0  0  0  0  0  0  0  0  0
    2.1823   -2.4704    0.2263 H   0  0  0  0  0  0  0  0  0  0  0  0
    1.4581   -2.7465   -1.7515 C   0  0  0  0  0  0  0  0  0  0  0  0
    1.6616   -3.6676   -2.5451 O   0  0  0  0  0  0  0  0  0  0  0  0
    0.2508   -2.0802   -1.6448 N   0  0  0  0  0  0  0  0  0  0  0  0
   -0.7682   -2.4188   -2.5562 C   0  0  0  0  0  0  0  0  0  0  0  0
   -0.9892   -3.7683   -2.8645 C   0  0  0  0  0  0  0  0  0  0  0  0
   -1.7617   -4.1295   -3.9572 C   0  0  0  0  0  0  0  0  0  0  0  0
   -2.4343   -3.1399   -4.6585 C   0  0  0  0  0  0  0  0  0  0  0  0
   -2.3492   -1.8024   -4.2583 C   0  0  0  0  0  0  0  0  0  0  0  0
   -1.4784   -1.4292   -3.2271 C   0  0  0  0  0  0  0  0  0  0  0  0
   -3.3574   -3.5745   -6.0423 Cl  0  0  0  0  0  0  0  0  0  0  0  0
    5.1358   -2.1741   -3.3236 S   0  0  0  0  0  0  0  0  0  0  0  0
    3.8724   -1.8410   -3.9761 O   0  0  0  0  0  0  0  0  0  0  0  0
    6.2448   -1.2634   -3.3801 O   0  0  0  0  0  0  0  0  0  0  0  0
    5.7144   -3.7592   -3.7875 C   0  0  0  0  0  0  0  0  0  0  0  0
    2.9039    1.1536    0.8280 N   0  0  0  0  0  0  0  0  0  0  0  0
    4.2817    1.3945    1.0457 C   0  0  0  0  0  0  0  0  0  0  0  0
    4.9832    2.3404    1.7403 C   0  0  0  0  0  0  0  0  0  0  0  0
    6.4134    2.3713    1.6023 C   0  0  0  0  0  0  0  0  0  0  0  0
    7.1337    1.4130    0.8533 C   0  0  0  0  0  0  0  0  0  0  0  0
    6.4088    0.3237    0.5053 C   0  0  0  0  0  0  0  0  0  0  0  0
    5.0649    0.3205    0.8609 C   0  0  0  0  0  0  0  0  0  0  0  0
    4.4515   -0.8068    1.2604 F   0  0  0  0  0  0  0  0  0  0  0  0
    8.5319    1.5064    0.5424 N   0  0  0  0  0  0  0  0  0  0  0  0
    9.0866    2.7685    0.3944 C   0  0  0  0  0  0  0  0  0  0  0  0
   10.3191    2.9593   -0.0811 C   0  0  0  0  0  0  0  0  0  0  0  0
   11.1746    1.8383   -0.3373 C   0  0  0  0  0  0  0  0  0  0  0  0
   10.7415    0.5965   -0.1030 C   0  0  0  0  0  0  0  0  0  0  0  0
    9.3153    0.3482    0.2612 C   0  0  0  0  0  0  0  0  0  0  0  0
    8.9680   -0.8298    0.3199 O   0  0  0  0  0  0  0  0  0  0  0  0
    5.0551   -1.5078   -0.2366 H   0  0  0  0  0  0  0  0  0  0  0  0
    5.0671   -0.3087   -1.5672 H   0  0  0  0  0  0  0  0  0  0  0  0
    4.1252   -3.6303   -0.1415 H   0  0  0  0  0  0  0  0  0  0  0  0
    3.5849   -4.1641   -1.6992 H   0  0  0  0  0  0  0  0  0  0  0  0
    0.2311   -1.1723   -1.1793 H   0  0  0  0  0  0  0  0  0  0  0  0
   -0.5028   -4.5487   -2.2827 H   0  0  0  0  0  0  0  0  0  0  0  0
   -1.8058   -5.1725   -4.2538 H   0  0  0  0  0  0  0  0  0  0  0  0
   -2.9305   -1.0448   -4.7748 H   0  0  0  0  0  0  0  0  0  0  0  0
   -1.3022   -0.3761   -3.0275 H   0  0  0  0  0  0  0  0  0  0  0  0
    4.9519   -4.4908   -3.5371 H   0  0  0  0  0  0  0  0  0  0  0  0
    6.6457   -3.9443   -3.2432 H   0  0  0  0  0  0  0  0  0  0  0  0
    5.8949   -3.7067   -4.8585 H   0  0  0  0  0  0  0  0  0  0  0  0
    2.2385    1.6905    1.3799 H   0  0  0  0  0  0  0  0  0  0  0  0
    4.5084    2.9613    2.4920 H   0  0  0  0  0  0  0  0  0  0  0  0
    6.9733    3.1114    2.1623 H   0  0  0  0  0  0  0  0  0  0  0  0
    6.8309   -0.5257   -0.0249 H   0  0  0  0  0  0  0  0  0  0  0  0
    8.4567    3.6198    0.6182 H   0  0  0  0  0  0  0  0  0  0  0  0
   10.6940    3.9626   -0.2410 H   0  0  0  0  0  0  0  0  0  0  0  0
   12.1911    2.0290   -0.6600 H   0  0  0  0  0  0  0  0  0  0  0  0
   11.3792   -0.2758   -0.1846 H   0  0  0  0  0  0  0  0  0  0  0  0
  1  2  2  0  0  0  0
  2  3  1  0  0  0  0
  2 24  1  0  0  0  0
  3  4  1  6  0  0  0
  3  5  1  0  0  0  0
  3  8  1  0  0  0  0
  5  6  1  0  0  0  0
  5 39  1  0  0  0  0
  5 40  1  0  0  0  0
  6  7  1  0  0  0  0
  6 20  1  0  0  0  0
  7  8  1  0  0  0  0
  7 41  1  0  0  0  0
  7 42  1  0  0  0  0
  8  9  1  1  0  0  0
  8 10  1  0  0  0  0
 10 11  2  0  0  0  0
 10 12  1  0  0  0  0
 12 13  1  0  0  0  0
 12 43  1  0  0  0  0
 13 14  2  0  0  0  0
 13 18  1  0  0  0  0
 14 15  1  0  0  0  0
 14 44  1  0  0  0  0
 15 16  2  0  0  0  0
 15 45  1  0  0  0  0
 16 17  1  0  0  0  0
 16 19  1  0  0  0  0
 17 18  2  0  0  0  0
 17 46  1  0  0  0  0
 18 47  1  0  0  0  0
 20 21  2  0  0  0  0
 20 22  2  0  0  0  0
 20 23  1  0  0  0  0
 23 48  1  0  0  0  0
 23 49  1  0  0  0  0
 23 50  1  0  0  0  0
 24 25  1  0  0  0  0
 24 51  1  0  0  0  0
 25 26  2  0  0  0  0
 25 30  1  0  0  0  0
 26 27  1  0  0  0  0
 26 52  1  0  0  0  0
 27 28  2  0  0  0  0
 27 53  1  0  0  0  0
 28 29  1  0  0  0  0
 28 32  1  0  0  0  0
 29 30  2  0  0  0  0
 29 54  1  0  0  0  0
 30 31  1  0  0  0  0
 32 33  1  0  0  0  0
 32 37  1  0  0  0  0
 33 34  2  0  0  0  0
 33 55  1  0  0  0  0
 34 35  1  0  0  0  0
 34 56  1  0  0  0  0
 35 36  2  0  0  0  0
 35 57  1  0  0  0  0
 36 37  1  0  0  0  0
 36 58  1  0  0  0  0
 37 38  2  0  0  0  0
M  END
$$$$
