RT8
 OpenBabel04121316183D

 58 61  0  0  1  0  0  0  0  0999 V2000
    3.0120    0.4314    1.5195 C   0  0  0  0  0  0  0  0  0  0  0  0
    2.5325    0.0765    0.1233 C   0  0  2  0  0  0  0  0  0  0  0  0
    1.4334    0.0718    0.1180 H   0  0  0  0  0  0  0  0  0  0  0  0
    3.0282   -1.3291   -0.2328 C   0  0  0  0  0  0  0  0  0  0  0  0
    2.5826   -1.7088   -1.6207 C   0  0  0  0  0  0  0  0  0  0  0  0
    3.0853   -0.6883   -2.6281 C   0  0  2  0  0  0  0  0  0  0  0  0
    4.1831   -0.6779   -2.6687 H   0  0  0  0  0  0  0  0  0  0  0  0
    2.5876    0.7235   -2.3087 C   0  0  0  0  0  0  0  0  0  0  0  0
    3.0132    1.1168   -0.9003 C   0  0  0  0  0  0  0  0  0  0  0  0
    2.5164   -1.1790   -3.9206 C   0  0  0  0  0  0  0  0  0  0  0  0
    1.4160   -0.8453   -4.3230 O   0  0  0  0  0  0  0  0  0  0  0  0
    3.3382   -2.0776   -4.5805 N   0  0  0  0  0  0  0  0  0  0  0  0
    3.0415   -2.3245   -5.9855 C   0  0  1  0  0  0  0  0  0  0  0  0
    2.0148   -2.7029   -6.0604 H   0  0  0  0  0  0  0  0  0  0  0  0
    3.2420   -0.9219   -6.5969 C   0  0  0  0  0  0  0  0  0  0  0  0
    4.3607   -0.5506   -6.9721 O   0  0  0  0  0  0  0  0  0  0  0  0
    2.1192   -0.0991   -6.6257 N   0  0  0  0  0  0  0  0  0  0  0  0
    2.0300    1.1146   -7.3499 C   0  0  0  0  0  0  0  0  0  0  0  0
    2.7855    1.3613   -8.4975 C   0  0  0  0  0  0  0  0  0  0  0  0
    2.5853    2.5022   -9.2403 C   0  0  0  0  0  0  0  0  0  0  0  0
    1.7328    3.4629   -8.8704 N   0  0  0  0  0  0  0  0  0  0  0  0
    1.0496    3.2426   -7.7219 C   0  0  0  0  0  0  0  0  0  0  0  0
    1.1397    2.0922   -6.9452 C   0  0  0  0  0  0  0  0  0  0  0  0
    4.0367   -3.3059   -6.6417 C   0  0  0  0  0  0  0  0  0  0  0  0
    3.6660   -3.7583   -8.0481 C   0  0  0  0  0  0  0  0  0  0  0  0
    3.7522   -5.0588   -8.5088 C   0  0  0  0  0  0  0  0  0  0  0  0
    3.3560   -5.0975   -9.8253 N   0  0  0  0  0  0  0  0  0  0  0  0
    3.2979   -5.9301  -10.3893 H   0  0  0  0  0  0  0  0  0  0  0  0
    3.0315   -3.8446  -10.2776 C   0  0  0  0  0  0  0  0  0  0  0  0
    3.1996   -3.0064   -9.1879 C   0  0  0  0  0  0  0  0  0  0  0  0
    2.8409   -1.6848   -9.4433 C   0  0  0  0  0  0  0  0  0  0  0  0
    2.4485   -1.1453  -10.6571 C   0  0  0  0  0  0  0  0  0  0  0  0
    2.3058   -2.0000  -11.7086 C   0  0  0  0  0  0  0  0  0  0  0  0
    2.5699   -3.3675  -11.5304 C   0  0  0  0  0  0  0  0  0  0  0  0
    4.1062    0.4388    1.5611 H   0  0  0  0  0  0  0  0  0  0  0  0
    2.6484   -0.3055    2.2427 H   0  0  0  0  0  0  0  0  0  0  0  0
    2.6454    1.4171    1.8164 H   0  0  0  0  0  0  0  0  0  0  0  0
    2.6418   -2.0692    0.4747 H   0  0  0  0  0  0  0  0  0  0  0  0
    4.1236   -1.3685   -0.1885 H   0  0  0  0  0  0  0  0  0  0  0  0
    1.4846   -1.7524   -1.6611 H   0  0  0  0  0  0  0  0  0  0  0  0
    2.9418   -2.7123   -1.8778 H   0  0  0  0  0  0  0  0  0  0  0  0
    1.4935    0.7767   -2.3823 H   0  0  0  0  0  0  0  0  0  0  0  0
    2.9773    1.4441   -3.0400 H   0  0  0  0  0  0  0  0  0  0  0  0
    2.6090    2.1067   -0.6588 H   0  0  0  0  0  0  0  0  0  0  0  0
    4.1070    1.1992   -0.8674 H   0  0  0  0  0  0  0  0  0  0  0  0
    4.2954   -2.1898   -4.2681 H   0  0  0  0  0  0  0  0  0  0  0  0
    1.4163   -0.2856   -5.9016 H   0  0  0  0  0  0  0  0  0  0  0  0
    3.5238    0.6805   -8.8910 H   0  0  0  0  0  0  0  0  0  0  0  0
    3.1332    2.6397  -10.1683 H   0  0  0  0  0  0  0  0  0  0  0  0
    0.3980    4.0591   -7.4332 H   0  0  0  0  0  0  0  0  0  0  0  0
    0.5690    2.0021   -6.0287 H   0  0  0  0  0  0  0  0  0  0  0  0
    4.1417   -4.1936   -5.9975 H   0  0  0  0  0  0  0  0  0  0  0  0
    5.0471   -2.8707   -6.6617 H   0  0  0  0  0  0  0  0  0  0  0  0
    4.0588   -5.9636   -8.0014 H   0  0  0  0  0  0  0  0  0  0  0  0
    2.8009   -1.0349   -8.6270 H   0  0  0  0  0  0  0  0  0  0  0  0
    2.2175   -0.0876  -10.7444 H   0  0  0  0  0  0  0  0  0  0  0  0
    1.9466   -1.5877  -12.6460 H   0  0  0  0  0  0  0  0  0  0  0  0
    2.3971   -4.0386  -12.3592 H   0  0  0  0  0  0  0  0  0  0  0  0
  1 35  1  0  0  0  0
  1 36  1  0  0  0  0
  1 37  1  0  0  0  0
  2  4  1  0  0  0  0
  2  9  1  0  0  0  0
  2  3  1  1  0  0  0
  2  1  1  0  0  0  0
  4  5  1  0  0  0  0
  4 38  1  0  0  0  0
  4 39  1  0  0  0  0
  5  6  1  0  0  0  0
  5 40  1  0  0  0  0
  5 41  1  0  0  0  0
  6  8  1  0  0  0  0
  6 10  1  0  0  0  0
  6  7  1  6  0  0  0
  8  9  1  0  0  0  0
  8 42  1  0  0  0  0
  8 43  1  0  0  0  0
  9 44  1  0  0  0  0
  9 45  1  0  0  0  0
 10 11  2  0  0  0  0
 10 12  1  0  0  0  0
 12 13  1  0  0  0  0
 12 46  1  0  0  0  0
 13 14  1  6  0  0  0
 13 15  1  0  0  0  0
 13 24  1  0  0  0  0
 15 16  2  0  0  0  0
 15 17  1  0  0  0  0
 17 18  1  0  0  0  0
 17 47  1  0  0  0  0
 18 19  2  0  0  0  0
 18 23  1  0  0  0  0
 19 20  1  0  0  0  0
 19 48  1  0  0  0  0
 20 21  2  0  0  0  0
 20 49  1  0  0  0  0
 21 22  1  0  0  0  0
 22 23  2  0  0  0  0
 22 50  1  0  0  0  0
 23 51  1  0  0  0  0
 24 25  1  0  0  0  0
 24 52  1  0  0  0  0
 24 53  1  0  0  0  0
 25 26  2  0  0  0  0
 25 30  1  0  0  0  0
 26 27  1  0  0  0  0
 26 54  1  0  0  0  0
 27 28  1  0  0  0  0
 27 29  1  0  0  0  0
 29 30  2  0  0  0  0
 29 34  1  0  0  0  0
 30 31  1  0  0  0  0
 31 32  2  0  0  0  0
 31 55  1  0  0  0  0
 32 33  1  0  0  0  0
 32 56  1  0  0  0  0
 33 34  2  0  0  0  0
 33 57  1  0  0  0  0
 34 58  1  0  0  0  0
M  END
$$$$
