RUM
 OpenBabel04121316183D

 42 44  0  0  1  0  0  0  0  0999 V2000
    1.5250    1.0427    1.3864 N   0  0  0  0  0  0  0  0  0  0  0  0
    2.5315    0.5479    1.0783 C   0  0  0  0  0  0  0  0  0  0  0  0
    3.8250    0.2215    0.5961 C   0  0  0  0  0  0  0  0  0  0  0  0
    4.5480    1.3759    0.3132 C   0  0  0  0  0  0  0  0  0  0  0  0
    5.8503    1.3129   -0.1219 C   0  0  0  0  0  0  0  0  0  0  0  0
    6.4730    0.0761   -0.1932 C   0  0  0  0  0  0  0  0  0  0  0  0
    5.7405   -1.0985    0.0278 C   0  0  0  0  0  0  0  0  0  0  0  0
    4.3510   -1.0378    0.2902 C   0  0  0  0  0  0  0  0  0  0  0  0
    3.5287   -2.2885    0.0278 C   0  0  0  0  0  0  0  0  0  0  0  0
    2.0543   -2.2068   -0.1109 N   0  0  0  0  0  0  0  0  0  0  0  0
    1.2737   -3.3577   -0.0122 C   0  0  0  0  0  0  0  0  0  0  0  0
   -0.0298   -3.2914    0.0452 N   0  0  0  0  0  0  0  0  0  0  0  0
   -0.6092   -2.0523   -0.0459 C   0  0  0  0  0  0  0  0  0  0  0  0
    0.0131   -0.9437   -0.4434 C   0  0  0  0  0  0  0  0  0  0  0  0
    1.4509   -1.1527   -0.7902 C   0  0  0  0  0  0  0  0  0  0  0  0
    2.0485   -0.4193   -1.5753 O   0  0  0  0  0  0  0  0  0  0  0  0
   -0.8678    0.6954   -0.5555 Br  0  0  0  0  0  0  0  0  0  0  0  0
    1.8860   -4.5958   -0.0674 N   0  0  0  0  0  0  0  0  0  0  0  0
    1.7802   -5.5955    0.9916 C   0  0  0  0  0  0  0  0  0  0  0  0
    1.5703   -6.9919    0.3993 C   0  0  0  0  0  0  0  0  0  0  0  0
    2.6285   -7.3125   -0.6594 C   0  0  0  0  0  0  0  0  0  0  0  0
    2.6253   -6.2597   -1.7679 C   0  0  2  0  0  0  0  0  0  0  0  0
    3.4427   -6.4545   -2.4709 H   0  0  0  0  0  0  0  0  0  0  0  0
    2.8580   -4.8911   -1.1295 C   0  0  0  0  0  0  0  0  0  0  0  0
    1.3668   -6.2584   -2.5197 N   0  0  0  0  0  0  0  0  0  0  0  0
    4.0344    2.3326    0.3950 H   0  0  0  0  0  0  0  0  0  0  0  0
    6.3552    2.2383   -0.3693 H   0  0  0  0  0  0  0  0  0  0  0  0
    7.5234    0.0372   -0.4642 H   0  0  0  0  0  0  0  0  0  0  0  0
    6.2610   -2.0533   -0.0627 H   0  0  0  0  0  0  0  0  0  0  0  0
    3.7805   -3.0334    0.7987 H   0  0  0  0  0  0  0  0  0  0  0  0
    3.9065   -2.6735   -0.9289 H   0  0  0  0  0  0  0  0  0  0  0  0
   -1.6734   -1.9902    0.1651 H   0  0  0  0  0  0  0  0  0  0  0  0
    0.9752   -5.3729    1.7004 H   0  0  0  0  0  0  0  0  0  0  0  0
    2.7205   -5.5882    1.5576 H   0  0  0  0  0  0  0  0  0  0  0  0
    0.5719   -7.0497   -0.0485 H   0  0  0  0  0  0  0  0  0  0  0  0
    1.6081   -7.7481    1.1897 H   0  0  0  0  0  0  0  0  0  0  0  0
    2.4620   -8.3096   -1.0784 H   0  0  0  0  0  0  0  0  0  0  0  0
    3.6187   -7.3279   -0.1818 H   0  0  0  0  0  0  0  0  0  0  0  0
    2.7997   -4.1366   -1.9236 H   0  0  0  0  0  0  0  0  0  0  0  0
    3.8637   -4.8691   -0.6954 H   0  0  0  0  0  0  0  0  0  0  0  0
    0.6118   -5.9630   -1.8924 H   0  0  0  0  0  0  0  0  0  0  0  0
    1.1398   -7.1981   -2.8333 H   0  0  0  0  0  0  0  0  0  0  0  0
  1  2  3  0  0  0  0
  2  3  1  0  0  0  0
  3  4  2  0  0  0  0
  3  8  1  0  0  0  0
  4  5  1  0  0  0  0
  4 26  1  0  0  0  0
  5  6  2  0  0  0  0
  5 27  1  0  0  0  0
  6  7  1  0  0  0  0
  6 28  1  0  0  0  0
  7  8  2  0  0  0  0
  7 29  1  0  0  0  0
  8  9  1  0  0  0  0
  9 10  1  0  0  0  0
  9 30  1  0  0  0  0
  9 31  1  0  0  0  0
 10 11  1  0  0  0  0
 10 15  1  0  0  0  0
 11 12  2  0  0  0  0
 11 18  1  0  0  0  0
 12 13  1  0  0  0  0
 13 14  2  0  0  0  0
 13 32  1  0  0  0  0
 14 15  1  0  0  0  0
 14 17  1  0  0  0  0
 15 16  2  0  0  0  0
 18 19  1  0  0  0  0
 18 24  1  0  0  0  0
 19 20  1  0  0  0  0
 19 33  1  0  0  0  0
 19 34  1  0  0  0  0
 20 21  1  0  0  0  0
 20 35  1  0  0  0  0
 20 36  1  0  0  0  0
 21 22  1  0  0  0  0
 21 37  1  0  0  0  0
 21 38  1  0  0  0  0
 22 24  1  0  0  0  0
 22 25  1  0  0  0  0
 22 23  1  6  0  0  0
 24 39  1  0  0  0  0
 24 40  1  0  0  0  0
 25 41  1  0  0  0  0
 25 42  1  0  0  0  0
M  END
$$$$
