RUP
 OpenBabel04121316183D

 73 77  0  0  1  0  0  0  0  0999 V2000
    1.0397   -0.0534   -0.1769 O   0  0  0  0  0  0  0  0  0  0  0  0
    2.2530    0.1206   -0.1041 C   0  0  0  0  0  0  0  0  0  0  0  0
    2.8967    1.0521    0.7051 N   0  0  0  0  0  0  0  0  0  0  0  0
    2.1040    1.9549    1.5575 C   0  0  1  0  0  0  0  0  0  0  0  0
    1.2268    1.1101    2.5196 C   0  0  0  0  0  0  0  0  0  0  0  0
    0.2018    1.9852    3.2196 C   0  0  1  0  0  0  0  0  0  0  0  0
   -0.4424    1.3467    3.8339 H   0  0  0  0  0  0  0  0  0  0  0  0
    0.9331    2.9929    4.1080 C   0  0  0  0  0  0  0  0  0  0  0  0
    1.8246    3.8992    3.2361 C   0  0  1  0  0  0  0  0  0  0  0  0
    2.3000    4.6392    3.8922 H   0  0  0  0  0  0  0  0  0  0  0  0
    2.8638    2.9776    2.5047 C   0  0  0  0  0  0  0  0  0  0  0  0
    1.0109    4.6454    2.1701 C   0  0  0  0  0  0  0  0  0  0  0  0
    0.2718    3.6410    1.2916 C   0  0  1  0  0  0  0  0  0  0  0  0
   -0.3300    4.1581    0.5397 H   0  0  0  0  0  0  0  0  0  0  0  0
    1.3152    2.8202    0.5699 C   0  0  0  0  0  0  0  0  0  0  0  0
   -0.6132    2.7150    2.1452 C   0  0  0  0  0  0  0  0  0  0  0  0
    3.0367   -0.7335   -0.7941 N   0  0  0  0  0  0  0  0  0  0  0  0
    4.4895   -0.8575   -0.8070 C   0  0  1  0  0  0  0  0  0  0  0  0
    4.8880    0.1297   -1.0735 H   0  0  0  0  0  0  0  0  0  0  0  0
    4.9702   -1.2585    0.6122 C   0  0  0  0  0  0  0  0  0  0  0  0
    5.4196   -2.3675    0.9134 O   0  0  0  0  0  0  0  0  0  0  0  0
    4.8248   -0.3029    1.5846 N   0  0  0  0  0  0  0  0  0  0  0  0
    5.1890   -0.6417    2.9272 C   0  0  0  0  0  0  0  0  0  0  0  0
    4.6906    0.4111    3.8946 C   0  0  0  0  0  0  0  0  0  0  0  0
    5.0957    0.1517    5.3001 C   0  0  0  0  0  0  0  0  0  0  0  0
    5.5484    1.2066    6.0916 C   0  0  0  0  0  0  0  0  0  0  0  0
    6.1313    0.9225    7.3164 C   0  0  0  0  0  0  0  0  0  0  0  0
    6.1318   -0.3873    7.7990 C   0  0  0  0  0  0  0  0  0  0  0  0
    5.5160   -1.4079    7.0811 C   0  0  0  0  0  0  0  0  0  0  0  0
    5.0227   -1.1440    5.8185 C   0  0  0  0  0  0  0  0  0  0  0  0
    4.9347   -1.9164   -1.8463 C   0  0  0  0  0  0  0  0  0  0  0  0
    6.4415   -1.9738   -1.9550 C   0  0  0  0  0  0  0  0  0  0  0  0
    7.1841   -2.8190   -1.1235 C   0  0  0  0  0  0  0  0  0  0  0  0
    8.5598   -2.6840   -1.0092 C   0  0  0  0  0  0  0  0  0  0  0  0
    9.2126   -1.6849   -1.7210 C   0  0  0  0  0  0  0  0  0  0  0  0
    8.5019   -0.8734   -2.6157 C   0  0  0  0  0  0  0  0  0  0  0  0
    7.1204   -1.0657   -2.7669 C   0  0  0  0  0  0  0  0  0  0  0  0
    9.1777    0.2334   -3.3603 C   0  0  0  0  0  0  0  0  0  0  0  0
   10.4325    0.5315   -3.2268 N   0  0  0  0  0  0  0  0  0  0  0  0
    8.4891    1.0212   -4.2230 N   0  0  0  0  0  0  0  0  0  0  0  0
    3.7391    1.4463    0.2952 H   0  0  0  0  0  0  0  0  0  0  0  0
    1.8373    0.6152    3.2774 H   0  0  0  0  0  0  0  0  0  0  0  0
    0.7162    0.2828    2.0271 H   0  0  0  0  0  0  0  0  0  0  0  0
    1.5668    2.4654    4.8364 H   0  0  0  0  0  0  0  0  0  0  0  0
    0.2050    3.5649    4.6941 H   0  0  0  0  0  0  0  0  0  0  0  0
    3.4142    2.4739    3.2953 H   0  0  0  0  0  0  0  0  0  0  0  0
    3.6076    3.5701    1.9587 H   0  0  0  0  0  0  0  0  0  0  0  0
    1.7050    5.2400    1.5594 H   0  0  0  0  0  0  0  0  0  0  0  0
    0.2932    5.3467    2.6057 H   0  0  0  0  0  0  0  0  0  0  0  0
    2.0252    3.4605    0.0226 H   0  0  0  0  0  0  0  0  0  0  0  0
    0.8185    2.2281   -0.1994 H   0  0  0  0  0  0  0  0  0  0  0  0
   -1.0948    1.9702    1.4990 H   0  0  0  0  0  0  0  0  0  0  0  0
   -1.4003    3.3021    2.6238 H   0  0  0  0  0  0  0  0  0  0  0  0
    2.4867   -1.4049   -1.3209 H   0  0  0  0  0  0  0  0  0  0  0  0
    3.9163    0.1453    1.5357 H   0  0  0  0  0  0  0  0  0  0  0  0
    6.2787   -0.7256    2.9571 H   0  0  0  0  0  0  0  0  0  0  0  0
    4.7488   -1.6196    3.1440 H   0  0  0  0  0  0  0  0  0  0  0  0
    3.6059    0.4348    3.8937 H   0  0  0  0  0  0  0  0  0  0  0  0
    5.0680    1.3852    3.5648 H   0  0  0  0  0  0  0  0  0  0  0  0
    5.4876    2.2344    5.7388 H   0  0  0  0  0  0  0  0  0  0  0  0
    6.5978    1.7192    7.8865 H   0  0  0  0  0  0  0  0  0  0  0  0
    6.6088   -0.6146    8.7451 H   0  0  0  0  0  0  0  0  0  0  0  0
    5.4417   -2.4140    7.4796 H   0  0  0  0  0  0  0  0  0  0  0  0
    4.6085   -1.9612    5.2326 H   0  0  0  0  0  0  0  0  0  0  0  0
    4.5070   -1.6859   -2.8320 H   0  0  0  0  0  0  0  0  0  0  0  0
    4.5419   -2.9054   -1.5784 H   0  0  0  0  0  0  0  0  0  0  0  0
    6.6876   -3.5473   -0.4848 H   0  0  0  0  0  0  0  0  0  0  0  0
    9.1085   -3.3297   -0.3291 H   0  0  0  0  0  0  0  0  0  0  0  0
   10.2752   -1.5696   -1.5481 H   0  0  0  0  0  0  0  0  0  0  0  0
    6.5420   -0.4938   -3.4828 H   0  0  0  0  0  0  0  0  0  0  0  0
   10.9107   -0.0714   -2.5590 H   0  0  0  0  0  0  0  0  0  0  0  0
    7.5062    0.9456   -4.4196 H   0  0  0  0  0  0  0  0  0  0  0  0
    9.0126    1.7541   -4.6820 H   0  0  0  0  0  0  0  0  0  0  0  0
  1  2  2  0  0  0  0
  2  3  1  0  0  0  0
  2 17  1  0  0  0  0
  3 41  1  0  0  0  0
  4  5  1  0  0  0  0
  4 11  1  0  0  0  0
  4 15  1  0  0  0  0
  4  3  1  6  0  0  0
  5  6  1  0  0  0  0
  5 42  1  0  0  0  0
  5 43  1  0  0  0  0
  6  8  1  0  0  0  0
  6 16  1  0  0  0  0
  6  7  1  1  0  0  0
  8  9  1  0  0  0  0
  8 44  1  0  0  0  0
  8 45  1  0  0  0  0
  9 11  1  0  0  0  0
  9 12  1  0  0  0  0
  9 10  1  1  0  0  0
 11 46  1  0  0  0  0
 11 47  1  0  0  0  0
 12 13  1  0  0  0  0
 12 48  1  0  0  0  0
 12 49  1  0  0  0  0
 13 15  1  0  0  0  0
 13 16  1  0  0  0  0
 13 14  1  6  0  0  0
 15 50  1  0  0  0  0
 15 51  1  0  0  0  0
 16 52  1  0  0  0  0
 16 53  1  0  0  0  0
 17 18  1  0  0  0  0
 17 54  1  0  0  0  0
 18 19  1  6  0  0  0
 18 20  1  0  0  0  0
 18 31  1  0  0  0  0
 20 21  2  0  0  0  0
 20 22  1  0  0  0  0
 22 23  1  0  0  0  0
 22 55  1  0  0  0  0
 23 24  1  0  0  0  0
 23 56  1  0  0  0  0
 23 57  1  0  0  0  0
 24 25  1  0  0  0  0
 24 58  1  0  0  0  0
 24 59  1  0  0  0  0
 25 26  2  0  0  0  0
 25 30  1  0  0  0  0
 26 27  1  0  0  0  0
 26 60  1  0  0  0  0
 27 28  2  0  0  0  0
 27 61  1  0  0  0  0
 28 29  1  0  0  0  0
 28 62  1  0  0  0  0
 29 30  2  0  0  0  0
 29 63  1  0  0  0  0
 30 64  1  0  0  0  0
 31 32  1  0  0  0  0
 31 65  1  0  0  0  0
 31 66  1  0  0  0  0
 32 33  2  0  0  0  0
 32 37  1  0  0  0  0
 33 34  1  0  0  0  0
 33 67  1  0  0  0  0
 34 35  2  0  0  0  0
 34 68  1  0  0  0  0
 35 36  1  0  0  0  0
 35 69  1  0  0  0  0
 36 37  2  0  0  0  0
 36 38  1  0  0  0  0
 37 70  1  0  0  0  0
 38 39  2  0  0  0  0
 38 40  1  0  0  0  0
 39 71  1  0  0  0  0
 40 72  1  0  0  0  0
 40 73  1  0  0  0  0
M  END
$$$$
