RW1
 OpenBabel04121316183D

 20 21  0  0  0  0  0  0  0  0999 V2000
   -1.4197   -0.1035   -0.0017 C   0  0  0  0  0  0  0  0  0  0  0  0
   -0.8182    1.1452    0.0476 C   0  0  0  0  0  0  0  0  0  0  0  0
    0.5728    1.2447    0.0080 C   0  0  0  0  0  0  0  0  0  0  0  0
    1.4108    0.1110   -0.0020 C   0  0  0  0  0  0  0  0  0  0  0  0
    0.7695   -1.1422    0.0496 C   0  0  0  0  0  0  0  0  0  0  0  0
   -0.6281   -1.2478    0.0044 C   0  0  0  0  0  0  0  0  0  0  0  0
    2.8869    0.2341   -0.1452 C   0  0  0  0  0  0  0  0  0  0  0  0
    3.5199    1.4673   -0.2283 C   0  0  0  0  0  0  0  0  0  0  0  0
    4.8483    1.4693   -0.5871 C   0  0  0  0  0  0  0  0  0  0  0  0
    5.5679    0.3560   -0.7530 N   0  0  0  0  0  0  0  0  0  0  0  0
    4.9019   -0.7917   -0.5532 C   0  0  0  0  0  0  0  0  0  0  0  0
    3.5885   -0.9114   -0.2852 N   0  0  0  0  0  0  0  0  0  0  0  0
   -2.5021   -0.1805   -0.0469 H   0  0  0  0  0  0  0  0  0  0  0  0
   -1.4194    2.0488    0.0912 H   0  0  0  0  0  0  0  0  0  0  0  0
    0.9791    2.2498   -0.0437 H   0  0  0  0  0  0  0  0  0  0  0  0
    1.3572   -2.0579    0.0944 H   0  0  0  0  0  0  0  0  0  0  0  0
   -1.0969   -2.2280   -0.0366 H   0  0  0  0  0  0  0  0  0  0  0  0
    3.0191    2.4057   -0.0627 H   0  0  0  0  0  0  0  0  0  0  0  0
    5.3683    2.4071   -0.7612 H   0  0  0  0  0  0  0  0  0  0  0  0
    5.4827   -1.7037   -0.6040 H   0  0  0  0  0  0  0  0  0  0  0  0
  1  2  2  0  0  0  0
  1  6  1  0  0  0  0
  1 13  1  0  0  0  0
  2  3  1  0  0  0  0
  2 14  1  0  0  0  0
  3  4  2  0  0  0  0
  3 15  1  0  0  0  0
  4  5  1  0  0  0  0
  4  7  1  0  0  0  0
  5  6  2  0  0  0  0
  5 16  1  0  0  0  0
  6 17  1  0  0  0  0
  7  8  2  0  0  0  0
  7 12  1  0  0  0  0
  8  9  1  0  0  0  0
  8 18  1  0  0  0  0
  9 10  2  0  0  0  0
  9 19  1  0  0  0  0
 10 11  1  0  0  0  0
 11 12  2  0  0  0  0
 11 20  1  0  0  0  0
M  END
$$$$
