RYN
 OpenBabel04121316183D

 32 32  0  0  0  0  0  0  0  0999 V2000
    0.9693   -0.0103    0.0931 C   0  0  0  0  0  0  0  0  0  0  0  0
    2.4928   -0.0113    0.1214 C   0  0  0  0  0  0  0  0  0  0  0  0
    2.9730   -1.0856    0.9762 N   0  0  0  0  0  0  0  0  0  0  0  0
    4.3382   -1.3154    1.0121 C   0  0  0  0  0  0  0  0  0  0  0  0
    5.1479   -0.2538    1.0290 N   0  0  0  0  0  0  0  0  0  0  0  0
    6.4289   -0.4963    1.2277 C   0  0  0  0  0  0  0  0  0  0  0  0
    7.2776    0.5879    1.2689 N   0  0  0  0  0  0  0  0  0  0  0  0
    8.7136    0.4426    1.4279 C   0  0  0  0  0  0  0  0  0  0  0  0
    9.3213   -0.2970    0.2331 C   0  0  0  0  0  0  0  0  0  0  0  0
    9.3738    1.8213    1.5266 C   0  0  0  0  0  0  0  0  0  0  0  0
    6.9242   -1.7101    1.3605 N   0  0  0  0  0  0  0  0  0  0  0  0
    6.0652   -2.7188    1.2527 C   0  0  0  0  0  0  0  0  0  0  0  0
    4.7517   -2.5823    1.1061 N   0  0  0  0  0  0  0  0  0  0  0  0
    6.8774   -4.3103    1.3040 S   0  0  0  0  0  0  0  0  0  0  0  0
    5.5346   -5.5031    1.1419 C   0  0  0  0  0  0  0  0  0  0  0  0
    0.5943    0.8290   -0.5027 H   0  0  0  0  0  0  0  0  0  0  0  0
    0.5580    0.0792    1.1038 H   0  0  0  0  0  0  0  0  0  0  0  0
    0.5814   -0.9354   -0.3472 H   0  0  0  0  0  0  0  0  0  0  0  0
    2.8322    0.9579    0.5055 H   0  0  0  0  0  0  0  0  0  0  0  0
    2.8616   -0.1134   -0.9080 H   0  0  0  0  0  0  0  0  0  0  0  0
    2.4327   -1.9368    1.0358 H   0  0  0  0  0  0  0  0  0  0  0  0
    6.8306    1.4901    1.2296 H   0  0  0  0  0  0  0  0  0  0  0  0
    8.9320   -0.1015    2.3560 H   0  0  0  0  0  0  0  0  0  0  0  0
    9.1184    0.2386   -0.7005 H   0  0  0  0  0  0  0  0  0  0  0  0
    8.9207   -1.3069    0.1167 H   0  0  0  0  0  0  0  0  0  0  0  0
   10.4039   -0.4006    0.3500 H   0  0  0  0  0  0  0  0  0  0  0  0
    9.1971    2.4136    0.6212 H   0  0  0  0  0  0  0  0  0  0  0  0
   10.4589    1.7193    1.6496 H   0  0  0  0  0  0  0  0  0  0  0  0
    8.9925    2.3927    2.3788 H   0  0  0  0  0  0  0  0  0  0  0  0
    5.9734   -6.5078    1.1896 H   0  0  0  0  0  0  0  0  0  0  0  0
    5.0265   -5.4101    0.1797 H   0  0  0  0  0  0  0  0  0  0  0  0
    4.8225   -5.4130    1.9641 H   0  0  0  0  0  0  0  0  0  0  0  0
  1  2  1  0  0  0  0
  1 16  1  0  0  0  0
  1 17  1  0  0  0  0
  1 18  1  0  0  0  0
  2  3  1  0  0  0  0
  2 19  1  0  0  0  0
  2 20  1  0  0  0  0
  3  4  1  0  0  0  0
  3 21  1  0  0  0  0
  4  5  2  0  0  0  0
  4 13  1  0  0  0  0
  5  6  1  0  0  0  0
  6  7  1  0  0  0  0
  6 11  2  0  0  0  0
  7  8  1  0  0  0  0
  7 22  1  0  0  0  0
  8  9  1  0  0  0  0
  8 10  1  0  0  0  0
  8 23  1  0  0  0  0
  9 24  1  0  0  0  0
  9 25  1  0  0  0  0
  9 26  1  0  0  0  0
 10 27  1  0  0  0  0
 10 28  1  0  0  0  0
 10 29  1  0  0  0  0
 11 12  1  0  0  0  0
 12 13  2  0  0  0  0
 12 14  1  0  0  0  0
 14 15  1  0  0  0  0
 15 30  1  0  0  0  0
 15 31  1  0  0  0  0
 15 32  1  0  0  0  0
M  END
$$$$
