S1A
 OpenBabel04121316183D

 81 83  0  0  1  0  0  0  0  0999 V2000
    0.7998   -0.0047   -0.0998 C   0  0  0  0  0  0  0  0  0  0  0  0
    2.2095   -0.0398   -0.0486 O   0  0  0  0  0  0  0  0  0  0  0  0
    2.6175    0.4728    1.2111 C   0  0  2  0  0  0  0  0  0  0  0  0
    2.0328    1.3668    1.4466 H   0  0  0  0  0  0  0  0  0  0  0  0
    3.9851    1.0481    0.9605 C   0  0  0  0  0  0  0  0  0  0  0  0
    4.3698    2.2953    1.4086 C   0  0  0  0  0  0  0  0  0  0  0  0
    5.7022    2.4690    2.1934 C   0  0  2  0  0  0  0  0  0  0  0  0
    6.6015    2.2720    1.5899 H   0  0  0  0  0  0  0  0  0  0  0  0
    5.4627    1.1106    2.9028 C   0  0  0  0  0  0  0  0  0  0  0  0
    6.0955    4.0068    2.8963 C   0  0  2  0  0  0  0  0  0  0  0  0
    6.0980    4.6645    2.0096 H   0  0  0  0  0  0  0  0  0  0  0  0
    7.4768    4.0148    3.3766 O   0  0  0  0  0  0  0  0  0  0  0  0
    7.3892    3.9581    4.7905 C   0  0  2  0  0  0  0  0  0  0  0  0
    8.2469    4.9318    5.3779 O   0  0  0  0  0  0  0  0  0  0  0  0
    7.7518    2.6301    5.4889 C   0  0  2  0  0  0  0  0  0  0  0  0
    8.7707    2.2707    5.3862 H   0  0  0  0  0  0  0  0  0  0  0  0
    6.9527    1.7547    4.6813 C   0  0  0  0  0  0  0  0  0  0  0  0
    7.2554    2.4069    6.9111 C   0  0  0  0  0  0  0  0  0  0  0  0
    7.1570    3.2930    7.7479 O   0  0  0  0  0  0  0  0  0  0  0  0
    6.8270    1.1075    7.1040 O   0  0  0  0  0  0  0  0  0  0  0  0
    5.3810    1.0121    7.0860 C   0  0  1  0  0  0  0  0  0  0  0  0
    5.0377    1.6345    6.2912 H   0  0  0  0  0  0  0  0  0  0  0  0
    4.8581   -0.2910    6.5379 C   0  0  0  0  0  0  0  0  0  0  0  0
    3.3855   -0.1169    6.1544 C   0  0  0  0  0  0  0  0  0  0  0  0
    3.1946   -0.7167    4.7891 C   0  0  0  0  0  0  0  0  0  0  0  0
    2.3705    0.0726    3.7966 C   0  0  0  0  0  0  0  0  0  0  0  0
    2.2270   -0.5498    2.3882 C   0  0  2  0  0  0  0  0  0  0  0  0
    1.1419   -0.5874    2.3226 H   0  0  0  0  0  0  0  0  0  0  0  0
    2.5222   -1.9506    2.1700 O   0  0  0  0  0  0  0  0  0  0  0  0
    2.2208   -2.7936    3.2824 C   0  0  0  0  0  0  0  0  0  0  0  0
    4.9186    1.5110    8.4098 C   0  0  0  0  0  0  0  0  0  0  0  0
    4.3387    2.7733    8.5624 C   0  0  0  0  0  0  0  0  0  0  0  0
    4.5904    3.5636    9.6647 C   0  0  0  0  0  0  0  0  0  0  0  0
    5.1331    2.9466   10.7672 C   0  0  0  0  0  0  0  0  0  0  0  0
    5.4693    1.5902   10.7163 C   0  0  0  0  0  0  0  0  0  0  0  0
    5.4617    0.9019    9.5171 C   0  0  0  0  0  0  0  0  0  0  0  0
    5.8795    4.3027    5.0373 C   0  0  1  0  0  0  0  0  0  0  0  0
    5.9541    3.9776    6.0753 H   0  0  0  0  0  0  0  0  0  0  0  0
    5.6497    5.8821    5.0678 C   0  0  2  0  0  0  0  0  0  0  0  0
    4.7161    6.3810    5.3519 H   0  0  0  0  0  0  0  0  0  0  0  0
    5.0456    5.0256    4.1555 C   0  0  2  0  0  0  0  0  0  0  0  0
    4.5036    5.2331    3.1982 H   0  0  0  0  0  0  0  0  0  0  0  0
    4.1487    4.2554    5.8758 C   0  0  0  0  0  0  0  0  0  0  0  0
    6.5892    6.8479    4.8905 O   0  0  0  0  0  0  0  0  0  0  0  0
    4.2971    3.4778    4.2166 O   0  0  0  0  0  0  0  0  0  0  0  0
    2.9120    4.7725    4.2376 C   0  0  0  0  0  0  0  0  0  0  0  0
    0.4838   -0.2974   -1.0918 H   0  0  0  0  0  0  0  0  0  0  0  0
    0.4544    1.0059    0.1424 H   0  0  0  0  0  0  0  0  0  0  0  0
    0.3750   -0.7168    0.6080 H   0  0  0  0  0  0  0  0  0  0  0  0
    4.6940    0.2457    0.7326 H   0  0  0  0  0  0  0  0  0  0  0  0
    3.5738    2.9004    1.8434 H   0  0  0  0  0  0  0  0  0  0  0  0
    4.4720    1.1347    3.3270 H   0  0  0  0  0  0  0  0  0  0  0  0
    5.9019    0.4664    3.6348 H   0  0  0  0  0  0  0  0  0  0  0  0
    5.7571    0.3648    2.1708 H   0  0  0  0  0  0  0  0  0  0  0  0
    9.1472    4.5940    5.2519 H   0  0  0  0  0  0  0  0  0  0  0  0
    5.9241    2.1327    4.7044 H   0  0  0  0  0  0  0  0  0  0  0  0
    6.8921    0.7387    5.0179 H   0  0  0  0  0  0  0  0  0  0  0  0
    7.3847    1.7928    3.6872 H   0  0  0  0  0  0  0  0  0  0  0  0
    5.0275   -1.1526    7.1812 H   0  0  0  0  0  0  0  0  0  0  0  0
    5.4359   -0.5063    5.6324 H   0  0  0  0  0  0  0  0  0  0  0  0
    2.9980    0.9084    6.1675 H   0  0  0  0  0  0  0  0  0  0  0  0
    2.7836   -0.6845    6.8759 H   0  0  0  0  0  0  0  0  0  0  0  0
    2.6694   -1.6112    5.0899 H   0  0  0  0  0  0  0  0  0  0  0  0
    4.1293   -1.0006    4.2927 H   0  0  0  0  0  0  0  0  0  0  0  0
    2.7141    1.1023    3.7172 H   0  0  0  0  0  0  0  0  0  0  0  0
    1.3610    0.2081    4.1953 H   0  0  0  0  0  0  0  0  0  0  0  0
    1.9314   -3.8197    3.0559 H   0  0  0  0  0  0  0  0  0  0  0  0
    1.4101   -2.3832    3.9067 H   0  0  0  0  0  0  0  0  0  0  0  0
    3.1729   -2.8988    3.8097 H   0  0  0  0  0  0  0  0  0  0  0  0
    3.7647    3.2237    7.7889 H   0  0  0  0  0  0  0  0  0  0  0  0
    4.3642    4.6277    9.6450 H   0  0  0  0  0  0  0  0  0  0  0  0
    5.2782    3.5216   11.6710 H   0  0  0  0  0  0  0  0  0  0  0  0
    5.8050    1.0735   11.6003 H   0  0  0  0  0  0  0  0  0  0  0  0
    5.9830   -0.0434    9.3950 H   0  0  0  0  0  0  0  0  0  0  0  0
    4.4762    4.7664    6.7961 H   0  0  0  0  0  0  0  0  0  0  0  0
    4.4247    3.1600    6.0098 H   0  0  0  0  0  0  0  0  0  0  0  0
    3.0804    3.8819    5.9942 H   0  0  0  0  0  0  0  0  0  0  0  0
    7.1037    6.8055    5.7244 H   0  0  0  0  0  0  0  0  0  0  0  0
    1.9830    4.3053    4.0143 H   0  0  0  0  0  0  0  0  0  0  0  0
    3.1248    5.7336    3.7079 H   0  0  0  0  0  0  0  0  0  0  0  0
    2.8260    5.3628    5.2328 H   0  0  0  0  0  0  0  0  0  0  0  0
  1  2  1  0  0  0  0
  1 47  1  0  0  0  0
  1 48  1  0  0  0  0
  1 49  1  0  0  0  0
  2  3  1  0  0  0  0
  3  5  1  0  0  0  0
  3 27  1  0  0  0  0
  3  4  1  1  0  0  0
  5  6  2  0  0  0  0
  5 50  1  0  0  0  0
  6  7  1  0  0  0  0
  6 51  1  0  0  0  0
  7 10  1  0  0  0  0
  7  8  1  6  0  0  0
  7  9  1  0  0  0  0
  9 52  1  0  0  0  0
  9 53  1  0  0  0  0
  9 54  1  0  0  0  0
 10 12  1  0  0  0  0
 10 41  1  0  0  0  0
 10 11  1  6  0  0  0
 12 13  1  0  0  0  0
 13 15  1  0  0  0  0
 13 37  1  0  0  0  0
 13 14  1  1  0  0  0
 14 55  1  0  0  0  0
 15 18  1  0  0  0  0
 15 16  1  6  0  0  0
 15 17  1  0  0  0  0
 17 56  1  0  0  0  0
 17 57  1  0  0  0  0
 17 58  1  0  0  0  0
 18 20  1  0  0  0  0
 18 19  2  0  0  0  0
 20 21  1  0  0  0  0
 21 23  1  0  0  0  0
 21 31  1  0  0  0  0
 21 22  1  6  0  0  0
 23 24  1  0  0  0  0
 23 59  1  0  0  0  0
 23 60  1  0  0  0  0
 24 25  1  0  0  0  0
 24 61  1  0  0  0  0
 24 62  1  0  0  0  0
 25 26  1  0  0  0  0
 25 63  1  0  0  0  0
 25 64  1  0  0  0  0
 26 27  1  0  0  0  0
 26 65  1  0  0  0  0
 26 66  1  0  0  0  0
 27 29  1  0  0  0  0
 27 28  1  6  0  0  0
 29 30  1  0  0  0  0
 30 67  1  0  0  0  0
 30 68  1  0  0  0  0
 30 69  1  0  0  0  0
 31 32  2  0  0  0  0
 31 36  1  0  0  0  0
 32 33  1  0  0  0  0
 32 70  1  0  0  0  0
 33 34  2  0  0  0  0
 33 71  1  0  0  0  0
 34 35  1  0  0  0  0
 34 72  1  0  0  0  0
 35 36  2  0  0  0  0
 35 73  1  0  0  0  0
 36 74  1  0  0  0  0
 37 39  1  0  0  0  0
 37 38  1  1  0  0  0
 37 45  1  0  0  0  0
 39 41  1  0  0  0  0
 39 44  1  0  0  0  0
 39 40  1  1  0  0  0
 41 43  1  0  0  0  0
 41 42  1  6  0  0  0
 43 75  1  0  0  0  0
 43 76  1  0  0  0  0
 43 77  1  0  0  0  0
 44 78  1  0  0  0  0
 45 46  1  0  0  0  0
 46 79  1  0  0  0  0
 46 80  1  0  0  0  0
 46 81  1  0  0  0  0
M  END
$$$$
