S1P
 OpenBabel04121316183D

 63 62  0  0  1  0  0  0  0  0999 V2000
    1.6170  -12.6279   16.0732 C   0  0  0  0  0  0  0  0  0  0  0  0
    3.0942  -12.2860   16.0654 C   0  0  0  0  0  0  0  0  0  0  0  0
    3.5577  -11.9631   14.6520 C   0  0  0  0  0  0  0  0  0  0  0  0
    5.0386  -11.6200   14.6418 C   0  0  0  0  0  0  0  0  0  0  0  0
    5.4910  -11.2995   13.2273 C   0  0  0  0  0  0  0  0  0  0  0  0
    6.9696  -10.9574   13.2203 C   0  0  0  0  0  0  0  0  0  0  0  0
    7.4191  -10.6378   11.8075 C   0  0  0  0  0  0  0  0  0  0  0  0
    8.8960  -10.2967   11.8041 C   0  0  0  0  0  0  0  0  0  0  0  0
    9.3417   -9.9782   10.3924 C   0  0  0  0  0  0  0  0  0  0  0  0
   10.8161   -9.6380   10.3904 C   0  0  0  0  0  0  0  0  0  0  0  0
   11.2512   -9.3214    8.9775 C   0  0  0  0  0  0  0  0  0  0  0  0
   12.7202   -8.9796    8.9752 C   0  0  0  0  0  0  0  0  0  0  0  0
   13.1457   -8.6564    7.5614 C   0  0  0  0  0  0  0  0  0  0  0  0
   14.5830   -8.3131    7.5879 C   0  0  0  0  0  0  0  0  0  0  0  0
   15.2362   -8.0092    6.4670 C   0  0  0  0  0  0  0  0  0  0  0  0
   16.6953   -7.7200    6.4507 C   0  0  2  0  0  0  0  0  0  0  0  0
   16.8819   -6.7670    6.9631 H   0  0  0  0  0  0  0  0  0  0  0  0
   17.2032   -7.6277    5.0006 C   0  0  2  0  0  0  0  0  0  0  0  0
   16.8685   -8.5019    4.4272 H   0  0  0  0  0  0  0  0  0  0  0  0
   18.7216   -7.5477    4.9731 C   0  0  0  0  0  0  0  0  0  0  0  0
   19.4976   -8.5573    5.6101 O   0  0  0  0  0  0  0  0  0  0  0  0
   21.0095   -8.5338    5.0828 P   0  0  0  0  0  0  0  0  0  0  0  0
   21.1859   -9.0673    3.6978 O   0  0  0  0  0  0  0  0  0  0  0  0
   21.3649   -6.9863    5.2640 O   0  0  0  0  0  0  0  0  0  0  0  0
   21.9633   -9.2164    6.1545 O   0  0  0  0  0  0  0  0  0  0  0  0
   16.6691   -6.3948    4.3468 N   0  0  0  0  0  0  0  0  0  0  0  0
   17.3721   -8.7455    7.1653 O   0  0  0  0  0  0  0  0  0  0  0  0
    1.2870  -12.8593   17.0892 H   0  0  0  0  0  0  0  0  0  0  0  0
    1.4177  -13.4972   15.4384 H   0  0  0  0  0  0  0  0  0  0  0  0
    1.0234  -11.7873   15.6998 H   0  0  0  0  0  0  0  0  0  0  0  0
    3.6696  -13.1302   16.4630 H   0  0  0  0  0  0  0  0  0  0  0  0
    3.2771  -11.4283   16.7231 H   0  0  0  0  0  0  0  0  0  0  0  0
    2.9811  -11.1193   14.2531 H   0  0  0  0  0  0  0  0  0  0  0  0
    3.3734  -12.8206   13.9931 H   0  0  0  0  0  0  0  0  0  0  0  0
    5.6210  -12.4621   15.0354 H   0  0  0  0  0  0  0  0  0  0  0  0
    5.2284  -10.7599   15.2956 H   0  0  0  0  0  0  0  0  0  0  0  0
    4.9124  -10.4561   12.8305 H   0  0  0  0  0  0  0  0  0  0  0  0
    5.3049  -12.1581   12.5703 H   0  0  0  0  0  0  0  0  0  0  0  0
    7.5512  -11.7998   13.6146 H   0  0  0  0  0  0  0  0  0  0  0  0
    7.1586  -10.0976   13.8748 H   0  0  0  0  0  0  0  0  0  0  0  0
    6.8405   -9.7944   11.4109 H   0  0  0  0  0  0  0  0  0  0  0  0
    7.2331  -11.4966   11.1507 H   0  0  0  0  0  0  0  0  0  0  0  0
    9.4777  -11.1392   12.1982 H   0  0  0  0  0  0  0  0  0  0  0  0
    9.0851   -9.4368   12.4584 H   0  0  0  0  0  0  0  0  0  0  0  0
    8.7637   -9.1345    9.9956 H   0  0  0  0  0  0  0  0  0  0  0  0
    9.1562  -10.8369    9.7353 H   0  0  0  0  0  0  0  0  0  0  0  0
   11.4001  -10.4797   10.7830 H   0  0  0  0  0  0  0  0  0  0  0  0
   11.0073   -8.7773   11.0434 H   0  0  0  0  0  0  0  0  0  0  0  0
   10.6730   -8.4774    8.5819 H   0  0  0  0  0  0  0  0  0  0  0  0
   11.0677  -10.1807    8.3211 H   0  0  0  0  0  0  0  0  0  0  0  0
   13.3065   -9.8220    9.3675 H   0  0  0  0  0  0  0  0  0  0  0  0
   12.9112   -8.1219    9.6344 H   0  0  0  0  0  0  0  0  0  0  0  0
   12.5695   -7.8103    7.1706 H   0  0  0  0  0  0  0  0  0  0  0  0
   12.9810   -9.5226    6.9089 H   0  0  0  0  0  0  0  0  0  0  0  0
   15.1041   -8.3291    8.5406 H   0  0  0  0  0  0  0  0  0  0  0  0
   14.6961   -7.9759    5.5211 H   0  0  0  0  0  0  0  0  0  0  0  0
   18.9787   -6.6077    5.4693 H   0  0  0  0  0  0  0  0  0  0  0  0
   19.0374   -7.4952    3.9276 H   0  0  0  0  0  0  0  0  0  0  0  0
   20.9400   -6.6606    6.0828 H   0  0  0  0  0  0  0  0  0  0  0  0
   22.7604   -9.5347    5.6828 H   0  0  0  0  0  0  0  0  0  0  0  0
   17.0695   -6.2961    3.4135 H   0  0  0  0  0  0  0  0  0  0  0  0
   16.9833   -5.5739    4.8697 H   0  0  0  0  0  0  0  0  0  0  0  0
   17.0635   -8.7328    8.0829 H   0  0  0  0  0  0  0  0  0  0  0  0
  1  2  1  0  0  0  0
  1 28  1  0  0  0  0
  1 29  1  0  0  0  0
  1 30  1  0  0  0  0
  2  3  1  0  0  0  0
  2 31  1  0  0  0  0
  2 32  1  0  0  0  0
  3  4  1  0  0  0  0
  3 33  1  0  0  0  0
  3 34  1  0  0  0  0
  4  5  1  0  0  0  0
  4 35  1  0  0  0  0
  4 36  1  0  0  0  0
  5  6  1  0  0  0  0
  5 37  1  0  0  0  0
  5 38  1  0  0  0  0
  6  7  1  0  0  0  0
  6 39  1  0  0  0  0
  6 40  1  0  0  0  0
  7  8  1  0  0  0  0
  7 41  1  0  0  0  0
  7 42  1  0  0  0  0
  8  9  1  0  0  0  0
  8 43  1  0  0  0  0
  8 44  1  0  0  0  0
  9 10  1  0  0  0  0
  9 45  1  0  0  0  0
  9 46  1  0  0  0  0
 10 11  1  0  0  0  0
 10 47  1  0  0  0  0
 10 48  1  0  0  0  0
 11 12  1  0  0  0  0
 11 49  1  0  0  0  0
 11 50  1  0  0  0  0
 12 13  1  0  0  0  0
 12 51  1  0  0  0  0
 12 52  1  0  0  0  0
 13 14  1  0  0  0  0
 13 53  1  0  0  0  0
 13 54  1  0  0  0  0
 14 15  2  0  0  0  0
 14 55  1  0  0  0  0
 15 56  1  0  0  0  0
 16 27  1  0  0  0  0
 16 17  1  1  0  0  0
 16 15  1  0  0  0  0
 18 20  1  0  0  0  0
 18 26  1  0  0  0  0
 18 19  1  6  0  0  0
 18 16  1  0  0  0  0
 20 21  1  0  0  0  0
 20 57  1  0  0  0  0
 20 58  1  0  0  0  0
 21 22  1  0  0  0  0
 22 23  2  0  0  0  0
 22 24  1  0  0  0  0
 22 25  1  0  0  0  0
 24 59  1  0  0  0  0
 25 60  1  0  0  0  0
 26 61  1  0  0  0  0
 26 62  1  0  0  0  0
 27 63  1  0  0  0  0
M  END
$$$$
