S23
 OpenBabel04121316183D

 56 57  0  0  1  0  0  0  0  0999 V2000
    2.4292    0.1330   -0.3740 O   0  0  0  0  0  0  0  0  0  0  0  0
    2.6926   -0.9424   -0.9058 C   0  0  0  0  0  0  0  0  0  0  0  0
    3.8768   -1.8533   -0.4250 C   0  0  1  0  0  0  0  0  0  0  0  0
    3.5680   -2.8878   -0.2461 H   0  0  0  0  0  0  0  0  0  0  0  0
    5.0001   -1.8809   -1.4183 C   0  0  0  0  0  0  0  0  0  0  0  0
    4.7175   -2.5899   -3.0147 P   0  0  2  0  0  0  0  0  0  0  0  0
    4.4531   -1.1915   -3.6141 O   0  0  0  0  0  0  0  0  0  0  0  0
    3.2539   -3.3696   -3.5875 C   0  0  1  0  0  0  0  0  0  0  0  0
    3.3308   -4.2688   -4.2047 H   0  0  0  0  0  0  0  0  0  0  0  0
    2.6204   -3.7474   -2.3212 N   0  0  0  0  0  0  0  0  0  0  0  0
    2.6720   -2.3223   -4.4819 C   0  0  0  0  0  0  0  0  0  0  0  0
    5.0138   -4.1565   -2.3433 O   0  0  0  0  0  0  0  0  0  0  0  0
    4.3477   -1.2842    0.9094 C   0  0  0  0  0  0  0  0  0  0  0  0
    5.5212   -1.9515    1.5726 C   0  0  0  0  0  0  0  0  0  0  0  0
    5.3510   -2.4882    2.8462 C   0  0  0  0  0  0  0  0  0  0  0  0
    6.4685   -2.8492    3.5886 C   0  0  0  0  0  0  0  0  0  0  0  0
    7.7318   -2.8649    2.9973 C   0  0  0  0  0  0  0  0  0  0  0  0
    7.8853   -2.5021    1.6696 C   0  0  0  0  0  0  0  0  0  0  0  0
    6.8083   -1.9337    1.0126 C   0  0  0  0  0  0  0  0  0  0  0  0
    1.8683   -1.4201   -1.8909 N   0  0  0  0  0  0  0  0  0  0  0  0
    0.7381   -0.8570   -2.7798 C   0  0  2  0  0  0  0  0  0  0  0  0
    1.1194    0.0821   -3.2045 H   0  0  0  0  0  0  0  0  0  0  0  0
   -0.4374   -0.5680   -1.8596 C   0  0  0  0  0  0  0  0  0  0  0  0
   -1.5797   -0.7845   -2.1443 O   0  0  0  0  0  0  0  0  0  0  0  0
   -0.0828   -0.0446   -0.6610 O   0  0  0  0  0  0  0  0  0  0  0  0
    0.0439   -1.7791   -4.0309 C   0  0  0  0  0  0  0  0  0  0  0  0
   -0.1811   -3.2992   -3.7103 C   0  0  0  0  0  0  0  0  0  0  0  0
   -0.5073   -3.6467   -2.3941 C   0  0  0  0  0  0  0  0  0  0  0  0
   -0.4202   -4.9525   -1.9145 C   0  0  0  0  0  0  0  0  0  0  0  0
   -0.1261   -5.9924   -2.7784 C   0  0  0  0  0  0  0  0  0  0  0  0
    0.1371   -5.7137   -4.1185 C   0  0  0  0  0  0  0  0  0  0  0  0
    0.1664   -4.3794   -4.5762 C   0  0  0  0  0  0  0  0  0  0  0  0
    5.8655   -2.4686   -1.1075 H   0  0  0  0  0  0  0  0  0  0  0  0
    5.4043   -0.8612   -1.5433 H   0  0  0  0  0  0  0  0  0  0  0  0
    3.1171   -4.4663   -1.7874 H   0  0  0  0  0  0  0  0  0  0  0  0
    1.6336   -3.9347   -2.3123 H   0  0  0  0  0  0  0  0  0  0  0  0
    3.0478   -2.1913   -5.4907 H   0  0  0  0  0  0  0  0  0  0  0  0
    2.5672   -1.3012   -4.0903 H   0  0  0  0  0  0  0  0  0  0  0  0
    1.7534   -2.7736   -4.5187 H   0  0  0  0  0  0  0  0  0  0  0  0
    4.9034   -4.9010   -2.9694 H   0  0  0  0  0  0  0  0  0  0  0  0
    3.4814   -1.3418    1.5811 H   0  0  0  0  0  0  0  0  0  0  0  0
    4.5897   -0.2203    0.8067 H   0  0  0  0  0  0  0  0  0  0  0  0
    4.3592   -2.5559    3.2870 H   0  0  0  0  0  0  0  0  0  0  0  0
    6.3523   -3.1026    4.6365 H   0  0  0  0  0  0  0  0  0  0  0  0
    8.6046   -3.1374    3.5784 H   0  0  0  0  0  0  0  0  0  0  0  0
    8.8402   -2.5919    1.1611 H   0  0  0  0  0  0  0  0  0  0  0  0
    7.0157   -1.4562    0.0602 H   0  0  0  0  0  0  0  0  0  0  0  0
    2.2341   -2.3022   -2.1844 H   0  0  0  0  0  0  0  0  0  0  0  0
    0.8872    0.1278   -0.5960 H   0  0  0  0  0  0  0  0  0  0  0  0
    0.5893   -1.6580   -4.9941 H   0  0  0  0  0  0  0  0  0  0  0  0
   -0.8786   -1.3190   -4.4019 H   0  0  0  0  0  0  0  0  0  0  0  0
   -0.6557   -2.8958   -1.6347 H   0  0  0  0  0  0  0  0  0  0  0  0
   -0.5180   -5.1121   -0.8441 H   0  0  0  0  0  0  0  0  0  0  0  0
   -0.0846   -7.0059   -2.3904 H   0  0  0  0  0  0  0  0  0  0  0  0
    0.3512   -6.5403   -4.7942 H   0  0  0  0  0  0  0  0  0  0  0  0
    0.6038   -4.2149   -5.5671 H   0  0  0  0  0  0  0  0  0  0  0  0
  1  2  2  0  0  0  0
  2  3  1  0  0  0  0
  2 20  1  0  0  0  0
  3  4  1  1  0  0  0
  3  5  1  0  0  0  0
  3 13  1  0  0  0  0
  5 33  1  0  0  0  0
  5 34  1  0  0  0  0
  6  8  1  0  0  0  0
  6 12  1  6  0  0  0
  6  7  2  0  0  0  0
  6  5  1  0  0  0  0
  8  9  1  6  0  0  0
  8 10  1  0  0  0  0
  8 11  1  0  0  0  0
 10 35  1  0  0  0  0
 10 36  1  0  0  0  0
 11 37  1  0  0  0  0
 11 38  1  0  0  0  0
 11 39  1  0  0  0  0
 12 40  1  0  0  0  0
 13 14  1  0  0  0  0
 13 41  1  0  0  0  0
 13 42  1  0  0  0  0
 14 15  2  0  0  0  0
 14 19  1  0  0  0  0
 15 16  1  0  0  0  0
 15 43  1  0  0  0  0
 16 17  2  0  0  0  0
 16 44  1  0  0  0  0
 17 18  1  0  0  0  0
 17 45  1  0  0  0  0
 18 19  2  0  0  0  0
 18 46  1  0  0  0  0
 19 47  1  0  0  0  0
 20 48  1  0  0  0  0
 21 23  1  0  0  0  0
 21 26  1  0  0  0  0
 21 22  1  6  0  0  0
 21 20  1  0  0  0  0
 23 24  2  0  0  0  0
 23 25  1  0  0  0  0
 25 49  1  0  0  0  0
 26 27  1  0  0  0  0
 26 50  1  0  0  0  0
 26 51  1  0  0  0  0
 27 28  2  0  0  0  0
 27 32  1  0  0  0  0
 28 29  1  0  0  0  0
 28 52  1  0  0  0  0
 29 30  2  0  0  0  0
 29 53  1  0  0  0  0
 30 31  1  0  0  0  0
 30 54  1  0  0  0  0
 31 32  2  0  0  0  0
 31 55  1  0  0  0  0
 32 56  1  0  0  0  0
M  END
$$$$
