S2P
 OpenBabel04121316183D

 19 19  0  0  1  0  0  0  0  0999 V2000
    3.3514   -3.5275    0.8474 O   0  0  0  0  0  0  0  0  0  0  0  0
    2.6873   -2.3477    0.8642 C   0  0  0  0  0  0  0  0  0  0  0  0
    1.8699   -2.0776    1.7366 O   0  0  0  0  0  0  0  0  0  0  0  0
    3.0527   -1.3992   -0.2869 C   0  0  2  0  0  0  0  0  0  0  0  0
    2.5290   -0.4539   -0.0924 H   0  0  0  0  0  0  0  0  0  0  0  0
    2.6025   -1.9755   -1.6396 C   0  0  0  0  0  0  0  0  0  0  0  0
    1.1300   -2.2067   -1.7101 C   0  0  0  0  0  0  0  0  0  0  0  0
    0.6265   -3.4475   -1.7429 N   0  0  0  0  0  0  0  0  0  0  0  0
   -1.0458   -3.2261   -1.7777 S   0  0  0  0  0  0  0  0  0  0  0  0
   -1.1270   -1.5421   -1.7969 N   0  0  0  0  0  0  0  0  0  0  0  0
    0.1467   -1.1818   -1.7483 C   0  0  0  0  0  0  0  0  0  0  0  0
    0.3800    0.1348   -1.7368 O   0  0  0  0  0  0  0  0  0  0  0  0
    4.5049   -1.1024   -0.2579 N   0  0  0  0  0  0  0  0  0  0  0  0
    4.0485   -3.5670    0.1707 H   0  0  0  0  0  0  0  0  0  0  0  0
    3.1459   -2.9016   -1.8649 H   0  0  0  0  0  0  0  0  0  0  0  0
    2.8671   -1.2659   -2.4357 H   0  0  0  0  0  0  0  0  0  0  0  0
   -0.4929    0.5627   -1.7359 H   0  0  0  0  0  0  0  0  0  0  0  0
    4.7199   -0.3850   -0.9519 H   0  0  0  0  0  0  0  0  0  0  0  0
    5.0802   -1.9057   -0.4854 H   0  0  0  0  0  0  0  0  0  0  0  0
  1  2  1  0  0  0  0
  1 14  1  0  0  0  0
  2  3  2  0  0  0  0
  4  6  1  0  0  0  0
  4 13  1  0  0  0  0
  4  5  1  1  0  0  0
  4  2  1  0  0  0  0
  6  7  1  0  0  0  0
  6 15  1  0  0  0  0
  6 16  1  0  0  0  0
  7  8  2  0  0  0  0
  7 11  1  0  0  0  0
  8  9  1  0  0  0  0
  9 10  1  0  0  0  0
 10 11  2  0  0  0  0
 11 12  1  0  0  0  0
 12 17  1  0  0  0  0
 13 18  1  0  0  0  0
 13 19  1  0  0  0  0
M  END
$$$$
