S3H
 OpenBabel04121316183D

  5  4  0  0  0  0  0  0  0  0999 V2000
    1.0891    0.0264    0.0395 S   0  0  0  0  0  0  0  0  0  0  0  0
    3.1366   -0.0583    0.0430 S   0  0  0  0  0  0  0  0  0  0  0  0
    3.7392    1.8987   -0.0381 S   0  0  0  0  0  0  0  0  0  0  0  0
    0.8182   -1.2857    0.0938 H   0  0  0  0  0  0  0  0  0  0  0  0
    5.0676    1.7165   -0.0305 H   0  0  0  0  0  0  0  0  0  0  0  0
  1  2  1  0  0  0  0
  1  4  1  0  0  0  0
  2  3  1  0  0  0  0
  3  5  1  0  0  0  0
M  END
$$$$
