S48
 OpenBabel04121316183D

 68 72  0  0  1  0  0  0  0  0999 V2000
    1.2373    0.2150    0.0978 C   0  0  0  0  0  0  0  0  0  0  0  0
    2.6616    0.1406    0.0942 O   0  0  0  0  0  0  0  0  0  0  0  0
    3.1711   -0.9445    0.7523 C   0  0  0  0  0  0  0  0  0  0  0  0
    2.5418   -1.6650    1.5153 O   0  0  0  0  0  0  0  0  0  0  0  0
    4.6025   -1.1702    0.3468 C   0  0  0  0  0  0  0  0  0  0  0  0
    5.0559   -2.5835    0.5660 N   0  0  0  0  0  0  0  0  0  0  0  0
    4.4102   -3.7913   -0.5332 S   0  0  0  0  0  0  0  0  0  0  0  0
    4.7296   -3.3401   -1.8814 O   0  0  0  0  0  0  0  0  0  0  0  0
    4.8508   -5.0779   -0.0613 O   0  0  0  0  0  0  0  0  0  0  0  0
    2.6784   -3.8634   -0.5965 C   0  0  0  0  0  0  0  0  0  0  0  0
    1.8953   -4.9795   -0.3642 N   0  0  0  0  0  0  0  0  0  0  0  0
    0.6568   -4.5487   -0.4746 C   0  0  0  0  0  0  0  0  0  0  0  0
    0.6167   -3.2062   -0.6994 N   0  0  0  0  0  0  0  0  0  0  0  0
    1.8790   -2.8292   -1.0352 C   0  0  0  0  0  0  0  0  0  0  0  0
   -0.5434   -2.3600   -0.5942 C   0  0  0  0  0  0  0  0  0  0  0  0
    6.5683   -2.5951    0.6533 C   0  0  2  0  0  0  0  0  0  0  0  0
    6.9172   -1.5871    0.9330 H   0  0  0  0  0  0  0  0  0  0  0  0
    7.2184   -2.9356   -0.6786 C   0  0  0  0  0  0  0  0  0  0  0  0
    8.6368   -2.6644   -0.6361 N   0  0  0  0  0  0  0  0  0  0  0  0
    9.2949   -2.0318   -1.7759 C   0  0  0  0  0  0  0  0  0  0  0  0
    8.3911   -1.5484   -2.8646 C   0  0  0  0  0  0  0  0  0  0  0  0
    7.5184   -2.2479   -3.6808 C   0  0  0  0  0  0  0  0  0  0  0  0
    6.7815   -1.3981   -4.4585 N   0  0  0  0  0  0  0  0  0  0  0  0
    7.2057   -0.1956   -4.1495 C   0  0  0  0  0  0  0  0  0  0  0  0
    8.1767   -0.2340   -3.1911 N   0  0  0  0  0  0  0  0  0  0  0  0
    8.8480    0.9102   -2.6293 C   0  0  0  0  0  0  0  0  0  0  0  0
    9.3072   -3.2805    0.4116 C   0  0  0  0  0  0  0  0  0  0  0  0
    8.5982   -3.6890    1.5737 C   0  0  0  0  0  0  0  0  0  0  0  0
    7.0947   -3.5473    1.7039 C   0  0  0  0  0  0  0  0  0  0  0  0
    9.2723   -4.2663    2.6492 C   0  0  0  0  0  0  0  0  0  0  0  0
   10.6520   -4.4441    2.6030 C   0  0  0  0  0  0  0  0  0  0  0  0
   11.3522   -4.0713    1.4524 C   0  0  0  0  0  0  0  0  0  0  0  0
   10.6863   -3.4966    0.3732 C   0  0  0  0  0  0  0  0  0  0  0  0
   11.3395   -5.0434    3.7331 C   0  0  0  0  0  0  0  0  0  0  0  0
   12.1358   -4.2648    4.5813 C   0  0  0  0  0  0  0  0  0  0  0  0
   12.8818   -4.8724    5.5869 C   0  0  0  0  0  0  0  0  0  0  0  0
   12.7422   -6.2392    5.8238 C   0  0  0  0  0  0  0  0  0  0  0  0
   11.8551   -6.9972    5.0621 C   0  0  0  0  0  0  0  0  0  0  0  0
   11.1987   -6.4129    3.9853 C   0  0  0  0  0  0  0  0  0  0  0  0
    0.8959    1.2291   -0.1018 H   0  0  0  0  0  0  0  0  0  0  0  0
    0.7927   -0.1480    1.0295 H   0  0  0  0  0  0  0  0  0  0  0  0
    0.8829   -0.3578   -0.7540 H   0  0  0  0  0  0  0  0  0  0  0  0
    5.1707   -0.4863    0.9913 H   0  0  0  0  0  0  0  0  0  0  0  0
    4.7913   -0.8756   -0.6928 H   0  0  0  0  0  0  0  0  0  0  0  0
   -0.2378   -5.1465   -0.3850 H   0  0  0  0  0  0  0  0  0  0  0  0
    2.1530   -1.8601   -1.4176 H   0  0  0  0  0  0  0  0  0  0  0  0
   -1.4530   -2.9556   -0.5688 H   0  0  0  0  0  0  0  0  0  0  0  0
   -0.5636   -1.6852   -1.4532 H   0  0  0  0  0  0  0  0  0  0  0  0
   -0.4821   -1.7938    0.3420 H   0  0  0  0  0  0  0  0  0  0  0  0
    6.7212   -2.2891   -1.3932 H   0  0  0  0  0  0  0  0  0  0  0  0
    7.0637   -3.9816   -0.9700 H   0  0  0  0  0  0  0  0  0  0  0  0
   10.0200   -2.7085   -2.2403 H   0  0  0  0  0  0  0  0  0  0  0  0
    9.8620   -1.1853   -1.3710 H   0  0  0  0  0  0  0  0  0  0  0  0
    7.3275   -3.3160   -3.6691 H   0  0  0  0  0  0  0  0  0  0  0  0
    6.8423    0.7223   -4.5902 H   0  0  0  0  0  0  0  0  0  0  0  0
    8.4952    1.8201   -3.1190 H   0  0  0  0  0  0  0  0  0  0  0  0
    9.9207    0.7888   -2.7996 H   0  0  0  0  0  0  0  0  0  0  0  0
    8.6306    0.9539   -1.5586 H   0  0  0  0  0  0  0  0  0  0  0  0
    6.8384   -3.1615    2.6991 H   0  0  0  0  0  0  0  0  0  0  0  0
    6.6409   -4.5377    1.6099 H   0  0  0  0  0  0  0  0  0  0  0  0
    8.7155   -4.5760    3.5320 H   0  0  0  0  0  0  0  0  0  0  0  0
   12.4237   -4.2416    1.3820 H   0  0  0  0  0  0  0  0  0  0  0  0
   11.2691   -3.2458   -0.5066 H   0  0  0  0  0  0  0  0  0  0  0  0
   12.1764   -3.1849    4.4536 H   0  0  0  0  0  0  0  0  0  0  0  0
   13.5641   -4.2791    6.1882 H   0  0  0  0  0  0  0  0  0  0  0  0
   13.3202   -6.7143    6.6103 H   0  0  0  0  0  0  0  0  0  0  0  0
   11.6803   -8.0430    5.2948 H   0  0  0  0  0  0  0  0  0  0  0  0
   10.5728   -7.0220    3.3353 H   0  0  0  0  0  0  0  0  0  0  0  0
  1  2  1  0  0  0  0
  1 40  1  0  0  0  0
  1 41  1  0  0  0  0
  1 42  1  0  0  0  0
  2  3  1  0  0  0  0
  3  4  2  0  0  0  0
  3  5  1  0  0  0  0
  5  6  1  0  0  0  0
  5 43  1  0  0  0  0
  5 44  1  0  0  0  0
  6  7  1  0  0  0  0
  6 16  1  0  0  0  0
  7  8  2  0  0  0  0
  7  9  2  0  0  0  0
  7 10  1  0  0  0  0
 10 11  1  0  0  0  0
 10 14  2  0  0  0  0
 11 12  2  0  0  0  0
 12 13  1  0  0  0  0
 12 45  1  0  0  0  0
 13 14  1  0  0  0  0
 13 15  1  0  0  0  0
 14 46  1  0  0  0  0
 15 47  1  0  0  0  0
 15 48  1  0  0  0  0
 15 49  1  0  0  0  0
 16 17  1  1  0  0  0
 16 18  1  0  0  0  0
 16 29  1  0  0  0  0
 18 19  1  0  0  0  0
 18 50  1  0  0  0  0
 18 51  1  0  0  0  0
 19 20  1  0  0  0  0
 19 27  1  0  0  0  0
 20 21  1  0  0  0  0
 20 52  1  0  0  0  0
 20 53  1  0  0  0  0
 21 22  2  0  0  0  0
 21 25  1  0  0  0  0
 22 23  1  0  0  0  0
 22 54  1  0  0  0  0
 23 24  2  0  0  0  0
 24 25  1  0  0  0  0
 24 55  1  0  0  0  0
 25 26  1  0  0  0  0
 26 56  1  0  0  0  0
 26 57  1  0  0  0  0
 26 58  1  0  0  0  0
 27 28  2  0  0  0  0
 27 33  1  0  0  0  0
 28 29  1  0  0  0  0
 28 30  1  0  0  0  0
 29 59  1  0  0  0  0
 29 60  1  0  0  0  0
 30 31  2  0  0  0  0
 30 61  1  0  0  0  0
 31 32  1  0  0  0  0
 31 34  1  0  0  0  0
 32 33  2  0  0  0  0
 32 62  1  0  0  0  0
 33 63  1  0  0  0  0
 34 35  2  0  0  0  0
 34 39  1  0  0  0  0
 35 36  1  0  0  0  0
 35 64  1  0  0  0  0
 36 37  2  0  0  0  0
 36 65  1  0  0  0  0
 37 38  1  0  0  0  0
 37 66  1  0  0  0  0
 38 39  2  0  0  0  0
 38 67  1  0  0  0  0
 39 68  1  0  0  0  0
M  END
$$$$
