S51
 OpenBabel04121316183D

 55 59  0  0  0  0  0  0  0  0999 V2000
    1.0981    0.0806   -0.1920 O   0  0  0  0  0  0  0  0  0  0  0  0
    2.3214    0.1196   -0.0110 C   0  0  0  0  0  0  0  0  0  0  0  0
    2.9640   -0.5840    1.1148 C   0  0  0  0  0  0  0  0  0  0  0  0
    3.7977   -0.0310    2.1251 C   0  0  0  0  0  0  0  0  0  0  0  0
    4.2506    1.2722    2.4107 C   0  0  0  0  0  0  0  0  0  0  0  0
    5.0516    1.5237    3.5225 C   0  0  0  0  0  0  0  0  0  0  0  0
    5.4075    0.4942    4.3699 C   0  0  0  0  0  0  0  0  0  0  0  0
    4.9450   -0.7933    4.1378 C   0  0  0  0  0  0  0  0  0  0  0  0
    4.1468   -1.0554    3.0066 C   0  0  0  0  0  0  0  0  0  0  0  0
    3.4774   -2.2172    2.6191 N   0  0  0  0  0  0  0  0  0  0  0  0
    2.8522   -1.9607    1.3785 C   0  0  0  0  0  0  0  0  0  0  0  0
    2.2083   -2.9283    0.3952 C   0  0  0  0  0  0  0  0  0  0  0  0
    2.4115   -4.4150    0.5452 C   0  0  0  0  0  0  0  0  0  0  0  0
    3.6615   -4.9706    0.8507 C   0  0  0  0  0  0  0  0  0  0  0  0
    3.7566   -6.3054    1.2493 C   0  0  0  0  0  0  0  0  0  0  0  0
    2.6074   -7.0933    1.3376 C   0  0  0  0  0  0  0  0  0  0  0  0
    1.3720   -6.5671    0.9639 C   0  0  0  0  0  0  0  0  0  0  0  0
    1.2834   -5.2519    0.5111 C   0  0  0  0  0  0  0  0  0  0  0  0
    3.5065   -3.4216    3.4147 C   0  0  0  0  0  0  0  0  0  0  0  0
    4.7354   -3.8926    3.9281 C   0  0  0  0  0  0  0  0  0  0  0  0
    4.8780   -5.2189    4.3425 C   0  0  0  0  0  0  0  0  0  0  0  0
    3.7765   -6.0625    4.3288 C   0  0  0  0  0  0  0  0  0  0  0  0
    2.5199   -5.5547    3.9859 C   0  0  0  0  0  0  0  0  0  0  0  0
    2.3820   -4.2392    3.5167 C   0  0  0  0  0  0  0  0  0  0  0  0
    3.1991    0.6845   -0.9220 N   0  0  0  0  0  0  0  0  0  0  0  0
    3.2958    0.1034   -2.2596 C   0  0  0  0  0  0  0  0  0  0  0  0
    2.6507    0.9671   -3.3628 C   0  0  0  0  0  0  0  0  0  0  0  0
    3.1539    2.3512   -3.3474 N   0  0  0  0  0  0  0  0  0  0  0  0
    2.8717    2.9358   -2.0299 C   0  0  0  0  0  0  0  0  0  0  0  0
    3.4949    2.1167   -0.8822 C   0  0  0  0  0  0  0  0  0  0  0  0
    3.9561    2.1096    1.7979 H   0  0  0  0  0  0  0  0  0  0  0  0
    5.3677    2.5385    3.7364 H   0  0  0  0  0  0  0  0  0  0  0  0
    6.0132    0.6842    5.2495 H   0  0  0  0  0  0  0  0  0  0  0  0
    5.1734   -1.5571    4.8713 H   0  0  0  0  0  0  0  0  0  0  0  0
    2.5588   -2.6840   -0.6170 H   0  0  0  0  0  0  0  0  0  0  0  0
    1.1327   -2.7034    0.4039 H   0  0  0  0  0  0  0  0  0  0  0  0
    4.5222   -4.3229    1.0165 H   0  0  0  0  0  0  0  0  0  0  0  0
    4.6817   -6.6500    1.7096 H   0  0  0  0  0  0  0  0  0  0  0  0
    2.6555   -8.0537    1.8456 H   0  0  0  0  0  0  0  0  0  0  0  0
    0.4621   -7.1337    1.1425 H   0  0  0  0  0  0  0  0  0  0  0  0
    0.3075   -4.8421    0.2590 H   0  0  0  0  0  0  0  0  0  0  0  0
    5.6494   -3.3107    3.8692 H   0  0  0  0  0  0  0  0  0  0  0  0
    5.8706   -5.6185    4.5378 H   0  0  0  0  0  0  0  0  0  0  0  0
    3.9218   -7.1379    4.4201 H   0  0  0  0  0  0  0  0  0  0  0  0
    1.6891   -6.2460    3.8544 H   0  0  0  0  0  0  0  0  0  0  0  0
    1.4373   -3.9448    3.0666 H   0  0  0  0  0  0  0  0  0  0  0  0
    2.8606   -0.9013   -2.2709 H   0  0  0  0  0  0  0  0  0  0  0  0
    4.3689    0.0090   -2.4615 H   0  0  0  0  0  0  0  0  0  0  0  0
    1.5600    0.9749   -3.2508 H   0  0  0  0  0  0  0  0  0  0  0  0
    2.8772    0.5268   -4.3398 H   0  0  0  0  0  0  0  0  0  0  0  0
    2.6818    2.8946   -4.0693 H   0  0  0  0  0  0  0  0  0  0  0  0
    1.7873    3.0183   -1.8876 H   0  0  0  0  0  0  0  0  0  0  0  0
    3.2768    3.9544   -1.9994 H   0  0  0  0  0  0  0  0  0  0  0  0
    3.1502    2.5534    0.0547 H   0  0  0  0  0  0  0  0  0  0  0  0
    4.5869    2.1929   -0.9351 H   0  0  0  0  0  0  0  0  0  0  0  0
  1  2  2  0  0  0  0
  2  3  1  0  0  0  0
  2 25  1  0  0  0  0
  3  4  1  0  0  0  0
  3 11  2  0  0  0  0
  4  5  2  0  0  0  0
  4  9  1  0  0  0  0
  5  6  1  0  0  0  0
  5 31  1  0  0  0  0
  6  7  2  0  0  0  0
  6 32  1  0  0  0  0
  7  8  1  0  0  0  0
  7 33  1  0  0  0  0
  8  9  2  0  0  0  0
  8 34  1  0  0  0  0
  9 10  1  0  0  0  0
 10 11  1  0  0  0  0
 10 19  1  0  0  0  0
 11 12  1  0  0  0  0
 12 13  1  0  0  0  0
 12 35  1  0  0  0  0
 12 36  1  0  0  0  0
 13 14  2  0  0  0  0
 13 18  1  0  0  0  0
 14 15  1  0  0  0  0
 14 37  1  0  0  0  0
 15 16  2  0  0  0  0
 15 38  1  0  0  0  0
 16 17  1  0  0  0  0
 16 39  1  0  0  0  0
 17 18  2  0  0  0  0
 17 40  1  0  0  0  0
 18 41  1  0  0  0  0
 19 20  2  0  0  0  0
 19 24  1  0  0  0  0
 20 21  1  0  0  0  0
 20 42  1  0  0  0  0
 21 22  2  0  0  0  0
 21 43  1  0  0  0  0
 22 23  1  0  0  0  0
 22 44  1  0  0  0  0
 23 24  2  0  0  0  0
 23 45  1  0  0  0  0
 24 46  1  0  0  0  0
 25 26  1  0  0  0  0
 25 30  1  0  0  0  0
 26 27  1  0  0  0  0
 26 47  1  0  0  0  0
 26 48  1  0  0  0  0
 27 28  1  0  0  0  0
 27 49  1  0  0  0  0
 27 50  1  0  0  0  0
 28 29  1  0  0  0  0
 28 51  1  0  0  0  0
 29 30  1  0  0  0  0
 29 52  1  0  0  0  0
 29 53  1  0  0  0  0
 30 54  1  0  0  0  0
 30 55  1  0  0  0  0
M  END
$$$$
