S52
 OpenBabel04121316183D

 53 57  0  0  0  0  0  0  0  0999 V2000
    1.0190    0.2293   -0.0255 O   0  0  0  0  0  0  0  0  0  0  0  0
    2.2365    0.1615   -0.0545 C   0  0  0  0  0  0  0  0  0  0  0  0
    2.9287   -1.1129   -0.4905 C   0  0  0  0  0  0  0  0  0  0  0  0
    4.1945   -1.3223   -1.1771 C   0  0  0  0  0  0  0  0  0  0  0  0
    5.1724   -0.5144   -1.8064 C   0  0  0  0  0  0  0  0  0  0  0  0
    6.4775   -0.9341   -2.0446 C   0  0  0  0  0  0  0  0  0  0  0  0
    6.7555   -2.2738   -1.9828 C   0  0  0  0  0  0  0  0  0  0  0  0
    5.7577   -3.1597   -1.5904 C   0  0  0  0  0  0  0  0  0  0  0  0
    4.5134   -2.6669   -1.1175 C   0  0  0  0  0  0  0  0  0  0  0  0
    3.3688   -3.3306   -0.7073 N   0  0  0  0  0  0  0  0  0  0  0  0
    2.4078   -2.4066   -0.2332 C   0  0  0  0  0  0  0  0  0  0  0  0
    1.2321   -2.6826    0.3974 O   0  0  0  0  0  0  0  0  0  0  0  0
    0.7605   -3.9159    0.7955 C   0  0  0  0  0  0  0  0  0  0  0  0
    1.5654   -4.9074    1.3380 C   0  0  0  0  0  0  0  0  0  0  0  0
    1.1498   -6.2436    1.2725 C   0  0  0  0  0  0  0  0  0  0  0  0
   -0.1369   -6.5632    0.8602 C   0  0  0  0  0  0  0  0  0  0  0  0
   -1.0468   -5.5332    0.6638 C   0  0  0  0  0  0  0  0  0  0  0  0
   -0.5905   -4.2086    0.5877 C   0  0  0  0  0  0  0  0  0  0  0  0
    3.2956   -4.7350   -0.8937 C   0  0  0  0  0  0  0  0  0  0  0  0
    4.2676   -5.5594   -0.2839 C   0  0  0  0  0  0  0  0  0  0  0  0
    4.1637   -6.9435   -0.3791 C   0  0  0  0  0  0  0  0  0  0  0  0
    3.0607   -7.4992   -1.0258 C   0  0  0  0  0  0  0  0  0  0  0  0
    2.0756   -6.6733   -1.5848 C   0  0  0  0  0  0  0  0  0  0  0  0
    2.2071   -5.2857   -1.5615 C   0  0  0  0  0  0  0  0  0  0  0  0
    3.0154    1.2660    0.3726 N   0  0  0  0  0  0  0  0  0  0  0  0
    4.4539    1.3633    0.3118 C   0  0  0  0  0  0  0  0  0  0  0  0
    4.8176    2.3935   -0.7834 C   0  0  0  0  0  0  0  0  0  0  0  0
    4.4280    3.7336   -0.3384 N   0  0  0  0  0  0  0  0  0  0  0  0
    2.9607    3.7317   -0.1074 C   0  0  0  0  0  0  0  0  0  0  0  0
    2.4587    2.5621    0.8031 C   0  0  0  0  0  0  0  0  0  0  0  0
    4.9592    0.5025   -2.0506 H   0  0  0  0  0  0  0  0  0  0  0  0
    7.2391   -0.2083   -2.3154 H   0  0  0  0  0  0  0  0  0  0  0  0
    7.7238   -2.6416   -2.3058 H   0  0  0  0  0  0  0  0  0  0  0  0
    5.9564   -4.2231   -1.6609 H   0  0  0  0  0  0  0  0  0  0  0  0
    2.5950   -4.6888    1.5957 H   0  0  0  0  0  0  0  0  0  0  0  0
    1.8902   -7.0343    1.3741 H   0  0  0  0  0  0  0  0  0  0  0  0
   -0.4047   -7.5978    0.6573 H   0  0  0  0  0  0  0  0  0  0  0  0
   -2.0947   -5.7717    0.5118 H   0  0  0  0  0  0  0  0  0  0  0  0
   -1.2838   -3.4194    0.3124 H   0  0  0  0  0  0  0  0  0  0  0  0
    5.0240   -5.1344    0.3772 H   0  0  0  0  0  0  0  0  0  0  0  0
    4.8679   -7.5810    0.1497 H   0  0  0  0  0  0  0  0  0  0  0  0
    2.8895   -8.5705   -0.9654 H   0  0  0  0  0  0  0  0  0  0  0  0
    1.1147   -7.0977   -1.8663 H   0  0  0  0  0  0  0  0  0  0  0  0
    1.3882   -4.6532   -1.8968 H   0  0  0  0  0  0  0  0  0  0  0  0
    4.8951    0.3855    0.2344 H   0  0  0  0  0  0  0  0  0  0  0  0
    4.8376    1.6990    1.2782 H   0  0  0  0  0  0  0  0  0  0  0  0
    4.2729    2.2231   -1.7275 H   0  0  0  0  0  0  0  0  0  0  0  0
    5.8874    2.3508   -1.0070 H   0  0  0  0  0  0  0  0  0  0  0  0
    4.6647    4.4060   -1.0680 H   0  0  0  0  0  0  0  0  0  0  0  0
    2.4532    3.6726   -1.0777 H   0  0  0  0  0  0  0  0  0  0  0  0
    2.7059    4.6943    0.3454 H   0  0  0  0  0  0  0  0  0  0  0  0
    1.3704    2.5557    0.8843 H   0  0  0  0  0  0  0  0  0  0  0  0
    2.8665    2.7335    1.8104 H   0  0  0  0  0  0  0  0  0  0  0  0
  1  2  2  0  0  0  0
  2  3  1  0  0  0  0
  2 25  1  0  0  0  0
  3  4  1  0  0  0  0
  3 11  2  0  0  0  0
  4  5  2  0  0  0  0
  4  9  1  0  0  0  0
  5  6  1  0  0  0  0
  5 31  1  0  0  0  0
  6  7  2  0  0  0  0
  6 32  1  0  0  0  0
  7  8  1  0  0  0  0
  7 33  1  0  0  0  0
  8  9  2  0  0  0  0
  8 34  1  0  0  0  0
  9 10  1  0  0  0  0
 10 11  1  0  0  0  0
 10 19  1  0  0  0  0
 11 12  1  0  0  0  0
 12 13  1  0  0  0  0
 13 14  2  0  0  0  0
 13 18  1  0  0  0  0
 14 15  1  0  0  0  0
 14 35  1  0  0  0  0
 15 16  2  0  0  0  0
 15 36  1  0  0  0  0
 16 17  1  0  0  0  0
 16 37  1  0  0  0  0
 17 18  2  0  0  0  0
 17 38  1  0  0  0  0
 18 39  1  0  0  0  0
 19 20  2  0  0  0  0
 19 24  1  0  0  0  0
 20 21  1  0  0  0  0
 20 40  1  0  0  0  0
 21 22  2  0  0  0  0
 21 41  1  0  0  0  0
 22 23  1  0  0  0  0
 22 42  1  0  0  0  0
 23 24  2  0  0  0  0
 23 43  1  0  0  0  0
 24 44  1  0  0  0  0
 25 26  1  0  0  0  0
 25 30  1  0  0  0  0
 26 27  1  0  0  0  0
 26 45  1  0  0  0  0
 26 46  1  0  0  0  0
 27 28  1  0  0  0  0
 27 47  1  0  0  0  0
 27 48  1  0  0  0  0
 28 29  1  0  0  0  0
 28 49  1  0  0  0  0
 29 30  1  0  0  0  0
 29 50  1  0  0  0  0
 29 51  1  0  0  0  0
 30 52  1  0  0  0  0
 30 53  1  0  0  0  0
M  END
$$$$
