S6I
 OpenBabel04121316183D

 36 37  0  0  0  0  0  0  0  0999 V2000
    1.0225   -0.0295    0.0084 O   0  0  0  0  0  0  0  0  0  0  0  0
    2.2440    0.0199    0.1179 C   0  0  0  0  0  0  0  0  0  0  0  0
    2.9403    0.8304    0.9859 N   0  0  0  0  0  0  0  0  0  0  0  0
    2.2851    1.7410    1.8306 C   0  0  0  0  0  0  0  0  0  0  0  0
    1.2611    1.3110    2.6752 C   0  0  0  0  0  0  0  0  0  0  0  0
    0.5484    2.2343    3.4372 C   0  0  0  0  0  0  0  0  0  0  0  0
    0.9173    3.5806    3.4072 C   0  0  0  0  0  0  0  0  0  0  0  0
    2.0217    3.9981    2.6552 C   0  0  0  0  0  0  0  0  0  0  0  0
    2.6841    3.0793    1.8371 C   0  0  0  0  0  0  0  0  0  0  0  0
   -0.1007    4.7297    4.2968 S   0  0  0  0  0  0  0  0  0  0  0  0
   -1.3793    4.7789    3.6368 O   0  0  0  0  0  0  0  0  0  0  0  0
    0.0591    4.4485    5.7072 O   0  0  0  0  0  0  0  0  0  0  0  0
    0.6370    6.2024    4.0154 N   0  0  0  0  0  0  0  0  0  0  0  0
    3.0059   -0.7703   -0.6930 N   0  0  0  0  0  0  0  0  0  0  0  0
    4.4453   -0.7925   -0.8198 C   0  0  0  0  0  0  0  0  0  0  0  0
    4.9677   -2.0262   -1.5436 C   0  0  0  0  0  0  0  0  0  0  0  0
    6.3637   -1.6016   -1.9714 C   0  0  0  0  0  0  0  0  0  0  0  0
    6.2173   -0.1370   -2.3679 C   0  0  0  0  0  0  0  0  0  0  0  0
    4.9751    0.3814   -1.6475 C   0  0  0  0  0  0  0  0  0  0  0  0
    3.8765    1.0702    0.7088 H   0  0  0  0  0  0  0  0  0  0  0  0
    1.0226    0.2527    2.7470 H   0  0  0  0  0  0  0  0  0  0  0  0
   -0.2934    1.8998    4.0390 H   0  0  0  0  0  0  0  0  0  0  0  0
    2.3681    5.0256    2.6662 H   0  0  0  0  0  0  0  0  0  0  0  0
    3.4571    3.4338    1.1596 H   0  0  0  0  0  0  0  0  0  0  0  0
    0.5167    6.5586    3.0710 H   0  0  0  0  0  0  0  0  0  0  0  0
    1.5109    6.3424    4.5119 H   0  0  0  0  0  0  0  0  0  0  0  0
    2.4449   -1.2941   -1.3565 H   0  0  0  0  0  0  0  0  0  0  0  0
    4.8763   -0.7604    0.1879 H   0  0  0  0  0  0  0  0  0  0  0  0
    4.3569   -2.2671   -2.4218 H   0  0  0  0  0  0  0  0  0  0  0  0
    4.9835   -2.9073   -0.8940 H   0  0  0  0  0  0  0  0  0  0  0  0
    6.7476   -2.2120   -2.7937 H   0  0  0  0  0  0  0  0  0  0  0  0
    7.0620   -1.6920   -1.1306 H   0  0  0  0  0  0  0  0  0  0  0  0
    6.0799   -0.0472   -3.4512 H   0  0  0  0  0  0  0  0  0  0  0  0
    7.1082    0.4410   -2.1015 H   0  0  0  0  0  0  0  0  0  0  0  0
    4.2367    0.7244   -2.3830 H   0  0  0  0  0  0  0  0  0  0  0  0
    5.2134    1.2417   -1.0131 H   0  0  0  0  0  0  0  0  0  0  0  0
  1  2  2  0  0  0  0
  2  3  1  0  0  0  0
  2 14  1  0  0  0  0
  3  4  1  0  0  0  0
  3 20  1  0  0  0  0
  4  5  2  0  0  0  0
  4  9  1  0  0  0  0
  5  6  1  0  0  0  0
  5 21  1  0  0  0  0
  6  7  2  0  0  0  0
  6 22  1  0  0  0  0
  7  8  1  0  0  0  0
  7 10  1  0  0  0  0
  8  9  2  0  0  0  0
  8 23  1  0  0  0  0
  9 24  1  0  0  0  0
 10 11  2  0  0  0  0
 10 12  2  0  0  0  0
 10 13  1  0  0  0  0
 13 25  1  0  0  0  0
 13 26  1  0  0  0  0
 14 15  1  0  0  0  0
 14 27  1  0  0  0  0
 15 16  1  0  0  0  0
 15 19  1  0  0  0  0
 15 28  1  0  0  0  0
 16 17  1  0  0  0  0
 16 29  1  0  0  0  0
 16 30  1  0  0  0  0
 17 18  1  0  0  0  0
 17 31  1  0  0  0  0
 17 32  1  0  0  0  0
 18 19  1  0  0  0  0
 18 33  1  0  0  0  0
 18 34  1  0  0  0  0
 19 35  1  0  0  0  0
 19 36  1  0  0  0  0
M  END
$$$$
