S7B
 OpenBabel04121316183D

 28 29  0  0  0  0  0  0  0  0999 V2000
    0.7707   -0.0175   -0.0377 O   0  0  0  0  0  0  0  0  0  0  0  0
    2.0007   -0.0237   -0.0586 C   0  0  0  0  0  0  0  0  0  0  0  0
    2.7751    0.4509   -1.2341 C   0  0  0  0  0  0  0  0  0  0  0  0
    2.0850    0.6145   -2.5602 C   0  0  0  0  0  0  0  0  0  0  0  0
    2.4876    1.8318   -1.7753 C   0  0  0  0  0  0  0  0  0  0  0  0
    2.7185   -0.5347    1.0263 O   0  0  0  0  0  0  0  0  0  0  0  0
    4.1262   -0.5487    1.0616 C   0  0  0  0  0  0  0  0  0  0  0  0
    4.8246    0.6653    1.1787 C   0  0  0  0  0  0  0  0  0  0  0  0
    4.1380    1.9995    1.2207 C   0  0  0  0  0  0  0  0  0  0  0  0
    6.2178    0.6187    1.2727 C   0  0  0  0  0  0  0  0  0  0  0  0
    6.8610   -0.6001    1.4719 C   0  0  0  0  0  0  0  0  0  0  0  0
    6.1621   -1.7945    1.2941 C   0  0  0  0  0  0  0  0  0  0  0  0
    4.7858   -1.7837    1.0330 C   0  0  0  0  0  0  0  0  0  0  0  0
    4.1467   -3.0851    0.6796 C   0  0  0  0  0  0  0  0  0  0  0  0
    4.7970   -4.1179    0.5954 O   0  0  0  0  0  0  0  0  0  0  0  0
    2.8386   -3.0583    0.3632 O   0  0  0  0  0  0  0  0  0  0  0  0
    3.8016    0.1032   -1.3114 H   0  0  0  0  0  0  0  0  0  0  0  0
    1.0335    0.3521   -2.6056 H   0  0  0  0  0  0  0  0  0  0  0  0
    2.6464    0.3447   -3.4459 H   0  0  0  0  0  0  0  0  0  0  0  0
    1.7056    2.4085   -1.2901 H   0  0  0  0  0  0  0  0  0  0  0  0
    3.3233    2.4305   -2.1168 H   0  0  0  0  0  0  0  0  0  0  0  0
    3.0497    1.9079    1.2443 H   0  0  0  0  0  0  0  0  0  0  0  0
    4.4083    2.5963    0.3445 H   0  0  0  0  0  0  0  0  0  0  0  0
    4.4165    2.5318    2.1334 H   0  0  0  0  0  0  0  0  0  0  0  0
    6.8083    1.5318    1.2234 H   0  0  0  0  0  0  0  0  0  0  0  0
    7.9094   -0.6195    1.7610 H   0  0  0  0  0  0  0  0  0  0  0  0
    6.7064   -2.7371    1.3369 H   0  0  0  0  0  0  0  0  0  0  0  0
    2.3595   -2.2431    0.5945 H   0  0  0  0  0  0  0  0  0  0  0  0
  1  2  2  0  0  0  0
  2  3  1  0  0  0  0
  2  6  1  0  0  0  0
  3  4  1  0  0  0  0
  3  5  1  0  0  0  0
  3 17  1  0  0  0  0
  4  5  1  0  0  0  0
  4 18  1  0  0  0  0
  4 19  1  0  0  0  0
  5 20  1  0  0  0  0
  5 21  1  0  0  0  0
  6  7  1  0  0  0  0
  7  8  2  0  0  0  0
  7 13  1  0  0  0  0
  8  9  1  0  0  0  0
  8 10  1  0  0  0  0
  9 22  1  0  0  0  0
  9 23  1  0  0  0  0
  9 24  1  0  0  0  0
 10 11  2  0  0  0  0
 10 25  1  0  0  0  0
 11 12  1  0  0  0  0
 11 26  1  0  0  0  0
 12 13  2  0  0  0  0
 12 27  1  0  0  0  0
 13 14  1  0  0  0  0
 14 15  2  0  0  0  0
 14 16  1  0  0  0  0
 16 28  1  0  0  0  0
M  END
$$$$
