SA2
 OpenBabel04121316183D

 43 42  0  0  1  0  0  0  0  0999 V2000
   11.0138    5.2434   -7.8148 O   0  0  0  0  0  0  0  0  0  0  0  0
   10.5732    5.2996   -6.6750 C   0  0  0  0  0  0  0  0  0  0  0  0
    9.9747    4.1163   -6.0310 C   0  0  0  0  0  0  0  0  0  0  0  0
    9.5246    4.2338   -4.7826 C   0  0  0  0  0  0  0  0  0  0  0  0
    8.9500    3.2486   -4.0277 N   0  0  0  0  0  0  0  0  0  0  0  0
    8.4417    3.2621   -2.6314 C   0  0  2  0  0  0  0  0  0  0  0  0
    8.4638    2.2078   -2.3147 H   0  0  0  0  0  0  0  0  0  0  0  0
    6.9481    3.7281   -2.5793 C   0  0  1  0  0  0  0  0  0  0  0  0
    6.4322    3.6784   -0.7828 S   0  0  2  0  0  0  0  0  0  0  0  0
    6.7280    2.3165   -0.2443 O   0  0  0  0  0  0  0  0  0  0  0  0
    4.8501    3.7298   -1.0325 O   0  0  0  0  0  0  0  0  0  0  0  0
    6.7494    5.1681   -3.0995 C   0  0  0  0  0  0  0  0  0  0  0  0
    7.4786    6.0910   -2.2639 O   0  0  0  0  0  0  0  0  0  0  0  0
    7.6174    7.3590   -2.7287 C   0  0  0  0  0  0  0  0  0  0  0  0
    7.1391    7.7444   -3.7896 O   0  0  0  0  0  0  0  0  0  0  0  0
    8.5635    8.1391   -1.8356 C   0  0  0  0  0  0  0  0  0  0  0  0
    8.5927    9.5762   -2.3149 C   0  0  0  0  0  0  0  0  0  0  0  0
    9.4701   10.4973   -1.4761 C   0  0  0  0  0  0  0  0  0  0  0  0
    9.3778   11.8971   -2.0449 C   0  0  0  0  0  0  0  0  0  0  0  0
    8.7122   12.2047   -3.0223 O   0  0  0  0  0  0  0  0  0  0  0  0
   10.1078   12.8066   -1.3677 O   0  0  0  0  0  0  0  0  0  0  0  0
    6.0834    2.7754   -3.4393 C   0  0  0  0  0  0  0  0  0  0  0  0
    9.4420    3.9406   -1.6524 C   0  0  0  0  0  0  0  0  0  0  0  0
    9.9534    3.3910   -0.6868 O   0  0  0  0  0  0  0  0  0  0  0  0
    9.7641    5.2191   -1.9378 O   0  0  0  0  0  0  0  0  0  0  0  0
   10.6014    6.2286   -6.0771 H   0  0  0  0  0  0  0  0  0  0  0  0
    9.9323    3.1959   -6.5931 H   0  0  0  0  0  0  0  0  0  0  0  0
    9.6223    5.2045   -4.3167 H   0  0  0  0  0  0  0  0  0  0  0  0
    8.8531    2.3436   -4.4937 H   0  0  0  0  0  0  0  0  0  0  0  0
    4.4089    3.5143   -0.1731 H   0  0  0  0  0  0  0  0  0  0  0  0
    5.6943    5.4603   -3.1096 H   0  0  0  0  0  0  0  0  0  0  0  0
    7.1198    5.2428   -4.1297 H   0  0  0  0  0  0  0  0  0  0  0  0
    9.5738    7.7185   -1.9023 H   0  0  0  0  0  0  0  0  0  0  0  0
    8.2267    8.0768   -0.7953 H   0  0  0  0  0  0  0  0  0  0  0  0
    7.5644    9.9580   -2.3277 H   0  0  0  0  0  0  0  0  0  0  0  0
    8.9446    9.5935   -3.3558 H   0  0  0  0  0  0  0  0  0  0  0  0
   10.5119   10.1597   -1.5071 H   0  0  0  0  0  0  0  0  0  0  0  0
    9.1201   10.5023   -0.4386 H   0  0  0  0  0  0  0  0  0  0  0  0
   10.6038   12.4565   -0.6060 H   0  0  0  0  0  0  0  0  0  0  0  0
    6.4150    2.7756   -4.4859 H   0  0  0  0  0  0  0  0  0  0  0  0
    5.0301    3.0764   -3.4587 H   0  0  0  0  0  0  0  0  0  0  0  0
    6.1302    1.7410   -3.0824 H   0  0  0  0  0  0  0  0  0  0  0  0
    9.1292    5.5584   -2.5900 H   0  0  0  0  0  0  0  0  0  0  0  0
  1  2  2  0  0  0  0
  2  3  1  0  0  0  0
  2 26  1  0  0  0  0
  3  4  2  0  0  0  0
  3 27  1  0  0  0  0
  4  5  1  0  0  0  0
  4 28  1  0  0  0  0
  5 29  1  0  0  0  0
  6  8  1  0  0  0  0
  6 23  1  0  0  0  0
  6  7  1  1  0  0  0
  6  5  1  0  0  0  0
  8 12  1  6  0  0  0
  8 22  1  0  0  0  0
  9 11  1  6  0  0  0
  9 10  2  0  0  0  0
  9  8  1  0  0  0  0
 11 30  1  0  0  0  0
 12 13  1  0  0  0  0
 12 31  1  0  0  0  0
 12 32  1  0  0  0  0
 13 14  1  0  0  0  0
 14 15  2  0  0  0  0
 14 16  1  0  0  0  0
 16 17  1  0  0  0  0
 16 33  1  0  0  0  0
 16 34  1  0  0  0  0
 17 18  1  0  0  0  0
 17 35  1  0  0  0  0
 17 36  1  0  0  0  0
 18 19  1  0  0  0  0
 18 37  1  0  0  0  0
 18 38  1  0  0  0  0
 19 20  2  0  0  0  0
 19 21  1  0  0  0  0
 21 39  1  0  0  0  0
 22 40  1  0  0  0  0
 22 41  1  0  0  0  0
 22 42  1  0  0  0  0
 23 24  2  0  0  0  0
 23 25  1  0  0  0  0
 25 43  1  0  0  0  0
M  END
$$$$
