SA8
 OpenBabel04121316183D

 50 52  0  0  1  0  0  0  0  0999 V2000
    0.9546   -0.0639    0.0799 C   0  0  0  0  0  0  0  0  0  0  0  0
    2.4193    0.0190    0.1051 N   0  0  0  0  0  0  0  0  0  0  0  0
    2.8872    1.2756    0.7050 C   0  0  0  0  0  0  0  0  0  0  0  0
    2.3981    2.5083   -0.0571 C   0  0  1  0  0  0  0  0  0  0  0  0
    2.3585    2.2811   -1.1325 H   0  0  0  0  0  0  0  0  0  0  0  0
    1.0894    2.9239    0.3847 O   0  0  0  0  0  0  0  0  0  0  0  0
    0.9794    4.2894   -0.0588 C   0  0  2  0  0  0  0  0  0  0  0  0
    0.7241    4.2838   -1.1257 H   0  0  0  0  0  0  0  0  0  0  0  0
    2.3626    4.9009    0.2048 C   0  0  1  0  0  0  0  0  0  0  0  0
    2.3992    5.3576    1.2004 H   0  0  0  0  0  0  0  0  0  0  0  0
    3.3114    3.6989    0.2000 C   0  0  2  0  0  0  0  0  0  0  0  0
    3.7958    3.6082    1.1790 H   0  0  0  0  0  0  0  0  0  0  0  0
    4.3455    3.7520   -0.7746 O   0  0  0  0  0  0  0  0  0  0  0  0
    2.7590    5.8866   -0.7413 O   0  0  0  0  0  0  0  0  0  0  0  0
   -0.1049    4.9525    0.6432 N   0  0  0  0  0  0  0  0  0  0  0  0
   -0.6137    4.6320    1.8746 C   0  0  0  0  0  0  0  0  0  0  0  0
   -1.6467    5.3830    2.1962 N   0  0  0  0  0  0  0  0  0  0  0  0
   -1.8128    6.2349    1.1241 C   0  0  0  0  0  0  0  0  0  0  0  0
   -0.8392    6.0082    0.1622 C   0  0  0  0  0  0  0  0  0  0  0  0
   -0.6726    6.6758   -0.9932 N   0  0  0  0  0  0  0  0  0  0  0  0
   -1.6360    7.6171   -1.1422 C   0  0  0  0  0  0  0  0  0  0  0  0
   -2.6473    7.9323   -0.3020 N   0  0  0  0  0  0  0  0  0  0  0  0
   -2.7542    7.2458    0.8580 C   0  0  0  0  0  0  0  0  0  0  0  0
   -3.7745    7.5639    1.7261 N   0  0  0  0  0  0  0  0  0  0  0  0
    2.9537   -1.1441    0.8049 C   0  0  0  0  0  0  0  0  0  0  0  0
    4.4810   -1.2553    0.8240 C   0  0  0  0  0  0  0  0  0  0  0  0
    4.9632   -2.4795    1.6080 C   0  0  1  0  0  0  0  0  0  0  0  0
    4.5859   -2.4562    2.6369 H   0  0  0  0  0  0  0  0  0  0  0  0
    4.5450   -3.8213    0.9572 C   0  0  0  0  0  0  0  0  0  0  0  0
    5.3317   -4.6058    0.4295 O   0  0  0  0  0  0  0  0  0  0  0  0
    3.2253   -4.1118    0.9999 O   0  0  0  0  0  0  0  0  0  0  0  0
    6.4424   -2.4143    1.6896 N   0  0  0  0  0  0  0  0  0  0  0  0
    0.5197    0.7239   -0.5394 H   0  0  0  0  0  0  0  0  0  0  0  0
    0.5331   -0.0030    1.0893 H   0  0  0  0  0  0  0  0  0  0  0  0
    0.6269   -1.0048   -0.3765 H   0  0  0  0  0  0  0  0  0  0  0  0
    3.9806    1.2952    0.6616 H   0  0  0  0  0  0  0  0  0  0  0  0
    2.5890    1.3247    1.7604 H   0  0  0  0  0  0  0  0  0  0  0  0
    4.7094    4.6564   -0.7471 H   0  0  0  0  0  0  0  0  0  0  0  0
    2.0450    6.5515   -0.7919 H   0  0  0  0  0  0  0  0  0  0  0  0
   -0.2070    3.8398    2.4903 H   0  0  0  0  0  0  0  0  0  0  0  0
   -1.5973    8.2001   -2.0594 H   0  0  0  0  0  0  0  0  0  0  0  0
   -4.4380    8.2737    1.4607 H   0  0  0  0  0  0  0  0  0  0  0  0
   -3.8768    7.0242    2.5740 H   0  0  0  0  0  0  0  0  0  0  0  0
    2.5644   -1.9989    0.2508 H   0  0  0  0  0  0  0  0  0  0  0  0
    2.5707   -1.1888    1.8335 H   0  0  0  0  0  0  0  0  0  0  0  0
    4.9148   -0.3704    1.3054 H   0  0  0  0  0  0  0  0  0  0  0  0
    4.8565   -1.2795   -0.2067 H   0  0  0  0  0  0  0  0  0  0  0  0
    2.6420   -3.4896    1.4686 H   0  0  0  0  0  0  0  0  0  0  0  0
    6.7604   -1.5067    2.0208 H   0  0  0  0  0  0  0  0  0  0  0  0
    6.8182   -2.5266    0.7429 H   0  0  0  0  0  0  0  0  0  0  0  0
  1  2  1  0  0  0  0
  1 33  1  0  0  0  0
  1 34  1  0  0  0  0
  1 35  1  0  0  0  0
  2  3  1  0  0  0  0
  2 25  1  0  0  0  0
  3  4  1  0  0  0  0
  3 36  1  0  0  0  0
  3 37  1  0  0  0  0
  4  5  1  6  0  0  0
  4  6  1  0  0  0  0
  4 11  1  0  0  0  0
  6  7  1  0  0  0  0
  7  9  1  0  0  0  0
  7 15  1  0  0  0  0
  7  8  1  6  0  0  0
  9 10  1  1  0  0  0
  9 11  1  0  0  0  0
  9 14  1  0  0  0  0
 11 12  1  1  0  0  0
 11 13  1  0  0  0  0
 13 38  1  0  0  0  0
 14 39  1  0  0  0  0
 15 16  1  0  0  0  0
 15 19  1  0  0  0  0
 16 17  2  0  0  0  0
 16 40  1  0  0  0  0
 17 18  1  0  0  0  0
 18 19  2  0  0  0  0
 18 23  1  0  0  0  0
 19 20  1  0  0  0  0
 20 21  2  0  0  0  0
 21 22  1  0  0  0  0
 21 41  1  0  0  0  0
 22 23  2  0  0  0  0
 23 24  1  0  0  0  0
 24 42  1  0  0  0  0
 24 43  1  0  0  0  0
 25 26  1  0  0  0  0
 25 44  1  0  0  0  0
 25 45  1  0  0  0  0
 26 27  1  0  0  0  0
 26 46  1  0  0  0  0
 26 47  1  0  0  0  0
 27 28  1  1  0  0  0
 27 29  1  0  0  0  0
 27 32  1  0  0  0  0
 29 30  2  0  0  0  0
 29 31  1  0  0  0  0
 31 48  1  0  0  0  0
 32 49  1  0  0  0  0
 32 50  1  0  0  0  0
M  END
$$$$
