SAG
 OpenBabel04121316183D

 39 40  0  0  1  0  0  0  0  0999 V2000
    1.0273    0.0269    0.0036 N   0  0  0  0  0  0  0  0  0  0  0  0
    2.3915    0.0604   -0.0284 C   0  0  0  0  0  0  0  0  0  0  0  0
    2.9703    0.9920    0.5407 O   0  0  0  0  0  0  0  0  0  0  0  0
    3.1097   -1.0907   -0.7552 C   0  0  1  0  0  0  0  0  0  0  0  0
    2.8237   -2.0518   -0.3079 H   0  0  0  0  0  0  0  0  0  0  0  0
    2.7921   -1.0443   -2.1933 N   0  0  0  0  0  0  0  0  0  0  0  0
    1.6252   -1.4390   -2.5461 C   0  0  0  0  0  0  0  0  0  0  0  0
    1.2441   -1.4234   -3.9487 C   0  0  0  0  0  0  0  0  0  0  0  0
    1.0630   -2.6454   -4.5877 C   0  0  0  0  0  0  0  0  0  0  0  0
    0.9186   -2.6532   -5.9691 C   0  0  0  0  0  0  0  0  0  0  0  0
    0.8250   -1.4454   -6.6674 C   0  0  0  0  0  0  0  0  0  0  0  0
    0.8419   -0.2298   -5.9747 C   0  0  0  0  0  0  0  0  0  0  0  0
    1.1207   -0.2110   -4.6165 C   0  0  0  0  0  0  0  0  0  0  0  0
    0.7418   -1.5618   -8.0264 O   0  0  0  0  0  0  0  0  0  0  0  0
    0.7200   -0.3241   -8.7379 C   0  0  0  0  0  0  0  0  0  0  0  0
    0.7525   -0.6364  -10.2030 C   0  0  0  0  0  0  0  0  0  0  0  0
   -0.3575   -1.2363  -10.8137 C   0  0  0  0  0  0  0  0  0  0  0  0
   -0.3100   -1.5952  -12.1585 C   0  0  0  0  0  0  0  0  0  0  0  0
    0.8806   -1.4515  -12.8685 C   0  0  0  0  0  0  0  0  0  0  0  0
    1.9765   -0.8490  -12.2617 C   0  0  0  0  0  0  0  0  0  0  0  0
    1.9051   -0.3878  -10.9556 C   0  0  0  0  0  0  0  0  0  0  0  0
    3.1252   -0.7264  -12.9389 F   0  0  0  0  0  0  0  0  0  0  0  0
    4.6246   -0.9131   -0.6250 C   0  0  0  0  0  0  0  0  0  0  0  0
    0.5592    0.7966    0.4600 H   0  0  0  0  0  0  0  0  0  0  0  0
    0.4657   -0.7427   -0.3203 H   0  0  0  0  0  0  0  0  0  0  0  0
    0.8534   -1.8196   -1.8628 H   0  0  0  0  0  0  0  0  0  0  0  0
    1.0986   -3.5759   -4.0298 H   0  0  0  0  0  0  0  0  0  0  0  0
    0.9052   -3.5998   -6.5035 H   0  0  0  0  0  0  0  0  0  0  0  0
    0.6805    0.7219   -6.4686 H   0  0  0  0  0  0  0  0  0  0  0  0
    1.2492    0.7350   -4.0979 H   0  0  0  0  0  0  0  0  0  0  0  0
    1.5891    0.2938   -8.4765 H   0  0  0  0  0  0  0  0  0  0  0  0
   -0.2040    0.2187   -8.5083 H   0  0  0  0  0  0  0  0  0  0  0  0
   -1.2534   -1.4416  -10.2300 H   0  0  0  0  0  0  0  0  0  0  0  0
   -1.1910   -2.0090  -12.6401 H   0  0  0  0  0  0  0  0  0  0  0  0
    0.9632   -1.8085  -13.8887 H   0  0  0  0  0  0  0  0  0  0  0  0
    2.7586    0.1307  -10.5287 H   0  0  0  0  0  0  0  0  0  0  0  0
    4.9292   -0.8961    0.4272 H   0  0  0  0  0  0  0  0  0  0  0  0
    4.9465    0.0333   -1.0771 H   0  0  0  0  0  0  0  0  0  0  0  0
    5.1721   -1.7176   -1.1276 H   0  0  0  0  0  0  0  0  0  0  0  0
  1  2  1  0  0  0  0
  1 24  1  0  0  0  0
  1 25  1  0  0  0  0
  2  3  2  0  0  0  0
  2  4  1  0  0  0  0
  4  5  1  1  0  0  0
  4  6  1  0  0  0  0
  4 23  1  0  0  0  0
  6  7  2  0  0  0  0
  7  8  1  0  0  0  0
  7 26  1  0  0  0  0
  8  9  2  0  0  0  0
  8 13  1  0  0  0  0
  9 10  1  0  0  0  0
  9 27  1  0  0  0  0
 10 11  2  0  0  0  0
 10 28  1  0  0  0  0
 11 12  1  0  0  0  0
 11 14  1  0  0  0  0
 12 13  2  0  0  0  0
 12 29  1  0  0  0  0
 13 30  1  0  0  0  0
 14 15  1  0  0  0  0
 15 16  1  0  0  0  0
 15 31  1  0  0  0  0
 15 32  1  0  0  0  0
 16 17  2  0  0  0  0
 16 21  1  0  0  0  0
 17 18  1  0  0  0  0
 17 33  1  0  0  0  0
 18 19  2  0  0  0  0
 18 34  1  0  0  0  0
 19 20  1  0  0  0  0
 19 35  1  0  0  0  0
 20 21  2  0  0  0  0
 20 22  1  0  0  0  0
 21 36  1  0  0  0  0
 23 37  1  0  0  0  0
 23 38  1  0  0  0  0
 23 39  1  0  0  0  0
M  END
$$$$
