SAI
 OpenBabel04121316183D

 46 48  0  0  1  0  0  0  0  0999 V2000
    2.6935    2.9029    0.3816 O   0  0  0  0  0  0  0  0  0  0  0  0
    2.8251    1.9519    1.3292 C   0  0  0  0  0  0  0  0  0  0  0  0
    2.0653    1.9368    2.2934 O   0  0  0  0  0  0  0  0  0  0  0  0
    3.1831    0.5240    1.1583 C   0  0  2  0  0  0  0  0  0  0  0  0
    2.6481    0.1194    0.3246 H   0  0  0  0  0  0  0  0  0  0  0  0
    2.8159   -0.2447    2.4172 C   0  0  0  0  0  0  0  0  0  0  0  0
    1.3215   -0.1234    2.6671 C   0  0  0  0  0  0  0  0  0  0  0  0
    0.8480   -1.1145    4.2904 Se  0  0  0  0  0  0  0  0  0  0  0  0
   -1.0790   -0.9582    4.6126 C   0  0  0  0  0  0  0  0  0  0  0  0
   -1.4462   -1.7268    5.8715 C   0  0  1  0  0  0  0  0  0  0  0  0
   -2.3859   -1.3611    6.2295 H   0  0  0  0  0  0  0  0  0  0  0  0
   -1.5011   -3.2474    5.5847 O   0  0  0  0  0  0  0  0  0  0  0  0
   -1.1845   -3.8663    6.9722 C   0  0  2  0  0  0  0  0  0  0  0  0
   -2.0593   -3.8843    7.5882 H   0  0  0  0  0  0  0  0  0  0  0  0
   -0.1138   -2.9293    7.5697 C   0  0  1  0  0  0  0  0  0  0  0  0
    0.8700   -3.3225    7.4204 H   0  0  0  0  0  0  0  0  0  0  0  0
   -0.2805   -1.5692    6.8695 C   0  0  2  0  0  0  0  0  0  0  0  0
    0.6198   -1.2803    6.3686 H   0  0  0  0  0  0  0  0  0  0  0  0
   -0.5846   -0.5615    7.8227 O   0  0  0  0  0  0  0  0  0  0  0  0
   -0.3120   -2.7879    8.9687 O   0  0  0  0  0  0  0  0  0  0  0  0
   -0.7343   -5.2250    6.8778 N   0  0  0  0  0  0  0  0  0  0  0  0
   -0.0496   -5.5949    5.8148 C   0  0  0  0  0  0  0  0  0  0  0  0
    0.6690   -6.6762    6.0789 N   0  0  0  0  0  0  0  0  0  0  0  0
    0.4570   -7.0299    7.3457 C   0  0  0  0  0  0  0  0  0  0  0  0
   -0.4625   -6.0816    7.8755 C   0  0  0  0  0  0  0  0  0  0  0  0
   -0.8706   -6.2082    9.2048 N   0  0  0  0  0  0  0  0  0  0  0  0
   -0.3936   -7.2235    9.9590 C   0  0  0  0  0  0  0  0  0  0  0  0
    0.4891   -8.1289    9.4610 N   0  0  0  0  0  0  0  0  0  0  0  0
    0.9233   -8.0645    8.1836 C   0  0  0  0  0  0  0  0  0  0  0  0
    1.8253   -9.0131    7.6970 N   0  0  0  0  0  0  0  0  0  0  0  0
    4.6283    0.4067    0.9166 N   0  0  0  0  0  0  0  0  0  0  0  0
    3.4456    3.1998   -0.0918 H   0  0  0  0  0  0  0  0  0  0  0  0
    3.3509    0.1599    3.2509 H   0  0  0  0  0  0  0  0  0  0  0  0
    3.0744   -1.2756    2.2938 H   0  0  0  0  0  0  0  0  0  0  0  0
    0.7865   -0.5279    1.8334 H   0  0  0  0  0  0  0  0  0  0  0  0
    1.0630    0.9076    2.7905 H   0  0  0  0  0  0  0  0  0  0  0  0
   -1.6140   -1.3627    3.7789 H   0  0  0  0  0  0  0  0  0  0  0  0
   -1.3375    0.0728    4.7360 H   0  0  0  0  0  0  0  0  0  0  0  0
    0.1544   -0.4710    8.4445 H   0  0  0  0  0  0  0  0  0  0  0  0
   -0.2046   -3.6504    9.3993 H   0  0  0  0  0  0  0  0  0  0  0  0
   -0.0700   -5.1102    4.9039 H   0  0  0  0  0  0  0  0  0  0  0  0
   -0.7078   -7.3134   10.9379 H   0  0  0  0  0  0  0  0  0  0  0  0
    2.1477   -9.7332    8.2858 H   0  0  0  0  0  0  0  0  0  0  0  0
    2.1387   -8.9617    6.7651 H   0  0  0  0  0  0  0  0  0  0  0  0
    4.8748   -0.5761    0.7990 H   0  0  0  0  0  0  0  0  0  0  0  0
    5.1384    0.7923    1.7114 H   0  0  0  0  0  0  0  0  0  0  0  0
  1  2  1  0  0  0  0
  1 32  1  0  0  0  0
  2  3  2  0  0  0  0
  4  6  1  0  0  0  0
  4 31  1  0  0  0  0
  4  5  1  6  0  0  0
  4  2  1  0  0  0  0
  6  7  1  0  0  0  0
  6 33  1  0  0  0  0
  6 34  1  0  0  0  0
  7  8  1  0  0  0  0
  7 35  1  0  0  0  0
  7 36  1  0  0  0  0
  8  9  1  0  0  0  0
  9 10  1  0  0  0  0
  9 37  1  0  0  0  0
  9 38  1  0  0  0  0
 10 11  1  1  0  0  0
 10 12  1  0  0  0  0
 10 17  1  0  0  0  0
 12 13  1  0  0  0  0
 13 15  1  0  0  0  0
 13 21  1  0  0  0  0
 13 14  1  1  0  0  0
 15 16  1  6  0  0  0
 15 17  1  0  0  0  0
 15 20  1  0  0  0  0
 17 18  1  6  0  0  0
 17 19  1  0  0  0  0
 19 39  1  0  0  0  0
 20 40  1  0  0  0  0
 21 22  1  0  0  0  0
 21 25  1  0  0  0  0
 22 23  2  0  0  0  0
 22 41  1  0  0  0  0
 23 24  1  0  0  0  0
 24 25  2  0  0  0  0
 24 29  1  0  0  0  0
 25 26  1  0  0  0  0
 26 27  2  0  0  0  0
 27 28  1  0  0  0  0
 27 42  1  0  0  0  0
 28 29  2  0  0  0  0
 29 30  1  0  0  0  0
 30 43  1  0  0  0  0
 30 44  1  0  0  0  0
 31 45  1  0  0  0  0
 31 46  1  0  0  0  0
M  END
$$$$
