SAL
 OpenBabel04121316183D

 16 16  0  0  0  0  0  0  0  0999 V2000
    0.9867    0.1563    0.0466 O   0  0  0  0  0  0  0  0  0  0  0  0
    2.3276    0.0511   -0.0028 C   0  0  0  0  0  0  0  0  0  0  0  0
    3.0235    0.8833   -0.5806 O   0  0  0  0  0  0  0  0  0  0  0  0
    2.9284   -1.0985    0.7193 C   0  0  0  0  0  0  0  0  0  0  0  0
    4.1038   -0.8813    1.4576 C   0  0  0  0  0  0  0  0  0  0  0  0
    4.8305   -1.9624    1.9676 C   0  0  0  0  0  0  0  0  0  0  0  0
    4.3422   -3.2594    1.8198 C   0  0  0  0  0  0  0  0  0  0  0  0
    3.1277   -3.4773    1.1649 C   0  0  0  0  0  0  0  0  0  0  0  0
    2.4522   -2.4055    0.5707 C   0  0  0  0  0  0  0  0  0  0  0  0
    1.3404   -2.6459   -0.1851 O   0  0  0  0  0  0  0  0  0  0  0  0
    0.5895   -0.2842    0.8202 H   0  0  0  0  0  0  0  0  0  0  0  0
    4.4741    0.1306    1.6124 H   0  0  0  0  0  0  0  0  0  0  0  0
    5.7824   -1.7956    2.4692 H   0  0  0  0  0  0  0  0  0  0  0  0
    4.9120   -4.1007    2.2110 H   0  0  0  0  0  0  0  0  0  0  0  0
    2.7354   -4.4892    1.1134 H   0  0  0  0  0  0  0  0  0  0  0  0
    1.2421   -3.6028   -0.3304 H   0  0  0  0  0  0  0  0  0  0  0  0
  1  2  1  0  0  0  0
  1 11  1  0  0  0  0
  2  3  2  0  0  0  0
  2  4  1  0  0  0  0
  4  5  2  0  0  0  0
  4  9  1  0  0  0  0
  5  6  1  0  0  0  0
  5 12  1  0  0  0  0
  6  7  2  0  0  0  0
  6 13  1  0  0  0  0
  7  8  1  0  0  0  0
  7 14  1  0  0  0  0
  8  9  2  0  0  0  0
  8 15  1  0  0  0  0
  9 10  1  0  0  0  0
 10 16  1  0  0  0  0
M  END
$$$$
