SAP
 OpenBabel04121316183D

 47 49  0  0  1  0  0  0  0  0999 V2000
    6.6020    2.5732   -0.5978 O   0  0  0  0  0  0  0  0  0  0  0  0
    5.3542    3.0254   -1.1066 C   0  0  2  0  0  0  0  0  0  0  0  0
    5.4078    4.1217   -1.1301 H   0  0  0  0  0  0  0  0  0  0  0  0
    4.2473    2.6028   -0.2150 C   0  0  1  0  0  0  0  0  0  0  0  0
    4.6479    2.5144    0.8047 H   0  0  0  0  0  0  0  0  0  0  0  0
    3.0878    3.6641   -0.5480 C   0  0  0  0  0  0  0  0  0  0  0  0
    3.3211    4.9102    0.6655 O   0  0  0  0  0  0  0  0  0  0  0  0
    1.9252    5.9316    0.6281 P   0  0  1  0  0  0  0  0  0  0  0  0
    1.3070    5.3104   -0.6175 O   0  0  0  0  0  0  0  0  0  0  0  0
    1.5342    5.1790    2.0824 O   0  0  0  0  0  0  0  0  0  0  0  0
    2.0268    3.6034    2.4917 P   0  0  2  0  0  0  0  0  0  0  0  0
    0.9145    3.3943    3.5424 O   0  0  0  0  0  0  0  0  0  0  0  0
    3.2054    3.6846    3.7556 O   0  0  0  0  0  0  0  0  0  0  0  0
    2.4234    3.4909    5.2866 P   0  0  0  0  0  0  0  0  0  0  0  0
    2.7426    1.4991    5.2516 S   0  0  0  0  0  0  0  0  0  0  0  0
    3.7199    4.1546    6.0294 O   0  0  0  0  0  0  0  0  0  0  0  0
    1.6415    3.2972    6.8176 O   0  0  0  0  0  0  0  0  0  0  0  0
    3.2729    3.8375    1.3147 O   0  0  0  0  0  0  0  0  0  0  0  0
    0.5294    6.9529    0.5907 O   0  0  0  0  0  0  0  0  0  0  0  0
    3.8828    1.2564   -0.5050 O   0  0  0  0  0  0  0  0  0  0  0  0
    3.8666    1.2057   -1.9184 C   0  0  2  0  0  0  0  0  0  0  0  0
    4.2290    0.2256   -2.2372 H   0  0  0  0  0  0  0  0  0  0  0  0
    4.8158    2.3754   -2.3801 C   0  0  2  0  0  0  0  0  0  0  0  0
    4.2468    3.1305   -2.9355 H   0  0  0  0  0  0  0  0  0  0  0  0
    5.8919    1.9410   -3.1835 O   0  0  0  0  0  0  0  0  0  0  0  0
    2.4709    1.3057   -2.3133 N   0  0  0  0  0  0  0  0  0  0  0  0
    1.3374    1.4006   -1.5327 C   0  0  0  0  0  0  0  0  0  0  0  0
    0.2612    1.6433   -2.2378 N   0  0  0  0  0  0  0  0  0  0  0  0
    0.6894    1.5184   -3.5415 C   0  0  0  0  0  0  0  0  0  0  0  0
    2.0422    1.2980   -3.5965 C   0  0  0  0  0  0  0  0  0  0  0  0
    2.8091    1.0961   -4.6931 N   0  0  0  0  0  0  0  0  0  0  0  0
    2.0280    1.0908   -5.7871 C   0  0  0  0  0  0  0  0  0  0  0  0
    0.6969    1.3017   -5.8887 N   0  0  0  0  0  0  0  0  0  0  0  0
   -0.0074    1.5409   -4.7529 C   0  0  0  0  0  0  0  0  0  0  0  0
   -1.3584    1.7617   -4.8199 N   0  0  0  0  0  0  0  0  0  0  0  0
    6.5783    1.6061   -0.5201 H   0  0  0  0  0  0  0  0  0  0  0  0
    2.1123    3.2430   -0.2360 H   0  0  0  0  0  0  0  0  0  0  0  0
    3.0101    4.1287   -1.5251 H   0  0  0  0  0  0  0  0  0  0  0  0
    4.4210    4.3866    5.3978 H   0  0  0  0  0  0  0  0  0  0  0  0
    0.9100    2.6619    6.6965 H   0  0  0  0  0  0  0  0  0  0  0  0
    4.0626    4.0201    1.8650 H   0  0  0  0  0  0  0  0  0  0  0  0
    0.4157    7.2357   -0.3367 H   0  0  0  0  0  0  0  0  0  0  0  0
    5.4914    1.5794   -3.9913 H   0  0  0  0  0  0  0  0  0  0  0  0
    1.3410    1.3478   -0.4453 H   0  0  0  0  0  0  0  0  0  0  0  0
    2.5467    0.8814   -6.7215 H   0  0  0  0  0  0  0  0  0  0  0  0
   -1.8246    1.6991   -5.7078 H   0  0  0  0  0  0  0  0  0  0  0  0
   -1.8637    1.9158   -3.9534 H   0  0  0  0  0  0  0  0  0  0  0  0
  1 36  1  0  0  0  0
  2  4  1  0  0  0  0
  2 23  1  0  0  0  0
  2  3  1  6  0  0  0
  2  1  1  0  0  0  0
  4  5  1  1  0  0  0
  4  6  1  0  0  0  0
  4 20  1  0  0  0  0
  6  7  1  0  0  0  0
  6 37  1  0  0  0  0
  6 38  1  0  0  0  0
  8  7  1  6  0  0  0
  8  9  2  0  0  0  0
  8 10  1  0  0  0  0
  8 19  1  0  0  0  0
 11 13  1  1  0  0  0
 11 18  1  0  0  0  0
 11 12  2  0  0  0  0
 11 10  1  0  0  0  0
 13 14  1  0  0  0  0
 14 15  2  0  0  0  0
 14 16  1  0  0  0  0
 14 17  1  0  0  0  0
 16 39  1  0  0  0  0
 17 40  1  0  0  0  0
 18 41  1  0  0  0  0
 19 42  1  0  0  0  0
 20 21  1  0  0  0  0
 21 23  1  0  0  0  0
 21 26  1  0  0  0  0
 21 22  1  6  0  0  0
 23 24  1  6  0  0  0
 23 25  1  0  0  0  0
 25 43  1  0  0  0  0
 26 27  1  0  0  0  0
 26 30  1  0  0  0  0
 27 28  2  0  0  0  0
 27 44  1  0  0  0  0
 28 29  1  0  0  0  0
 29 30  2  0  0  0  0
 29 34  1  0  0  0  0
 30 31  1  0  0  0  0
 31 32  2  0  0  0  0
 32 33  1  0  0  0  0
 32 45  1  0  0  0  0
 33 34  2  0  0  0  0
 34 35  1  0  0  0  0
 35 46  1  0  0  0  0
 35 47  1  0  0  0  0
M  END
$$$$
