SB2
 OpenBabel04121316183D

 43 46  0  0  0  0  0  0  0  0999 V2000
    0.8905    0.0699   -0.0394 F   0  0  0  0  0  0  0  0  0  0  0  0
    2.2278    0.0941   -0.0130 C   0  0  0  0  0  0  0  0  0  0  0  0
    2.9110    1.3024   -0.0756 C   0  0  0  0  0  0  0  0  0  0  0  0
    4.3018    1.3011   -0.2372 C   0  0  0  0  0  0  0  0  0  0  0  0
    5.0150    0.1037   -0.1454 C   0  0  0  0  0  0  0  0  0  0  0  0
    4.3023   -1.0274    0.2599 C   0  0  0  0  0  0  0  0  0  0  0  0
    2.9203   -1.0887    0.1264 C   0  0  0  0  0  0  0  0  0  0  0  0
    6.4282    0.0348   -0.5294 C   0  0  0  0  0  0  0  0  0  0  0  0
    7.1797    1.1782   -0.7025 N   0  0  0  0  0  0  0  0  0  0  0  0
    8.3904    0.7957   -1.0399 C   0  0  0  0  0  0  0  0  0  0  0  0
    8.4398   -0.5790   -1.1133 N   0  0  0  0  0  0  0  0  0  0  0  0
    9.2489   -1.1192   -1.3514 H   0  0  0  0  0  0  0  0  0  0  0  0
    7.1799   -1.0916   -0.8701 C   0  0  0  0  0  0  0  0  0  0  0  0
    6.8799   -2.5277   -0.9748 C   0  0  0  0  0  0  0  0  0  0  0  0
    7.7872   -3.5091   -0.5883 C   0  0  0  0  0  0  0  0  0  0  0  0
    7.3575   -4.8284   -0.5809 C   0  0  0  0  0  0  0  0  0  0  0  0
    6.0696   -5.2005   -0.7321 N   0  0  0  0  0  0  0  0  0  0  0  0
    5.2099   -4.2341   -1.0829 C   0  0  0  0  0  0  0  0  0  0  0  0
    5.6137   -2.9492   -1.3857 C   0  0  0  0  0  0  0  0  0  0  0  0
    9.5210    1.6847   -1.3280 C   0  0  0  0  0  0  0  0  0  0  0  0
    9.3416    3.0680   -1.1969 C   0  0  0  0  0  0  0  0  0  0  0  0
   10.3340    3.9602   -1.6130 C   0  0  0  0  0  0  0  0  0  0  0  0
   11.5603    3.4905   -2.0955 C   0  0  0  0  0  0  0  0  0  0  0  0
   11.7909    2.1126   -2.0992 C   0  0  0  0  0  0  0  0  0  0  0  0
   10.7659    1.2184   -1.7626 C   0  0  0  0  0  0  0  0  0  0  0  0
   12.7046    4.7103   -2.7814 S   0  0  1  0  0  0  0  0  0  0  0  0
   13.0770    5.5937   -1.6291 O   0  0  0  0  0  0  0  0  0  0  0  0
   14.1348    3.7097   -3.2189 C   0  0  0  0  0  0  0  0  0  0  0  0
    2.3577    2.2324   -0.0322 H   0  0  0  0  0  0  0  0  0  0  0  0
    4.8242    2.2349   -0.4331 H   0  0  0  0  0  0  0  0  0  0  0  0
    4.8210   -1.9168    0.5959 H   0  0  0  0  0  0  0  0  0  0  0  0
    2.4025   -2.0420    0.1489 H   0  0  0  0  0  0  0  0  0  0  0  0
    8.7985   -3.2781   -0.2763 H   0  0  0  0  0  0  0  0  0  0  0  0
    8.0530   -5.6470   -0.4311 H   0  0  0  0  0  0  0  0  0  0  0  0
    4.1541   -4.4938   -1.0668 H   0  0  0  0  0  0  0  0  0  0  0  0
    4.8861   -2.2488   -1.7801 H   0  0  0  0  0  0  0  0  0  0  0  0
    8.4073    3.4602   -0.7977 H   0  0  0  0  0  0  0  0  0  0  0  0
   10.1287    5.0290   -1.5765 H   0  0  0  0  0  0  0  0  0  0  0  0
   12.7513    1.6944   -2.3787 H   0  0  0  0  0  0  0  0  0  0  0  0
   10.9673    0.1568   -1.8728 H   0  0  0  0  0  0  0  0  0  0  0  0
   13.8622    2.9791   -3.9854 H   0  0  0  0  0  0  0  0  0  0  0  0
   14.5412    3.2091   -2.3371 H   0  0  0  0  0  0  0  0  0  0  0  0
   14.8999    4.3712   -3.6325 H   0  0  0  0  0  0  0  0  0  0  0  0
  1  2  1  0  0  0  0
  2  3  2  0  0  0  0
  2  7  1  0  0  0  0
  3  4  1  0  0  0  0
  3 29  1  0  0  0  0
  4  5  2  0  0  0  0
  4 30  1  0  0  0  0
  5  6  1  0  0  0  0
  5  8  1  0  0  0  0
  6  7  2  0  0  0  0
  6 31  1  0  0  0  0
  7 32  1  0  0  0  0
  8  9  1  0  0  0  0
  8 13  2  0  0  0  0
  9 10  2  0  0  0  0
 10 11  1  0  0  0  0
 10 20  1  0  0  0  0
 11 12  1  0  0  0  0
 11 13  1  0  0  0  0
 13 14  1  0  0  0  0
 14 15  2  0  0  0  0
 14 19  1  0  0  0  0
 15 16  1  0  0  0  0
 15 33  1  0  0  0  0
 16 17  2  0  0  0  0
 16 34  1  0  0  0  0
 17 18  1  0  0  0  0
 18 19  2  0  0  0  0
 18 35  1  0  0  0  0
 19 36  1  0  0  0  0
 20 21  2  0  0  0  0
 20 25  1  0  0  0  0
 21 22  1  0  0  0  0
 21 37  1  0  0  0  0
 22 23  2  0  0  0  0
 22 38  1  0  0  0  0
 23 24  1  0  0  0  0
 24 25  2  0  0  0  0
 24 39  1  0  0  0  0
 25 40  1  0  0  0  0
 26 23  1  1  0  0  0
 26 27  2  0  0  0  0
 26 28  1  0  0  0  0
 28 41  1  0  0  0  0
 28 42  1  0  0  0  0
 28 43  1  0  0  0  0
M  END
$$$$
