SB7
 OpenBabel04121316183D

 28 28  0  0  0  0  0  0  0  0999 V2000
    1.0197   -0.3914    0.1261 O   0  0  0  0  0  0  0  0  0  0  0  0
    2.3967   -0.0843   -0.0006 C   0  0  0  0  0  0  0  0  0  0  0  0
    2.8408   -0.0590   -1.3961 N   0  0  0  0  0  0  0  0  0  0  0  0
    2.4075    1.1551   -2.1179 C   0  0  0  0  0  0  0  0  0  0  0  0
    0.8923    1.2035   -2.2134 C   0  0  0  0  0  0  0  0  0  0  0  0
    0.3248    2.4016   -2.9529 C   0  0  0  0  0  0  0  0  0  0  0  0
   -1.1925    2.3774   -2.9401 C   0  0  0  0  0  0  0  0  0  0  0  0
   -1.9153    1.1682   -2.9476 C   0  0  0  0  0  0  0  0  0  0  0  0
   -3.2995    1.1633   -3.1022 C   0  0  0  0  0  0  0  0  0  0  0  0
   -3.9861    2.3625   -3.1659 C   0  0  0  0  0  0  0  0  0  0  0  0
   -3.2973    3.5717   -3.0506 C   0  0  0  0  0  0  0  0  0  0  0  0
   -1.9011    3.5775   -2.9746 C   0  0  0  0  0  0  0  0  0  0  0  0
    4.2929    0.0594   -1.3222 O   0  0  0  0  0  0  0  0  0  0  0  0
    0.7233   -0.0029    0.9647 H   0  0  0  0  0  0  0  0  0  0  0  0
    2.9152   -0.8907    0.5240 H   0  0  0  0  0  0  0  0  0  0  0  0
    2.6205    0.8623    0.5040 H   0  0  0  0  0  0  0  0  0  0  0  0
    2.8147    1.1263   -3.1379 H   0  0  0  0  0  0  0  0  0  0  0  0
    2.7907    2.0648   -1.6411 H   0  0  0  0  0  0  0  0  0  0  0  0
    0.4497    1.2587   -1.2163 H   0  0  0  0  0  0  0  0  0  0  0  0
    0.5739    0.2677   -2.6854 H   0  0  0  0  0  0  0  0  0  0  0  0
    0.6740    2.4229   -3.9910 H   0  0  0  0  0  0  0  0  0  0  0  0
    0.6802    3.3173   -2.4618 H   0  0  0  0  0  0  0  0  0  0  0  0
   -1.4280    0.2062   -2.8385 H   0  0  0  0  0  0  0  0  0  0  0  0
   -3.8217    0.2120   -3.1756 H   0  0  0  0  0  0  0  0  0  0  0  0
   -5.0646    2.3595   -3.3011 H   0  0  0  0  0  0  0  0  0  0  0  0
   -3.8430    4.5069   -3.0370 H   0  0  0  0  0  0  0  0  0  0  0  0
   -1.3746    4.5294   -2.9438 H   0  0  0  0  0  0  0  0  0  0  0  0
    4.5540   -0.8737   -1.1980 H   0  0  0  0  0  0  0  0  0  0  0  0
  1  2  1  0  0  0  0
  1 14  1  0  0  0  0
  2  3  1  0  0  0  0
  2 15  1  0  0  0  0
  2 16  1  0  0  0  0
  3  4  1  0  0  0  0
  3 13  1  0  0  0  0
  4  5  1  0  0  0  0
  4 17  1  0  0  0  0
  4 18  1  0  0  0  0
  5  6  1  0  0  0  0
  5 19  1  0  0  0  0
  5 20  1  0  0  0  0
  6  7  1  0  0  0  0
  6 21  1  0  0  0  0
  6 22  1  0  0  0  0
  7  8  2  0  0  0  0
  7 12  1  0  0  0  0
  8  9  1  0  0  0  0
  8 23  1  0  0  0  0
  9 10  2  0  0  0  0
  9 24  1  0  0  0  0
 10 11  1  0  0  0  0
 10 25  1  0  0  0  0
 11 12  2  0  0  0  0
 11 26  1  0  0  0  0
 12 27  1  0  0  0  0
 13 28  1  0  0  0  0
M  END
$$$$
