SB9
 OpenBabel04121316183D

 28 28  0  0  0  0  0  0  0  0999 V2000
    1.0498    0.2951    0.2248 O   0  0  0  0  0  0  0  0  0  0  0  0
    2.2456    0.0974    0.0091 C   0  0  0  0  0  0  0  0  0  0  0  0
    2.8169   -0.7848   -0.8702 N   0  0  0  0  0  0  0  0  0  0  0  0
    2.1423   -1.7053   -1.7898 C   0  0  0  0  0  0  0  0  0  0  0  0
    0.6326   -1.5960   -1.7050 C   0  0  0  0  0  0  0  0  0  0  0  0
   -0.1273   -2.5017   -2.6545 C   0  0  0  0  0  0  0  0  0  0  0  0
   -1.6129   -2.3115   -2.4378 C   0  0  0  0  0  0  0  0  0  0  0  0
   -2.4148   -3.4275   -2.2620 C   0  0  0  0  0  0  0  0  0  0  0  0
   -3.7066   -3.2457   -1.7927 C   0  0  0  0  0  0  0  0  0  0  0  0
   -4.2295   -1.9622   -1.7175 C   0  0  0  0  0  0  0  0  0  0  0  0
   -3.4114   -0.8890   -2.0431 C   0  0  0  0  0  0  0  0  0  0  0  0
   -2.1023   -1.0470   -2.3557 N   0  0  0  0  0  0  0  0  0  0  0  0
   -3.9751    0.4991   -2.1001 C   0  0  0  0  0  0  0  0  0  0  0  0
    4.2193   -0.8782   -0.9640 O   0  0  0  0  0  0  0  0  0  0  0  0
    2.9845    0.6764    0.5724 H   0  0  0  0  0  0  0  0  0  0  0  0
    2.4781   -2.7228   -1.5522 H   0  0  0  0  0  0  0  0  0  0  0  0
    2.4905   -1.4791   -2.8054 H   0  0  0  0  0  0  0  0  0  0  0  0
    0.3550   -0.5568   -1.9165 H   0  0  0  0  0  0  0  0  0  0  0  0
    0.3211   -1.8290   -0.6775 H   0  0  0  0  0  0  0  0  0  0  0  0
    0.1519   -3.5401   -2.4354 H   0  0  0  0  0  0  0  0  0  0  0  0
    0.1284   -2.2910   -3.6960 H   0  0  0  0  0  0  0  0  0  0  0  0
   -2.0311   -4.4216   -2.4560 H   0  0  0  0  0  0  0  0  0  0  0  0
   -4.3014   -4.1010   -1.4917 H   0  0  0  0  0  0  0  0  0  0  0  0
   -5.2692   -1.8120   -1.4500 H   0  0  0  0  0  0  0  0  0  0  0  0
   -5.0602    0.4919   -1.9485 H   0  0  0  0  0  0  0  0  0  0  0  0
   -3.7836    0.9296   -3.0882 H   0  0  0  0  0  0  0  0  0  0  0  0
   -3.5244    1.1350   -1.3335 H   0  0  0  0  0  0  0  0  0  0  0  0
    4.5608   -0.2281   -0.3265 H   0  0  0  0  0  0  0  0  0  0  0  0
  1  2  2  0  0  0  0
  2  3  1  0  0  0  0
  2 15  1  0  0  0  0
  3  4  1  0  0  0  0
  3 14  1  0  0  0  0
  4  5  1  0  0  0  0
  4 16  1  0  0  0  0
  4 17  1  0  0  0  0
  5  6  1  0  0  0  0
  5 18  1  0  0  0  0
  5 19  1  0  0  0  0
  6  7  1  0  0  0  0
  6 20  1  0  0  0  0
  6 21  1  0  0  0  0
  7  8  2  0  0  0  0
  7 12  1  0  0  0  0
  8  9  1  0  0  0  0
  8 22  1  0  0  0  0
  9 10  2  0  0  0  0
  9 23  1  0  0  0  0
 10 11  1  0  0  0  0
 10 24  1  0  0  0  0
 11 12  2  0  0  0  0
 11 13  1  0  0  0  0
 13 25  1  0  0  0  0
 13 26  1  0  0  0  0
 13 27  1  0  0  0  0
 14 28  1  0  0  0  0
M  END
$$$$
