SBC
 OpenBabel04121316183D

 37 40  0  0  0  0  0  0  0  0999 V2000
    1.0576    0.1276   -0.1265 N   0  0  0  0  0  0  0  0  0  0  0  0
    2.4270    0.1277   -0.0683 C   0  0  0  0  0  0  0  0  0  0  0  0
    3.0013   -0.1655    0.9760 O   0  0  0  0  0  0  0  0  0  0  0  0
    3.1271    0.3625   -1.3366 C   0  0  0  0  0  0  0  0  0  0  0  0
    3.3403    1.5830   -1.8668 N   0  0  0  0  0  0  0  0  0  0  0  0
    4.0355    1.3567   -3.0354 N   0  0  0  0  0  0  0  0  0  0  0  0
    4.2770    0.0180   -3.2076 C   0  0  0  0  0  0  0  0  0  0  0  0
    3.6984   -0.6513   -2.1388 C   0  0  0  0  0  0  0  0  0  0  0  0
    3.8058   -2.0610   -2.0702 C   0  0  0  0  0  0  0  0  0  0  0  0
    4.4615   -2.7967   -3.0807 C   0  0  0  0  0  0  0  0  0  0  0  0
    5.0200   -2.0766   -4.1331 C   0  0  0  0  0  0  0  0  0  0  0  0
    4.9601   -0.6967   -4.1681 C   0  0  0  0  0  0  0  0  0  0  0  0
    5.7568   -0.3291   -5.2811 C   0  0  0  0  0  0  0  0  0  0  0  0
    6.1343   -1.3951   -5.9954 N   0  0  0  0  0  0  0  0  0  0  0  0
    5.7165   -2.4365   -5.2532 N   0  0  0  0  0  0  0  0  0  0  0  0
    5.9644   -3.3686   -5.5622 H   0  0  0  0  0  0  0  0  0  0  0  0
    4.2748    2.4704   -3.9023 C   0  0  0  0  0  0  0  0  0  0  0  0
    4.3255    3.7845   -3.4179 C   0  0  0  0  0  0  0  0  0  0  0  0
    4.3795    4.8564   -4.3258 C   0  0  0  0  0  0  0  0  0  0  0  0
    4.5564    4.6077   -5.6920 C   0  0  0  0  0  0  0  0  0  0  0  0
    4.6706    3.3078   -6.1537 C   0  0  0  0  0  0  0  0  0  0  0  0
    4.3680    2.2760   -5.2789 C   0  0  0  0  0  0  0  0  0  0  0  0
    4.4260    5.9440   -6.8489 S   0  0  0  0  0  0  0  0  0  0  0  0
    3.0521    6.3768   -6.8395 O   0  0  0  0  0  0  0  0  0  0  0  0
    5.5489    6.8257   -6.6237 O   0  0  0  0  0  0  0  0  0  0  0  0
    4.6789    5.2058   -8.3315 N   0  0  0  0  0  0  0  0  0  0  0  0
    0.5541   -0.0893    0.7238 H   0  0  0  0  0  0  0  0  0  0  0  0
    0.5422    0.3109   -0.9744 H   0  0  0  0  0  0  0  0  0  0  0  0
    3.3836   -2.5918   -1.2184 H   0  0  0  0  0  0  0  0  0  0  0  0
    4.5488   -3.8756   -3.0159 H   0  0  0  0  0  0  0  0  0  0  0  0
    6.0839    0.6276   -5.6564 H   0  0  0  0  0  0  0  0  0  0  0  0
    4.2853    3.9947   -2.3498 H   0  0  0  0  0  0  0  0  0  0  0  0
    4.2568    5.8776   -3.9707 H   0  0  0  0  0  0  0  0  0  0  0  0
    4.8885    3.0603   -7.1864 H   0  0  0  0  0  0  0  0  0  0  0  0
    4.1287    1.3219   -5.7309 H   0  0  0  0  0  0  0  0  0  0  0  0
    3.9063    4.6328   -8.6633 H   0  0  0  0  0  0  0  0  0  0  0  0
    5.6370    4.9236   -8.5164 H   0  0  0  0  0  0  0  0  0  0  0  0
  1  2  1  0  0  0  0
  1 27  1  0  0  0  0
  1 28  1  0  0  0  0
  2  3  2  0  0  0  0
  2  4  1  0  0  0  0
  4  5  2  0  0  0  0
  4  8  1  0  0  0  0
  5  6  1  0  0  0  0
  6  7  1  0  0  0  0
  6 17  1  0  0  0  0
  7  8  2  0  0  0  0
  7 12  1  0  0  0  0
  8  9  1  0  0  0  0
  9 10  2  0  0  0  0
  9 29  1  0  0  0  0
 10 11  1  0  0  0  0
 10 30  1  0  0  0  0
 11 12  2  0  0  0  0
 11 15  1  0  0  0  0
 12 13  1  0  0  0  0
 13 14  2  0  0  0  0
 13 31  1  0  0  0  0
 14 15  1  0  0  0  0
 15 16  1  0  0  0  0
 17 18  2  0  0  0  0
 17 22  1  0  0  0  0
 18 19  1  0  0  0  0
 18 32  1  0  0  0  0
 19 20  2  0  0  0  0
 19 33  1  0  0  0  0
 20 21  1  0  0  0  0
 20 23  1  0  0  0  0
 21 22  2  0  0  0  0
 21 34  1  0  0  0  0
 22 35  1  0  0  0  0
 23 24  2  0  0  0  0
 23 25  2  0  0  0  0
 23 26  1  0  0  0  0
 26 36  1  0  0  0  0
 26 37  1  0  0  0  0
M  END
$$$$
