SBI
 OpenBabel04121316183D

 26 28  0  0  1  0  0  0  0  0999 V2000
    9.5854    4.1913   -0.5015 F   0  0  0  0  0  0  0  0  0  0  0  0
    8.7076    3.2004   -0.7021 C   0  0  0  0  0  0  0  0  0  0  0  0
    7.3796    3.3909   -0.3526 C   0  0  0  0  0  0  0  0  0  0  0  0
    6.4429    2.3582   -0.5377 C   0  0  0  0  0  0  0  0  0  0  0  0
    5.0039    2.5331   -0.1335 C   0  0  2  0  0  0  0  0  0  0  0  0
    4.2692    1.2032   -0.0528 C   0  0  0  0  0  0  0  0  0  0  0  0
    4.6359    0.3933   -1.2830 C   0  0  0  0  0  0  0  0  0  0  0  0
    6.0333    0.0847   -1.3180 O   0  0  0  0  0  0  0  0  0  0  0  0
    6.8671    1.1506   -1.1041 C   0  0  0  0  0  0  0  0  0  0  0  0
    8.2087    0.9685   -1.4480 C   0  0  0  0  0  0  0  0  0  0  0  0
    9.1310    1.9983   -1.2491 C   0  0  0  0  0  0  0  0  0  0  0  0
    4.3261    3.4512   -1.0246 N   0  0  0  0  0  0  0  0  0  0  0  0
    3.9010    4.5818   -0.3783 C   0  0  0  0  0  0  0  0  0  0  0  0
    3.3353    5.5186   -0.9146 O   0  0  0  0  0  0  0  0  0  0  0  0
    4.2142    4.4777    0.9329 N   0  0  0  0  0  0  0  0  0  0  0  0
    4.8560    3.3041    1.1916 C   0  0  0  0  0  0  0  0  0  0  0  0
    5.2738    2.9626    2.2879 O   0  0  0  0  0  0  0  0  0  0  0  0
    7.0960    4.3463    0.0803 H   0  0  0  0  0  0  0  0  0  0  0  0
    3.1840    1.3517    0.0062 H   0  0  0  0  0  0  0  0  0  0  0  0
    4.5756    0.6556    0.8480 H   0  0  0  0  0  0  0  0  0  0  0  0
    4.3632    0.9137   -2.2101 H   0  0  0  0  0  0  0  0  0  0  0  0
    4.0864   -0.5538   -1.2773 H   0  0  0  0  0  0  0  0  0  0  0  0
    8.5370    0.0242   -1.8741 H   0  0  0  0  0  0  0  0  0  0  0  0
   10.1747    1.8718   -1.5155 H   0  0  0  0  0  0  0  0  0  0  0  0
    4.2328    3.3471   -2.0268 H   0  0  0  0  0  0  0  0  0  0  0  0
    4.0286    5.1895    1.6175 H   0  0  0  0  0  0  0  0  0  0  0  0
  1  2  1  0  0  0  0
  2  3  2  0  0  0  0
  2 11  1  0  0  0  0
  3  4  1  0  0  0  0
  3 18  1  0  0  0  0
  4  9  2  0  0  0  0
  5  4  1  6  0  0  0
  5  6  1  0  0  0  0
  5 12  1  0  0  0  0
  5 16  1  0  0  0  0
  6  7  1  0  0  0  0
  6 19  1  0  0  0  0
  6 20  1  0  0  0  0
  7  8  1  0  0  0  0
  7 21  1  0  0  0  0
  7 22  1  0  0  0  0
  8  9  1  0  0  0  0
  9 10  1  0  0  0  0
 10 11  2  0  0  0  0
 10 23  1  0  0  0  0
 11 24  1  0  0  0  0
 12 13  1  0  0  0  0
 12 25  1  0  0  0  0
 13 14  2  0  0  0  0
 13 15  1  0  0  0  0
 15 16  1  0  0  0  0
 15 26  1  0  0  0  0
 16 17  2  0  0  0  0
M  END
$$$$
