SBP
 OpenBabel04121316183D

 28 28  0  0  0  0  0  0  0  0999 V2000
    0.9005    0.0082   -0.0059 N   0  0  0  0  0  0  0  0  0  0  0  0
    2.2970    0.0082   -0.0059 C   0  0  0  0  0  0  0  0  0  0  0  0
    2.9324   -0.6405    0.8832 N   0  3  0  0  0  0  0  0  0  0  0  0
    3.9324   -0.6405    0.8832 H   0  0  0  0  0  0  0  0  0  0  0  0
    2.4324   -1.1509    1.5828 H   0  0  0  0  0  0  0  0  0  0  0  0
    2.9953    0.7211   -0.9829 N   0  0  0  0  0  0  0  0  0  0  0  0
    4.4298    0.7211   -0.9829 C   0  0  0  0  0  0  0  0  0  0  0  0
    4.9364    1.5658   -2.1405 C   0  0  0  0  0  0  0  0  0  0  0  0
    6.4564    1.5658   -2.1405 C   0  0  0  0  0  0  0  0  0  0  0  0
    6.9298    2.3549   -3.2220 O   0  0  0  0  0  0  0  0  0  0  0  0
    8.3878    2.3549   -3.2220 B   0  0  0  0  0  0  0  0  0  0  0  0
    9.3379    3.1451   -4.1551 O   0  0  0  0  0  0  0  0  0  0  0  0
   10.4895    2.1344   -4.4018 C   0  0  0  0  0  0  0  0  0  0  0  0
   10.6709    1.4272   -3.0423 C   0  0  0  0  0  0  0  0  0  0  0  0
    9.3344    1.5677   -2.2925 O   0  0  0  0  0  0  0  0  0  0  0  0
    0.4083   -0.4943    0.6829 H   0  0  0  0  0  0  0  0  0  0  0  0
    0.4083    0.5108   -0.6946 H   0  0  0  0  0  0  0  0  0  0  0  0
    2.5030    1.2236   -1.6716 H   0  0  0  0  0  0  0  0  0  0  0  0
    4.7864   -0.2820   -1.0903 H   0  0  0  0  0  0  0  0  0  0  0  0
    4.7864    1.1295   -0.0604 H   0  0  0  0  0  0  0  0  0  0  0  0
    4.5798    2.5688   -2.0331 H   0  0  0  0  0  0  0  0  0  0  0  0
    4.5798    1.1573   -3.0630 H   0  0  0  0  0  0  0  0  0  0  0  0
    6.8131    0.5627   -2.2480 H   0  0  0  0  0  0  0  0  0  0  0  0
    6.8131    1.9742   -1.2181 H   0  0  0  0  0  0  0  0  0  0  0  0
   11.3863    2.6433   -4.6873 H   0  0  0  0  0  0  0  0  0  0  0  0
   10.2705    1.4492   -5.1940 H   0  0  0  0  0  0  0  0  0  0  0  0
   11.4572    1.8928   -2.4858 H   0  0  0  0  0  0  0  0  0  0  0  0
   10.9332    0.3982   -3.1743 H   0  0  0  0  0  0  0  0  0  0  0  0
  1  2  1  0  0  0  0
  1 16  1  0  0  0  0
  1 17  1  0  0  0  0
  2  3  2  0  0  0  0
  2  6  1  0  0  0  0
  3  4  1  0  0  0  0
  3  5  1  0  0  0  0
  6  7  1  0  0  0  0
  6 18  1  0  0  0  0
  7  8  1  0  0  0  0
  7 19  1  0  0  0  0
  7 20  1  0  0  0  0
  8  9  1  0  0  0  0
  8 21  1  0  0  0  0
  8 22  1  0  0  0  0
  9 10  1  0  0  0  0
  9 23  1  0  0  0  0
  9 24  1  0  0  0  0
 10 11  1  0  0  0  0
 11 12  1  0  0  0  0
 11 15  1  0  0  0  0
 12 13  1  0  0  0  0
 13 14  1  0  0  0  0
 13 25  1  0  0  0  0
 13 26  1  0  0  0  0
 14 15  1  0  0  0  0
 14 27  1  0  0  0  0
 14 28  1  0  0  0  0
M  CHG  1   3   1
M  END
$$$$
