SCA
 OpenBabel04121316183D

 95 97  0  0  1  0  0  0  0  0999 V2000
    9.8463    3.0846   -0.0813 O   0  0  0  0  0  0  0  0  0  0  0  0
    8.9534    2.2627    0.1241 C   0  0  0  0  0  0  0  0  0  0  0  0
    8.7904    1.6408    1.3392 N   0  0  0  0  0  0  0  0  0  0  0  0
    9.6469    1.9955    2.4522 C   0  0  0  0  0  0  0  0  0  0  0  0
    9.3106    1.2347    3.7366 C   0  0  0  0  0  0  0  0  0  0  0  0
   10.4588    1.7642    5.0473 S   0  0  0  0  0  0  0  0  0  0  0  0
    9.9159    0.7895    6.4097 C   0  0  0  0  0  0  0  0  0  0  0  0
    8.9923   -0.0067    6.3169 O   0  0  0  0  0  0  0  0  0  0  0  0
   10.7095    1.0271    7.6787 C   0  0  0  0  0  0  0  0  0  0  0  0
   10.2117    0.1633    8.8394 C   0  0  0  0  0  0  0  0  0  0  0  0
   11.0296    0.4281   10.0796 C   0  0  0  0  0  0  0  0  0  0  0  0
   11.9582    1.2207   10.1395 O   0  0  0  0  0  0  0  0  0  0  0  0
   10.6462   -0.3026   11.1490 O   0  0  0  0  0  0  0  0  0  0  0  0
    8.0014    1.9078   -0.9895 C   0  0  0  0  0  0  0  0  0  0  0  0
    6.8369    1.0345   -0.6024 C   0  0  0  0  0  0  0  0  0  0  0  0
    5.8414    1.0483   -1.6865 N   0  0  0  0  0  0  0  0  0  0  0  0
    4.5756    0.4693   -1.4912 C   0  0  0  0  0  0  0  0  0  0  0  0
    3.9757    0.6214   -0.4736 O   0  0  0  0  0  0  0  0  0  0  0  0
    3.9996   -0.4576   -2.7151 C   0  0  1  0  0  0  0  0  0  0  0  0
    3.6368    0.3175   -3.3837 H   0  0  0  0  0  0  0  0  0  0  0  0
    4.9598   -1.4335   -3.7113 C   0  0  0  0  0  0  0  0  0  0  0  0
    5.8143   -2.7667   -3.3838 C   0  0  0  0  0  0  0  0  0  0  0  0
    7.0008   -2.6818   -2.4354 O   0  0  0  0  0  0  0  0  0  0  0  0
    7.0601   -3.9805   -1.4163 P   0  0  2  0  0  0  0  0  0  0  0  0
    6.6870   -3.5064    0.0052 O   0  0  0  0  0  0  0  0  0  0  0  0
    8.6682   -4.1874   -0.8658 O   0  0  0  0  0  0  0  0  0  0  0  0
    8.6346   -3.9403    0.8015 P   0  0  1  0  0  0  0  0  0  0  0  0
    8.4832   -2.4595    1.0860 O   0  0  0  0  0  0  0  0  0  0  0  0
    7.4885   -5.0097    1.4079 O   0  0  0  0  0  0  0  0  0  0  0  0
    6.6294   -5.8454    0.5627 C   0  0  0  0  0  0  0  0  0  0  0  0
    5.0934   -5.6495    0.4316 C   0  0  1  0  0  0  0  0  0  0  0  0
    4.7225   -5.5424   -0.6138 H   0  0  0  0  0  0  0  0  0  0  0  0
    4.6609   -6.9475    0.7413 O   0  0  0  0  0  0  0  0  0  0  0  0
    3.4842   -6.7631    1.4618 C   0  0  2  0  0  0  0  0  0  0  0  0
    2.6800   -6.9492    0.7416 H   0  0  0  0  0  0  0  0  0  0  0  0
    3.4100   -5.3336    2.0262 C   0  0  1  0  0  0  0  0  0  0  0  0
    3.7164   -5.3100    3.0769 H   0  0  0  0  0  0  0  0  0  0  0  0
    4.4169   -4.5058    1.2316 C   0  0  2  0  0  0  0  0  0  0  0  0
    5.1407   -4.0461    1.9066 H   0  0  0  0  0  0  0  0  0  0  0  0
    3.7915   -3.3841    0.4745 O   0  0  0  0  0  0  0  0  0  0  0  0
    4.8755   -2.3815   -0.4269 P   0  0  0  0  0  0  0  0  0  0  0  0
    3.9577   -2.7308   -1.5534 O   0  0  0  0  0  0  0  0  0  0  0  0
    4.6122   -1.3537    0.7651 O   0  0  0  0  0  0  0  0  0  0  0  0
    5.9594   -1.3788   -1.3284 O   0  0  0  0  0  0  0  0  0  0  0  0
    2.0827   -4.8358    1.9257 O   0  0  0  0  0  0  0  0  0  0  0  0
    3.4833   -7.7952    2.4500 N   0  0  0  0  0  0  0  0  0  0  0  0
    2.4345   -8.6510    2.6017 C   0  0  0  0  0  0  0  0  0  0  0  0
    2.6443   -9.4966    3.5785 N   0  0  0  0  0  0  0  0  0  0  0  0
    3.9168   -9.1979    4.0309 C   0  0  0  0  0  0  0  0  0  0  0  0
    4.4779   -8.1500    3.3229 C   0  0  0  0  0  0  0  0  0  0  0  0
    5.7029   -7.6151    3.5005 N   0  0  0  0  0  0  0  0  0  0  0  0
    6.3608   -8.2481    4.5021 C   0  0  0  0  0  0  0  0  0  0  0  0
    5.9257   -9.2629    5.2830 N   0  0  0  0  0  0  0  0  0  0  0  0
    4.6868   -9.7526    5.0583 C   0  0  0  0  0  0  0  0  0  0  0  0
    4.1990  -10.7692    5.8426 N   0  0  0  0  0  0  0  0  0  0  0  0
    9.9323   -4.2722    1.6619 O   0  0  0  0  0  0  0  0  0  0  0  0
    7.4780   -4.5117   -3.0088 O   0  0  0  0  0  0  0  0  0  0  0  0
    3.9969   -1.9516   -4.8052 C   0  0  0  0  0  0  0  0  0  0  0  0
    6.0133   -0.5160   -4.3277 C   0  0  0  0  0  0  0  0  0  0  0  0
    2.7116   -1.0315   -2.3647 O   0  0  0  0  0  0  0  0  0  0  0  0
    8.0906    0.9218    1.4818 H   0  0  0  0  0  0  0  0  0  0  0  0
    9.5431    3.0777    2.6001 H   0  0  0  0  0  0  0  0  0  0  0  0
   10.6770    1.7956    2.1344 H   0  0  0  0  0  0  0  0  0  0  0  0
    9.4023    0.1564    3.5640 H   0  0  0  0  0  0  0  0  0  0  0  0
    8.2753    1.4399    4.0322 H   0  0  0  0  0  0  0  0  0  0  0  0
   10.6344    2.0874    7.9514 H   0  0  0  0  0  0  0  0  0  0  0  0
   11.7655    0.8027    7.4817 H   0  0  0  0  0  0  0  0  0  0  0  0
   10.2980   -0.8978    8.5798 H   0  0  0  0  0  0  0  0  0  0  0  0
    9.1616    0.3917    9.0526 H   0  0  0  0  0  0  0  0  0  0  0  0
    9.8939   -0.9049   10.9968 H   0  0  0  0  0  0  0  0  0  0  0  0
    8.5790    1.4302   -1.7948 H   0  0  0  0  0  0  0  0  0  0  0  0
    7.5949    2.8427   -1.3833 H   0  0  0  0  0  0  0  0  0  0  0  0
    6.3562    1.3142    0.3356 H   0  0  0  0  0  0  0  0  0  0  0  0
    7.2582    0.0307   -0.4303 H   0  0  0  0  0  0  0  0  0  0  0  0
    6.2153    1.0615   -2.6092 H   0  0  0  0  0  0  0  0  0  0  0  0
    6.2683   -3.0975   -4.3322 H   0  0  0  0  0  0  0  0  0  0  0  0
    5.1932   -3.6310   -3.1031 H   0  0  0  0  0  0  0  0  0  0  0  0
    7.2101   -6.6305    0.0609 H   0  0  0  0  0  0  0  0  0  0  0  0
    6.5664   -5.4671   -0.3998 H   0  0  0  0  0  0  0  0  0  0  0  0
    3.6616   -1.3069    0.9829 H   0  0  0  0  0  0  0  0  0  0  0  0
    6.7722   -1.6210   -1.7870 H   0  0  0  0  0  0  0  0  0  0  0  0
    1.5011   -5.4254    2.4340 H   0  0  0  0  0  0  0  0  0  0  0  0
    1.5571   -8.5893    1.9711 H   0  0  0  0  0  0  0  0  0  0  0  0
    7.3675   -7.8953    4.7214 H   0  0  0  0  0  0  0  0  0  0  0  0
    4.7757  -11.1443    6.5748 H   0  0  0  0  0  0  0  0  0  0  0  0
    3.2681  -11.1132    5.6468 H   0  0  0  0  0  0  0  0  0  0  0  0
    9.9085   -3.5263    2.3241 H   0  0  0  0  0  0  0  0  0  0  0  0
    7.9471   -5.3676   -2.9852 H   0  0  0  0  0  0  0  0  0  0  0  0
    3.3222   -2.7219   -4.4075 H   0  0  0  0  0  0  0  0  0  0  0  0
    4.5508   -2.4074   -5.6340 H   0  0  0  0  0  0  0  0  0  0  0  0
    3.3965   -1.1362   -5.2093 H   0  0  0  0  0  0  0  0  0  0  0  0
    6.8314   -0.3425   -3.6230 H   0  0  0  0  0  0  0  0  0  0  0  0
    5.5603    0.4329   -4.6146 H   0  0  0  0  0  0  0  0  0  0  0  0
    6.4856   -0.9670   -5.2015 H   0  0  0  0  0  0  0  0  0  0  0  0
    2.8372   -1.5797   -1.5577 H   0  0  0  0  0  0  0  0  0  0  0  0
  1  2  2  0  0  0  0
  2  3  1  0  0  0  0
  2 14  1  0  0  0  0
  3  4  1  0  0  0  0
  3 61  1  0  0  0  0
  4  5  1  0  0  0  0
  4 62  1  0  0  0  0
  4 63  1  0  0  0  0
  5  6  1  0  0  0  0
  5 64  1  0  0  0  0
  5 65  1  0  0  0  0
  6  7  1  0  0  0  0
  7  8  2  0  0  0  0
  7  9  1  0  0  0  0
  9 10  1  0  0  0  0
  9 66  1  0  0  0  0
  9 67  1  0  0  0  0
 10 11  1  0  0  0  0
 10 68  1  0  0  0  0
 10 69  1  0  0  0  0
 11 12  2  0  0  0  0
 11 13  1  0  0  0  0
 13 70  1  0  0  0  0
 14 15  1  0  0  0  0
 14 71  1  0  0  0  0
 14 72  1  0  0  0  0
 15 16  1  0  0  0  0
 15 73  1  0  0  0  0
 15 74  1  0  0  0  0
 16 17  1  0  0  0  0
 16 75  1  0  0  0  0
 17 18  2  0  0  0  0
 17 19  1  0  0  0  0
 19 20  1  6  0  0  0
 19 21  1  0  0  0  0
 19 60  1  0  0  0  0
 21 22  1  0  0  0  0
 21 58  1  0  0  0  0
 21 59  1  0  0  0  0
 22 23  1  0  0  0  0
 22 76  1  0  0  0  0
 22 77  1  0  0  0  0
 24 26  1  1  0  0  0
 24 57  1  0  0  0  0
 24 25  2  0  0  0  0
 24 23  1  0  0  0  0
 27 26  1  6  0  0  0
 27 28  2  0  0  0  0
 27 29  1  0  0  0  0
 27 56  1  0  0  0  0
 29 30  1  0  0  0  0
 30 31  1  0  0  0  0
 30 78  1  0  0  0  0
 30 79  1  0  0  0  0
 31 32  1  6  0  0  0
 31 33  1  0  0  0  0
 31 38  1  0  0  0  0
 33 34  1  0  0  0  0
 34 36  1  0  0  0  0
 34 46  1  0  0  0  0
 34 35  1  6  0  0  0
 36 37  1  1  0  0  0
 36 38  1  0  0  0  0
 36 45  1  0  0  0  0
 38 39  1  1  0  0  0
 38 40  1  0  0  0  0
 40 41  1  0  0  0  0
 41 42  2  0  0  0  0
 41 43  1  0  0  0  0
 41 44  1  0  0  0  0
 43 80  1  0  0  0  0
 44 81  1  0  0  0  0
 45 82  1  0  0  0  0
 46 47  1  0  0  0  0
 46 50  1  0  0  0  0
 47 48  2  0  0  0  0
 47 83  1  0  0  0  0
 48 49  1  0  0  0  0
 49 50  2  0  0  0  0
 49 54  1  0  0  0  0
 50 51  1  0  0  0  0
 51 52  2  0  0  0  0
 52 53  1  0  0  0  0
 52 84  1  0  0  0  0
 53 54  2  0  0  0  0
 54 55  1  0  0  0  0
 55 85  1  0  0  0  0
 55 86  1  0  0  0  0
 56 87  1  0  0  0  0
 57 88  1  0  0  0  0
 58 89  1  0  0  0  0
 58 90  1  0  0  0  0
 58 91  1  0  0  0  0
 59 92  1  0  0  0  0
 59 93  1  0  0  0  0
 59 94  1  0  0  0  0
 60 95  1  0  0  0  0
M  END
$$$$
