SCE
 OpenBabel04121316183D

 31 33  0  0  0  0  0  0  0  0999 V2000
    0.9042   -0.0389    0.0838 C   0  0  0  0  0  0  0  0  0  0  0  0
    2.3795    0.0008    0.0828 C   0  0  0  0  0  0  0  0  0  0  0  0
    3.2533    1.0735    0.0818 C   0  0  0  0  0  0  0  0  0  0  0  0
    4.5619    0.6595    0.0785 N   0  0  0  0  0  0  0  0  0  0  0  0
    4.4768   -0.6562    0.0811 C   0  0  0  0  0  0  0  0  0  0  0  0
    3.1885   -1.1117    0.0822 N   0  0  0  0  0  0  0  0  0  0  0  0
    2.9365   -2.4702    0.0826 C   0  0  0  0  0  0  0  0  0  0  0  0
    3.9891   -3.3117    0.0820 C   0  0  0  0  0  0  0  0  0  0  0  0
    5.3041   -2.9055    0.0911 N   0  0  0  0  0  0  0  0  0  0  0  0
    5.5662   -1.6162    0.0937 C   0  0  0  0  0  0  0  0  0  0  0  0
    6.8558   -1.1804    0.1143 N   0  0  0  0  0  0  0  0  0  0  0  0
    7.9963   -2.0534    0.1087 C   0  0  0  0  0  0  0  0  0  0  0  0
    9.3058   -1.3042    0.0899 C   0  0  0  0  0  0  0  0  0  0  0  0
    9.4035    0.0876    0.1948 C   0  0  0  0  0  0  0  0  0  0  0  0
   10.6309    0.6916    0.0026 C   0  0  0  0  0  0  0  0  0  0  0  0
   11.7818    0.0098   -0.1408 N   0  0  0  0  0  0  0  0  0  0  0  0
   11.6915   -1.3363   -0.1166 C   0  0  0  0  0  0  0  0  0  0  0  0
   10.4936   -2.0297   -0.0516 C   0  0  0  0  0  0  0  0  0  0  0  0
    0.4957    0.9769    0.0832 H   0  0  0  0  0  0  0  0  0  0  0  0
    0.5304   -0.5524    0.9747 H   0  0  0  0  0  0  0  0  0  0  0  0
    0.5302   -0.5534   -0.8064 H   0  0  0  0  0  0  0  0  0  0  0  0
    2.9948    2.1260    0.0829 H   0  0  0  0  0  0  0  0  0  0  0  0
    1.9135   -2.8093    0.0828 H   0  0  0  0  0  0  0  0  0  0  0  0
    3.8410   -4.3869    0.0790 H   0  0  0  0  0  0  0  0  0  0  0  0
    6.9588   -0.1857   -0.0270 H   0  0  0  0  0  0  0  0  0  0  0  0
    7.9537   -2.6946   -0.7819 H   0  0  0  0  0  0  0  0  0  0  0  0
    7.9682   -2.6988    0.9948 H   0  0  0  0  0  0  0  0  0  0  0  0
    8.5570    0.7270    0.4096 H   0  0  0  0  0  0  0  0  0  0  0  0
   10.7066    1.7737   -0.0430 H   0  0  0  0  0  0  0  0  0  0  0  0
   12.6408   -1.8615   -0.1489 H   0  0  0  0  0  0  0  0  0  0  0  0
   10.4919   -3.1146   -0.1028 H   0  0  0  0  0  0  0  0  0  0  0  0
  1  2  1  0  0  0  0
  1 19  1  0  0  0  0
  1 20  1  0  0  0  0
  1 21  1  0  0  0  0
  2  3  2  0  0  0  0
  2  6  1  0  0  0  0
  3  4  1  0  0  0  0
  3 22  1  0  0  0  0
  4  5  2  0  0  0  0
  5  6  1  0  0  0  0
  5 10  1  0  0  0  0
  6  7  1  0  0  0  0
  7  8  2  0  0  0  0
  7 23  1  0  0  0  0
  8  9  1  0  0  0  0
  8 24  1  0  0  0  0
  9 10  2  0  0  0  0
 10 11  1  0  0  0  0
 11 12  1  0  0  0  0
 11 25  1  0  0  0  0
 12 13  1  0  0  0  0
 12 26  1  0  0  0  0
 12 27  1  0  0  0  0
 13 14  2  0  0  0  0
 13 18  1  0  0  0  0
 14 15  1  0  0  0  0
 14 28  1  0  0  0  0
 15 16  2  0  0  0  0
 15 29  1  0  0  0  0
 16 17  1  0  0  0  0
 17 18  2  0  0  0  0
 17 30  1  0  0  0  0
 18 31  1  0  0  0  0
M  END
$$$$
