SCV
 OpenBabel04121316183D

 47 46  0  0  1  0  0  0  0  0999 V2000
    0.1274    2.1894   -3.7608 O   0  0  0  0  0  0  0  0  0  0  0  0
    0.2911    0.9814   -3.5984 C   0  0  0  0  0  0  0  0  0  0  0  0
    1.2626    0.5146   -2.7457 N   0  0  0  0  0  0  0  0  0  0  0  0
    2.1685    1.4660   -2.1030 C   0  0  2  0  0  0  0  0  0  0  0  0
    2.6804    0.8872   -1.3183 H   0  0  0  0  0  0  0  0  0  0  0  0
    1.4261    2.5646   -1.3680 C   0  0  0  0  0  0  0  0  0  0  0  0
    1.7049    3.7577   -1.4579 O   0  0  0  0  0  0  0  0  0  0  0  0
    0.3826    2.1035   -0.6180 O   0  0  0  0  0  0  0  0  0  0  0  0
   -0.4670    3.1428   -0.0802 C   0  0  1  0  0  0  0  0  0  0  0  0
    0.1530    3.8925    0.4311 H   0  0  0  0  0  0  0  0  0  0  0  0
   -1.2995    3.8311   -1.1996 C   0  0  0  0  0  0  0  0  0  0  0  0
   -2.5161    3.7396   -1.3104 O   0  0  0  0  0  0  0  0  0  0  0  0
   -0.5960    4.5780   -2.0781 O   0  0  0  0  0  0  0  0  0  0  0  0
   -1.4177    2.5249    0.9836 C   0  0  0  0  0  0  0  0  0  0  0  0
   -0.6526    1.7919    2.0920 C   0  0  0  0  0  0  0  0  0  0  0  0
   -2.3052    3.5929    1.6432 C   0  0  0  0  0  0  0  0  0  0  0  0
    3.2721    2.0032   -3.0168 C   0  0  0  0  0  0  0  0  0  0  0  0
    4.4558    1.8065   -2.7540 O   0  0  0  0  0  0  0  0  0  0  0  0
    2.8672    2.9161   -4.4766 S   0  0  0  0  0  0  0  0  0  0  0  0
   -0.5766    0.0120   -4.3425 C   0  0  0  0  0  0  0  0  0  0  0  0
   -0.4001   -1.3900   -3.8381 C   0  0  0  0  0  0  0  0  0  0  0  0
   -1.3843   -2.3610   -4.4450 C   0  0  0  0  0  0  0  0  0  0  0  0
   -1.1565   -3.7738   -3.8994 C   0  0  1  0  0  0  0  0  0  0  0  0
   -0.1302   -4.1059   -4.0955 H   0  0  0  0  0  0  0  0  0  0  0  0
   -1.4277   -3.8917   -2.3711 C   0  0  0  0  0  0  0  0  0  0  0  0
   -2.3819   -4.4949   -1.8818 O   0  0  0  0  0  0  0  0  0  0  0  0
   -0.5366   -3.2715   -1.5623 O   0  0  0  0  0  0  0  0  0  0  0  0
   -2.0660   -4.6762   -4.6281 N   0  0  0  0  0  0  0  0  0  0  0  0
    1.4460   -0.4672   -2.5927 H   0  0  0  0  0  0  0  0  0  0  0  0
    0.3821    4.5304   -1.9816 H   0  0  0  0  0  0  0  0  0  0  0  0
   -2.0592    1.7836    0.4884 H   0  0  0  0  0  0  0  0  0  0  0  0
   -0.0086    2.4827    2.6469 H   0  0  0  0  0  0  0  0  0  0  0  0
   -0.0305    0.9858    1.6935 H   0  0  0  0  0  0  0  0  0  0  0  0
   -1.3531    1.3438    2.8075 H   0  0  0  0  0  0  0  0  0  0  0  0
   -1.6961    4.3335    2.1715 H   0  0  0  0  0  0  0  0  0  0  0  0
   -2.9951    3.1360    2.3596 H   0  0  0  0  0  0  0  0  0  0  0  0
   -2.9239    4.1362    0.9260 H   0  0  0  0  0  0  0  0  0  0  0  0
    1.5261    2.9562   -4.3345 H   0  0  0  0  0  0  0  0  0  0  0  0
   -0.3709    0.0863   -5.4140 H   0  0  0  0  0  0  0  0  0  0  0  0
   -1.6092    0.3306   -4.1563 H   0  0  0  0  0  0  0  0  0  0  0  0
   -0.5775   -1.3211   -2.7641 H   0  0  0  0  0  0  0  0  0  0  0  0
    0.6245   -1.7437   -4.0134 H   0  0  0  0  0  0  0  0  0  0  0  0
   -1.2589   -2.3447   -5.5370 H   0  0  0  0  0  0  0  0  0  0  0  0
   -2.4042   -2.0190   -4.2312 H   0  0  0  0  0  0  0  0  0  0  0  0
    0.2358   -2.8744   -1.9967 H   0  0  0  0  0  0  0  0  0  0  0  0
   -1.9873   -4.5536   -5.6346 H   0  0  0  0  0  0  0  0  0  0  0  0
   -3.0283   -4.4309   -4.3761 H   0  0  0  0  0  0  0  0  0  0  0  0
  1  2  2  0  0  0  0
  2  3  1  0  0  0  0
  2 20  1  0  0  0  0
  3 29  1  0  0  0  0
  4  6  1  0  0  0  0
  4 17  1  0  0  0  0
  4  5  1  1  0  0  0
  4  3  1  0  0  0  0
  6  7  2  0  0  0  0
  6  8  1  0  0  0  0
  8  9  1  0  0  0  0
  9 10  1  1  0  0  0
  9 11  1  0  0  0  0
  9 14  1  0  0  0  0
 11 12  2  0  0  0  0
 11 13  1  0  0  0  0
 13 30  1  0  0  0  0
 14 15  1  0  0  0  0
 14 16  1  0  0  0  0
 14 31  1  0  0  0  0
 15 32  1  0  0  0  0
 15 33  1  0  0  0  0
 15 34  1  0  0  0  0
 16 35  1  0  0  0  0
 16 36  1  0  0  0  0
 16 37  1  0  0  0  0
 17 18  2  0  0  0  0
 17 19  1  0  0  0  0
 19 38  1  0  0  0  0
 20 21  1  0  0  0  0
 20 39  1  0  0  0  0
 20 40  1  0  0  0  0
 21 22  1  0  0  0  0
 21 41  1  0  0  0  0
 21 42  1  0  0  0  0
 22 23  1  0  0  0  0
 22 43  1  0  0  0  0
 22 44  1  0  0  0  0
 23 24  1  6  0  0  0
 23 25  1  0  0  0  0
 23 28  1  0  0  0  0
 25 26  2  0  0  0  0
 25 27  1  0  0  0  0
 27 45  1  0  0  0  0
 28 46  1  0  0  0  0
 28 47  1  0  0  0  0
M  END
$$$$
