SD2
 OpenBabel04121316183D

 62 63  0  0  1  0  0  0  0  0999 V2000
   12.4795    6.9692   -7.6604 C   0  0  0  0  0  0  0  0  0  0  0  0
   10.8357    6.3543   -7.4642 S   0  0  0  0  0  0  0  0  0  0  0  0
   11.0218    5.7270   -5.8313 C   0  0  0  0  0  0  0  0  0  0  0  0
    9.6179    5.2329   -5.6245 C   0  0  0  0  0  0  0  0  0  0  0  0
    9.6685    4.6460   -4.3074 C   0  0  1  0  0  0  0  0  0  0  0  0
   10.5804    3.9840   -4.2536 H   0  0  0  0  0  0  0  0  0  0  0  0
   10.3784    6.0889   -3.2044 C   0  0  0  0  0  0  0  0  0  0  0  0
    9.7425    6.8460   -2.4395 O   0  0  0  0  0  0  0  0  0  0  0  0
   11.6875    6.2994   -2.9614 N   0  0  0  0  0  0  0  0  0  0  0  0
    8.0096    3.6495   -4.0139 N   0  0  0  0  0  0  0  0  0  0  0  0
    7.4995    3.0792   -2.6399 C   0  0  0  0  0  0  0  0  0  0  0  0
    8.3086    3.0043   -1.6820 O   0  0  0  0  0  0  0  0  0  0  0  0
    6.4580    2.6371   -1.6209 C   0  0  2  0  0  0  0  0  0  0  0  0
    6.5976    1.5857   -1.3823 H   0  0  0  0  0  0  0  0  0  0  0  0
    5.4282    2.9126   -2.5610 C   0  0  0  0  0  0  0  0  0  0  0  0
    5.0275    4.3030   -2.1382 C   0  0  0  0  0  0  0  0  0  0  0  0
    5.1415    4.3466   -0.6023 C   0  0  0  0  0  0  0  0  0  0  0  0
    6.1085    3.3239   -0.2731 N   0  0  0  0  0  0  0  0  0  0  0  0
    6.5179    3.1311    1.0974 C   0  0  0  0  0  0  0  0  0  0  0  0
    6.0468    3.8419    2.0119 O   0  0  0  0  0  0  0  0  0  0  0  0
    7.7143    2.0802    1.5551 C   0  0  2  0  0  0  0  0  0  0  0  0
    8.5822    2.6575    1.9272 H   0  0  0  0  0  0  0  0  0  0  0  0
    8.2153    1.1045    0.5208 C   0  0  0  0  0  0  0  0  0  0  0  0
    9.1146    2.0256   -0.3112 C   0  0  0  0  0  0  0  0  0  0  0  0
    8.8467    3.7729    0.0262 C   0  0  0  0  0  0  0  0  0  0  0  0
    8.7674    4.9528   -0.9735 C   0  0  0  0  0  0  0  0  0  0  0  0
    9.3045    4.4734   -2.2998 C   0  0  0  0  0  0  0  0  0  0  0  0
    9.8074    2.7355   -2.8966 C   0  0  0  0  0  0  0  0  0  0  0  0
    9.4946    1.4368   -1.8662 C   0  0  0  0  0  0  0  0  0  0  0  0
    8.0523    5.4644   -3.1936 O   0  0  0  0  0  0  0  0  0  0  0  0
    7.3406    1.3712    2.7220 N   0  0  0  0  0  0  0  0  0  0  0  0
    6.2731    0.5375    2.4921 C   0  0  0  0  0  0  0  0  0  0  0  0
    5.6251    0.5621    1.4472 O   0  0  0  0  0  0  0  0  0  0  0  0
    5.9810   -0.3715    3.6244 C   0  0  0  0  0  0  0  0  0  0  0  0
    4.5096   -1.3714    3.2634 S   0  0  0  0  0  0  0  0  0  0  0  0
   12.4647    7.3814   -8.6620 H   0  0  0  0  0  0  0  0  0  0  0  0
   13.1881    6.1430   -7.5937 H   0  0  0  0  0  0  0  0  0  0  0  0
   12.7238    7.7489   -6.9342 H   0  0  0  0  0  0  0  0  0  0  0  0
   11.2496    6.5754   -5.1787 H   0  0  0  0  0  0  0  0  0  0  0  0
   11.7818    4.9461   -5.6243 H   0  0  0  0  0  0  0  0  0  0  0  0
    9.2795    4.4067   -6.2430 H   0  0  0  0  0  0  0  0  0  0  0  0
    8.9188    6.0635   -5.5334 H   0  0  0  0  0  0  0  0  0  0  0  0
   12.4193    5.9998   -3.5660 H   0  0  0  0  0  0  0  0  0  0  0  0
   11.8097    7.0462   -2.2676 H   0  0  0  0  0  0  0  0  0  0  0  0
    7.2417    4.2598   -4.2297 H   0  0  0  0  0  0  0  0  0  0  0  0
    4.7336    2.1162   -2.3987 H   0  0  0  0  0  0  0  0  0  0  0  0
    5.8242    2.8177   -3.5766 H   0  0  0  0  0  0  0  0  0  0  0  0
    4.0243    4.4538   -2.5061 H   0  0  0  0  0  0  0  0  0  0  0  0
    5.6767    5.0731   -2.5808 H   0  0  0  0  0  0  0  0  0  0  0  0
    4.1919    4.0711   -0.1443 H   0  0  0  0  0  0  0  0  0  0  0  0
    5.4487    5.3361   -0.2385 H   0  0  0  0  0  0  0  0  0  0  0  0
    7.3765    0.5773    0.0254 H   0  0  0  0  0  0  0  0  0  0  0  0
    8.9646    0.3617    0.7906 H   0  0  0  0  0  0  0  0  0  0  0  0
    9.1993    4.1878    0.9581 H   0  0  0  0  0  0  0  0  0  0  0  0
    7.9191    5.7421   -1.0752 H   0  0  0  0  0  0  0  0  0  0  0  0
    9.4692    2.3114   -4.0432 H   0  0  0  0  0  0  0  0  0  0  0  0
    8.7737    0.5626   -2.3090 H   0  0  0  0  0  0  0  0  0  0  0  0
    8.2917    6.4181   -3.3488 H   0  0  0  0  0  0  0  0  0  0  0  0
    8.0285    1.2936    3.4636 H   0  0  0  0  0  0  0  0  0  0  0  0
    5.8238    0.2656    4.4963 H   0  0  0  0  0  0  0  0  0  0  0  0
    6.8534   -1.0145    3.7718 H   0  0  0  0  0  0  0  0  0  0  0  0
    3.7017   -0.3528    2.9004 H   0  0  0  0  0  0  0  0  0  0  0  0
  1  2  1  0  0  0  0
  1 36  1  0  0  0  0
  1 37  1  0  0  0  0
  1 38  1  0  0  0  0
  2  3  1  0  0  0  0
  3  4  1  0  0  0  0
  3 39  1  0  0  0  0
  3 40  1  0  0  0  0
  4  5  1  0  0  0  0
  4 41  1  0  0  0  0
  4 42  1  0  0  0  0
  5  6  1  6  0  0  0
  5  7  1  0  0  0  0
  5 10  1  0  0  0  0
  7  8  2  0  0  0  0
  7  9  1  0  0  0  0
  9 43  1  0  0  0  0
  9 44  1  0  0  0  0
 10 11  1  0  0  0  0
 10 45  1  0  0  0  0
 11 12  2  0  0  0  0
 13 15  1  0  0  0  0
 13 18  1  0  0  0  0
 13 14  1  1  0  0  0
 13 11  1  0  0  0  0
 15 16  1  0  0  0  0
 15 46  1  0  0  0  0
 15 47  1  0  0  0  0
 16 17  1  0  0  0  0
 16 48  1  0  0  0  0
 16 49  1  0  0  0  0
 17 18  1  0  0  0  0
 17 50  1  0  0  0  0
 17 51  1  0  0  0  0
 18 19  1  0  0  0  0
 19 20  2  0  0  0  0
 21 23  1  0  0  0  0
 21 31  1  0  0  0  0
 21 22  1  1  0  0  0
 21 19  1  0  0  0  0
 23 24  1  0  0  0  0
 23 52  1  0  0  0  0
 23 53  1  0  0  0  0
 24 25  2  0  0  0  0
 24 29  1  0  0  0  0
 25 26  1  0  0  0  0
 25 54  1  0  0  0  0
 26 27  2  0  0  0  0
 26 55  1  0  0  0  0
 27 28  1  0  0  0  0
 27 30  1  0  0  0  0
 28 29  2  0  0  0  0
 28 56  1  0  0  0  0
 29 57  1  0  0  0  0
 30 58  1  0  0  0  0
 31 32  1  0  0  0  0
 31 59  1  0  0  0  0
 32 33  2  0  0  0  0
 32 34  1  0  0  0  0
 34 35  1  0  0  0  0
 34 60  1  0  0  0  0
 34 61  1  0  0  0  0
 35 62  1  0  0  0  0
M  END
$$$$
