SD3
 OpenBabel04121316183D

 18 17  0  0  1  0  0  0  0  0999 V2000
    4.2076    1.7982    2.6659 O   0  0  0  0  0  0  0  0  0  0  0  0
    4.4438    0.4570    2.3068 N   0  0  0  0  0  0  0  0  0  0  0  0
    4.2248   -0.4946    3.2748 C   0  0  0  0  0  0  0  0  0  0  0  0
    3.7890   -0.2477    4.3992 O   0  0  0  0  0  0  0  0  0  0  0  0
    4.4815   -1.9425    2.8766 C   0  0  0  0  0  0  0  0  0  0  0  0
    4.9711   -2.1580    1.4473 C   0  0  2  0  0  0  0  0  0  0  0  0
    4.5785   -1.4159    0.7463 H   0  0  0  0  0  0  0  0  0  0  0  0
    4.5132   -3.4905    0.8516 C   0  0  0  0  0  0  0  0  0  0  0  0
    5.2880   -4.3363    0.4143 O   0  0  0  0  0  0  0  0  0  0  0  0
    3.1732   -3.6229    0.7437 O   0  0  0  0  0  0  0  0  0  0  0  0
    6.4481   -2.0388    1.4285 N   0  0  0  0  0  0  0  0  0  0  0  0
    4.5233    2.3001    1.8935 H   0  0  0  0  0  0  0  0  0  0  0  0
    5.0155    0.2987    1.4839 H   0  0  0  0  0  0  0  0  0  0  0  0
    3.5358   -2.4741    3.0404 H   0  0  0  0  0  0  0  0  0  0  0  0
    5.1892   -2.3681    3.6016 H   0  0  0  0  0  0  0  0  0  0  0  0
    2.6297   -2.8827    1.0783 H   0  0  0  0  0  0  0  0  0  0  0  0
    6.7818   -2.2323    0.4793 H   0  0  0  0  0  0  0  0  0  0  0  0
    6.8305   -2.8337    1.9579 H   0  0  0  0  0  0  0  0  0  0  0  0
  1  2  1  0  0  0  0
  1 12  1  0  0  0  0
  2  3  1  0  0  0  0
  2 13  1  0  0  0  0
  3  4  2  0  0  0  0
  3  5  1  0  0  0  0
  5 14  1  0  0  0  0
  5 15  1  0  0  0  0
  6  8  1  0  0  0  0
  6 11  1  0  0  0  0
  6  7  1  6  0  0  0
  6  5  1  0  0  0  0
  8  9  2  0  0  0  0
  8 10  1  0  0  0  0
 10 16  1  0  0  0  0
 11 17  1  0  0  0  0
 11 18  1  0  0  0  0
M  END
$$$$
