SDS
 OpenBabel04121316183D

 43 42  0  0  0  0  0  0  0  0999 V2000
    0.8962    0.0649   -0.0108 C   0  0  0  0  0  0  0  0  0  0  0  0
    2.4121    0.0593   -0.0064 C   0  0  0  0  0  0  0  0  0  0  0  0
    2.9350   -1.0629    0.8786 C   0  0  0  0  0  0  0  0  0  0  0  0
    4.4550   -1.0709    0.8849 C   0  0  0  0  0  0  0  0  0  0  0  0
    4.9684   -2.1938    1.7706 C   0  0  0  0  0  0  0  0  0  0  0  0
    6.4873   -2.2004    1.7758 C   0  0  0  0  0  0  0  0  0  0  0  0
    7.0000   -3.3230    2.6612 C   0  0  0  0  0  0  0  0  0  0  0  0
    8.5194   -3.3323    2.6686 C   0  0  0  0  0  0  0  0  0  0  0  0
    9.0302   -4.4580    3.5564 C   0  0  0  0  0  0  0  0  0  0  0  0
   10.5494   -4.4742    3.5691 C   0  0  0  0  0  0  0  0  0  0  0  0
   11.0848   -5.5981    4.4547 C   0  0  0  0  0  0  0  0  0  0  0  0
   12.6048   -5.5679    4.4306 C   0  0  0  0  0  0  0  0  0  0  0  0
   13.1801   -6.5913    5.2286 O   0  0  0  0  0  0  0  0  0  0  0  0
   14.8106   -6.5889    5.2505 S   0  0  0  0  0  0  0  0  0  0  0  0
   15.2625   -6.9953    3.9408 O   0  0  0  0  0  0  0  0  0  0  0  0
   15.2550   -5.3577    5.8664 O   0  0  0  0  0  0  0  0  0  0  0  0
   15.1659   -7.8005    6.2490 O   0  0  0  0  0  0  0  0  0  0  0  0
    0.5221    0.8712   -0.6468 H   0  0  0  0  0  0  0  0  0  0  0  0
    0.5075    0.2136    1.0017 H   0  0  0  0  0  0  0  0  0  0  0  0
    0.5075   -0.8851   -0.3914 H   0  0  0  0  0  0  0  0  0  0  0  0
    2.7832    1.0248    0.3567 H   0  0  0  0  0  0  0  0  0  0  0  0
    2.7832   -0.0689   -1.0300 H   0  0  0  0  0  0  0  0  0  0  0  0
    2.5623   -2.0290    0.5165 H   0  0  0  0  0  0  0  0  0  0  0  0
    2.5623   -0.9358    1.9026 H   0  0  0  0  0  0  0  0  0  0  0  0
    4.8324   -0.1079    1.2503 H   0  0  0  0  0  0  0  0  0  0  0  0
    4.8324   -1.2018   -0.1366 H   0  0  0  0  0  0  0  0  0  0  0  0
    4.5931   -3.1583    1.4068 H   0  0  0  0  0  0  0  0  0  0  0  0
    4.5931   -2.0647    2.7934 H   0  0  0  0  0  0  0  0  0  0  0  0
    6.8629   -1.2364    2.1402 H   0  0  0  0  0  0  0  0  0  0  0  0
    6.8630   -2.3301    0.7534 H   0  0  0  0  0  0  0  0  0  0  0  0
    6.6229   -4.2863    2.2963 H   0  0  0  0  0  0  0  0  0  0  0  0
    6.6229   -3.1926    3.6830 H   0  0  0  0  0  0  0  0  0  0  0  0
    8.8945   -2.3673    3.0318 H   0  0  0  0  0  0  0  0  0  0  0  0
    8.8945   -3.4607    1.6455 H   0  0  0  0  0  0  0  0  0  0  0  0
    8.6510   -5.4188    3.1887 H   0  0  0  0  0  0  0  0  0  0  0  0
    8.6511   -4.3243    4.5765 H   0  0  0  0  0  0  0  0  0  0  0  0
   10.9227   -3.5065    3.9286 H   0  0  0  0  0  0  0  0  0  0  0  0
   10.9226   -4.5979    2.5443 H   0  0  0  0  0  0  0  0  0  0  0  0
   10.7168   -6.5693    4.1027 H   0  0  0  0  0  0  0  0  0  0  0  0
   10.7176   -5.4820    5.4816 H   0  0  0  0  0  0  0  0  0  0  0  0
   12.9481   -4.5957    4.8001 H   0  0  0  0  0  0  0  0  0  0  0  0
   12.9491   -5.6935    3.3984 H   0  0  0  0  0  0  0  0  0  0  0  0
   14.9499   -8.6440    5.8066 H   0  0  0  0  0  0  0  0  0  0  0  0
  1  2  1  0  0  0  0
  1 18  1  0  0  0  0
  1 19  1  0  0  0  0
  1 20  1  0  0  0  0
  2  3  1  0  0  0  0
  2 21  1  0  0  0  0
  2 22  1  0  0  0  0
  3  4  1  0  0  0  0
  3 23  1  0  0  0  0
  3 24  1  0  0  0  0
  4  5  1  0  0  0  0
  4 25  1  0  0  0  0
  4 26  1  0  0  0  0
  5  6  1  0  0  0  0
  5 27  1  0  0  0  0
  5 28  1  0  0  0  0
  6  7  1  0  0  0  0
  6 29  1  0  0  0  0
  6 30  1  0  0  0  0
  7  8  1  0  0  0  0
  7 31  1  0  0  0  0
  7 32  1  0  0  0  0
  8  9  1  0  0  0  0
  8 33  1  0  0  0  0
  8 34  1  0  0  0  0
  9 10  1  0  0  0  0
  9 35  1  0  0  0  0
  9 36  1  0  0  0  0
 10 11  1  0  0  0  0
 10 37  1  0  0  0  0
 10 38  1  0  0  0  0
 11 12  1  0  0  0  0
 11 39  1  0  0  0  0
 11 40  1  0  0  0  0
 12 13  1  0  0  0  0
 12 41  1  0  0  0  0
 12 42  1  0  0  0  0
 13 14  1  0  0  0  0
 14 15  2  0  0  0  0
 14 16  2  0  0  0  0
 14 17  1  0  0  0  0
 17 43  1  0  0  0  0
M  END
$$$$
