SDX
 OpenBabel04121316183D

106108  0  0  1  0  0  0  0  0999 V2000
    2.8922   -1.5929    0.9606 O   0  0  0  0  0  0  0  0  0  0  0  0
    3.9986   -1.1527    0.6401 C   0  0  0  0  0  0  0  0  0  0  0  0
    5.1766   -1.6364    1.0927 N   0  0  0  0  0  0  0  0  0  0  0  0
    5.2520   -2.6458    2.0455 C   0  0  0  0  0  0  0  0  0  0  0  0
    6.7424   -2.7652    2.4028 C   0  0  0  0  0  0  0  0  0  0  0  0
    6.8128   -3.7851    3.4711 C   0  0  0  0  0  0  0  0  0  0  0  0
    8.0010   -4.4758    4.0517 C   0  0  0  0  0  0  0  0  0  0  0  0
    9.1245   -4.0749    3.7468 O   0  0  0  0  0  0  0  0  0  0  0  0
    7.8045   -5.6487    5.0787 C   0  0  0  0  0  0  0  0  0  0  0  0
    6.4133   -6.2761    5.4963 C   0  0  2  0  0  0  0  0  0  0  0  0
    6.0726   -7.5986    4.7119 C   0  0  0  0  0  0  0  0  0  0  0  0
    6.9095   -8.3322    4.1685 O   0  0  0  0  0  0  0  0  0  0  0  0
    4.7602   -7.9617    4.7330 O   0  0  0  0  0  0  0  0  0  0  0  0
    5.2733   -5.2551    5.4952 C   0  0  0  0  0  0  0  0  0  0  0  0
    4.6982   -5.2185    4.1028 C   0  0  0  0  0  0  0  0  0  0  0  0
    5.0280   -5.9773    3.2070 O   0  0  0  0  0  0  0  0  0  0  0  0
    3.7991   -4.2696    3.8787 O   0  0  0  0  0  0  0  0  0  0  0  0
    6.5174   -6.6852    6.8918 O   0  0  0  0  0  0  0  0  0  0  0  0
    4.1953    0.0049   -0.2617 C   0  0  0  0  0  0  0  0  0  0  0  0
    5.6622    0.2911   -0.6037 C   0  0  0  0  0  0  0  0  0  0  0  0
    5.7770    1.3842   -1.5120 N   0  0  0  0  0  0  0  0  0  0  0  0
    7.1192    1.8090   -1.8316 C   0  0  2  0  0  0  0  0  0  0  0  0
    7.6852    1.9958   -0.9114 H   0  0  0  0  0  0  0  0  0  0  0  0
    6.9601    3.1540   -2.6001 C   0  0  1  0  0  0  0  0  0  0  0  0
    7.9616    3.5591   -2.7951 H   0  0  0  0  0  0  0  0  0  0  0  0
    6.1781    3.0852   -3.9590 C   0  0  0  0  0  0  0  0  0  0  0  0
    4.7031    2.6237   -3.8366 C   0  0  0  0  0  0  0  0  0  0  0  0
    4.5160    1.2248   -3.8772 O   0  0  0  0  0  0  0  0  0  0  0  0
    3.1633    0.5232   -3.3893 P   0  0  2  0  0  0  0  0  0  0  0  0
    3.2839   -0.8938   -2.9434 O   0  0  0  0  0  0  0  0  0  0  0  0
    2.1466    0.5750   -4.6113 O   0  0  0  0  0  0  0  0  0  0  0  0
    1.4674   -0.7963   -5.0557 P   0  0  2  0  0  0  0  0  0  0  0  0
    2.3074   -1.7737   -5.7971 O   0  0  0  0  0  0  0  0  0  0  0  0
    0.2856   -0.2005   -5.9747 O   0  0  0  0  0  0  0  0  0  0  0  0
    0.5997   -0.0225   -7.3452 C   0  0  0  0  0  0  0  0  0  0  0  0
   -0.5401    0.7059   -8.0679 C   0  0  1  0  0  0  0  0  0  0  0  0
   -0.0724    1.2973   -8.8662 H   0  0  0  0  0  0  0  0  0  0  0  0
   -1.4850   -0.1533   -8.7032 O   0  0  0  0  0  0  0  0  0  0  0  0
   -2.6543    0.6649   -8.9478 C   0  0  2  0  0  0  0  0  0  0  0  0
   -2.4974    1.2543   -9.8608 H   0  0  0  0  0  0  0  0  0  0  0  0
   -2.7831    1.5646   -7.7153 C   0  0  1  0  0  0  0  0  0  0  0  0
   -3.4611    1.1210   -6.9744 H   0  0  0  0  0  0  0  0  0  0  0  0
   -1.3783    1.5692   -7.1319 C   0  0  2  0  0  0  0  0  0  0  0  0
   -1.4602    1.1629   -6.1197 H   0  0  0  0  0  0  0  0  0  0  0  0
   -0.8253    2.8573   -7.0344 O   0  0  0  0  0  0  0  0  0  0  0  0
    0.7820    2.8418   -6.3948 P   0  0  0  0  0  0  0  0  0  0  0  0
    1.3108    3.5286   -7.6416 O   0  0  0  0  0  0  0  0  0  0  0  0
    0.3171    3.9059   -5.2664 O   0  0  0  0  0  0  0  0  0  0  0  0
    2.3894    2.8263   -5.7551 O   0  0  0  0  0  0  0  0  0  0  0  0
   -3.2364    2.8845   -8.0008 O   0  0  0  0  0  0  0  0  0  0  0  0
   -3.8429   -0.1442   -9.1727 N   0  0  0  0  0  0  0  0  0  0  0  0
   -5.1063    0.3606   -9.3805 C   0  0  0  0  0  0  0  0  0  0  0  0
   -6.0047   -0.5871   -9.5299 N   0  0  0  0  0  0  0  0  0  0  0  0
   -5.2870   -1.7615   -9.4502 C   0  0  0  0  0  0  0  0  0  0  0  0
   -3.9428   -1.5070   -9.2284 C   0  0  0  0  0  0  0  0  0  0  0  0
   -2.9680   -2.4180   -9.0951 N   0  0  0  0  0  0  0  0  0  0  0  0
   -3.4429   -3.6687   -9.2163 C   0  0  0  0  0  0  0  0  0  0  0  0
   -4.7168   -4.0615   -9.4272 N   0  0  0  0  0  0  0  0  0  0  0  0
   -5.6695   -3.1095   -9.5453 C   0  0  0  0  0  0  0  0  0  0  0  0
   -6.9728   -3.5019   -9.7461 N   0  0  0  0  0  0  0  0  0  0  0  0
    0.5542   -1.2727   -3.8371 O   0  0  0  0  0  0  0  0  0  0  0  0
    2.4152    1.5749   -2.4272 O   0  0  0  0  0  0  0  0  0  0  0  0
    6.0931    4.5153   -4.5436 C   0  0  0  0  0  0  0  0  0  0  0  0
    6.9033    2.1861   -4.9712 C   0  0  0  0  0  0  0  0  0  0  0  0
    6.3078    4.1027   -1.7214 O   0  0  0  0  0  0  0  0  0  0  0  0
    7.8283    0.8203   -2.5447 O   0  0  0  0  0  0  0  0  0  0  0  0
    6.0640   -1.3614    0.7097 H   0  0  0  0  0  0  0  0  0  0  0  0
    4.7929   -3.5462    1.6120 H   0  0  0  0  0  0  0  0  0  0  0  0
    4.6292   -2.2984    2.8770 H   0  0  0  0  0  0  0  0  0  0  0  0
    7.1438   -1.8082    2.7445 H   0  0  0  0  0  0  0  0  0  0  0  0
    7.3031   -3.0971    1.5226 H   0  0  0  0  0  0  0  0  0  0  0  0
    6.4039   -4.5779    2.8718 H   0  0  0  0  0  0  0  0  0  0  0  0
    6.2347   -3.3538    4.2881 H   0  0  0  0  0  0  0  0  0  0  0  0
    8.2707   -5.2571    5.9956 H   0  0  0  0  0  0  0  0  0  0  0  0
    8.4689   -6.4540    4.7408 H   0  0  0  0  0  0  0  0  0  0  0  0
    4.0991   -7.2472    4.8129 H   0  0  0  0  0  0  0  0  0  0  0  0
    5.6391   -4.3024    5.9027 H   0  0  0  0  0  0  0  0  0  0  0  0
    4.4472   -5.5411    6.1543 H   0  0  0  0  0  0  0  0  0  0  0  0
    3.8035   -3.5139    4.4895 H   0  0  0  0  0  0  0  0  0  0  0  0
    5.6962   -7.1526    7.1435 H   0  0  0  0  0  0  0  0  0  0  0  0
    3.6661    0.8788    0.1210 H   0  0  0  0  0  0  0  0  0  0  0  0
    3.6625   -0.3367   -1.1137 H   0  0  0  0  0  0  0  0  0  0  0  0
    6.1326   -0.5963   -1.0528 H   0  0  0  0  0  0  0  0  0  0  0  0
    6.1937    0.5476    0.3204 H   0  0  0  0  0  0  0  0  0  0  0  0
    5.2044    2.1750   -1.2271 H   0  0  0  0  0  0  0  0  0  0  0  0
    4.2096    2.9652   -4.7294 H   0  0  0  0  0  0  0  0  0  0  0  0
    4.2127    3.1062   -2.9847 H   0  0  0  0  0  0  0  0  0  0  0  0
    0.8375   -0.9877   -7.7889 H   0  0  0  0  0  0  0  0  0  0  0  0
    1.5020    0.5981   -7.3716 H   0  0  0  0  0  0  0  0  0  0  0  0
   -0.4933    4.3612   -5.5676 H   0  0  0  0  0  0  0  0  0  0  0  0
    2.9722    2.4672   -6.4517 H   0  0  0  0  0  0  0  0  0  0  0  0
   -4.1583    2.8606   -8.2996 H   0  0  0  0  0  0  0  0  0  0  0  0
   -5.3311    1.4187   -9.4080 H   0  0  0  0  0  0  0  0  0  0  0  0
   -2.7059   -4.4612   -9.1289 H   0  0  0  0  0  0  0  0  0  0  0  0
   -7.1701   -4.4860   -9.8259 H   0  0  0  0  0  0  0  0  0  0  0  0
   -7.6855   -2.7954   -9.8567 H   0  0  0  0  0  0  0  0  0  0  0  0
   -0.2239   -1.7886   -4.1145 H   0  0  0  0  0  0  0  0  0  0  0  0
    1.7829    2.1157   -2.9431 H   0  0  0  0  0  0  0  0  0  0  0  0
    5.5534    5.1925   -3.8711 H   0  0  0  0  0  0  0  0  0  0  0  0
    5.5446    4.5074   -5.4936 H   0  0  0  0  0  0  0  0  0  0  0  0
    7.0846    4.9322   -4.7360 H   0  0  0  0  0  0  0  0  0  0  0  0
    6.9428    1.1437   -4.6459 H   0  0  0  0  0  0  0  0  0  0  0  0
    7.9278    2.5302   -5.1413 H   0  0  0  0  0  0  0  0  0  0  0  0
    6.3742    2.1778   -5.9290 H   0  0  0  0  0  0  0  0  0  0  0  0
    6.7926    4.1092   -0.8766 H   0  0  0  0  0  0  0  0  0  0  0  0
    8.5831    1.2454   -2.9841 H   0  0  0  0  0  0  0  0  0  0  0  0
  1  2  2  0  0  0  0
  2  3  1  0  0  0  0
  2 19  1  0  0  0  0
  3  4  1  0  0  0  0
  3 67  1  0  0  0  0
  4  5  1  0  0  0  0
  4 68  1  0  0  0  0
  4 69  1  0  0  0  0
  5  6  1  0  0  0  0
  5 70  1  0  0  0  0
  5 71  1  0  0  0  0
  6  7  1  0  0  0  0
  6 72  1  0  0  0  0
  6 73  1  0  0  0  0
  7  8  2  0  0  0  0
  7  9  1  0  0  0  0
  9 74  1  0  0  0  0
  9 75  1  0  0  0  0
 10 14  1  6  0  0  0
 10 18  1  0  0  0  0
 10 11  1  0  0  0  0
 10  9  1  0  0  0  0
 11 12  2  0  0  0  0
 11 13  1  0  0  0  0
 13 76  1  0  0  0  0
 14 15  1  0  0  0  0
 14 77  1  0  0  0  0
 14 78  1  0  0  0  0
 15 16  2  0  0  0  0
 15 17  1  0  0  0  0
 17 79  1  0  0  0  0
 18 80  1  0  0  0  0
 19 20  1  0  0  0  0
 19 81  1  0  0  0  0
 19 82  1  0  0  0  0
 20 21  1  0  0  0  0
 20 83  1  0  0  0  0
 20 84  1  0  0  0  0
 21 85  1  0  0  0  0
 22 24  1  0  0  0  0
 22 66  1  0  0  0  0
 22 23  1  1  0  0  0
 22 21  1  0  0  0  0
 24 25  1  6  0  0  0
 24 26  1  0  0  0  0
 24 65  1  0  0  0  0
 26 27  1  0  0  0  0
 26 63  1  0  0  0  0
 26 64  1  0  0  0  0
 27 28  1  0  0  0  0
 27 86  1  0  0  0  0
 27 87  1  0  0  0  0
 29 31  1  6  0  0  0
 29 62  1  0  0  0  0
 29 30  2  0  0  0  0
 29 28  1  0  0  0  0
 32 34  1  6  0  0  0
 32 61  1  0  0  0  0
 32 33  2  0  0  0  0
 32 31  1  0  0  0  0
 34 35  1  0  0  0  0
 35 36  1  0  0  0  0
 35 88  1  0  0  0  0
 35 89  1  0  0  0  0
 36 37  1  6  0  0  0
 36 38  1  0  0  0  0
 36 43  1  0  0  0  0
 38 39  1  0  0  0  0
 39 41  1  0  0  0  0
 39 51  1  0  0  0  0
 39 40  1  6  0  0  0
 41 42  1  1  0  0  0
 41 43  1  0  0  0  0
 41 50  1  0  0  0  0
 43 44  1  1  0  0  0
 43 45  1  0  0  0  0
 45 46  1  0  0  0  0
 46 47  2  0  0  0  0
 46 48  1  0  0  0  0
 46 49  1  0  0  0  0
 48 90  1  0  0  0  0
 49 91  1  0  0  0  0
 50 92  1  0  0  0  0
 51 52  1  0  0  0  0
 51 55  1  0  0  0  0
 52 53  2  0  0  0  0
 52 93  1  0  0  0  0
 53 54  1  0  0  0  0
 54 55  2  0  0  0  0
 54 59  1  0  0  0  0
 55 56  1  0  0  0  0
 56 57  2  0  0  0  0
 57 58  1  0  0  0  0
 57 94  1  0  0  0  0
 58 59  2  0  0  0  0
 59 60  1  0  0  0  0
 60 95  1  0  0  0  0
 60 96  1  0  0  0  0
 61 97  1  0  0  0  0
 62 98  1  0  0  0  0
 63 99  1  0  0  0  0
 63100  1  0  0  0  0
 63101  1  0  0  0  0
 64102  1  0  0  0  0
 64103  1  0  0  0  0
 64104  1  0  0  0  0
 65105  1  0  0  0  0
 66106  1  0  0  0  0
M  END
$$$$
