SET
 OpenBabel04121316183D

 15 14  0  0  1  0  0  0  0  0999 V2000
    2.9232   -0.3759   -1.4006 N   0  0  0  0  0  0  0  0  0  0  0  0
    2.4571    0.0660   -0.0601 C   0  0  2  0  0  0  0  0  0  0  0  0
    1.3593    0.0788   -0.0593 H   0  0  0  0  0  0  0  0  0  0  0  0
    2.9390    1.5003    0.2330 C   0  0  0  0  0  0  0  0  0  0  0  0
    3.5833    1.8440    1.2206 O   0  0  0  0  0  0  0  0  0  0  0  0
    2.5946    2.4459   -0.6915 N   0  0  0  0  0  0  0  0  0  0  0  0
    2.9394   -0.9040    1.0310 C   0  0  0  0  0  0  0  0  0  0  0  0
    4.3619   -1.0280    1.0629 O   0  0  0  0  0  0  0  0  0  0  0  0
    3.9384   -0.2905   -1.4347 H   0  0  0  0  0  0  0  0  0  0  0  0
    2.5814    0.2725   -2.1070 H   0  0  0  0  0  0  0  0  0  0  0  0
    1.9595    2.2817   -1.4573 H   0  0  0  0  0  0  0  0  0  0  0  0
    2.8836    3.3946   -0.4862 H   0  0  0  0  0  0  0  0  0  0  0  0
    2.5328   -1.9064    0.8589 H   0  0  0  0  0  0  0  0  0  0  0  0
    2.6043   -0.5714    2.0188 H   0  0  0  0  0  0  0  0  0  0  0  0
    4.6477   -1.2670    0.1674 H   0  0  0  0  0  0  0  0  0  0  0  0
  1  9  1  0  0  0  0
  1 10  1  0  0  0  0
  2  4  1  0  0  0  0
  2  7  1  0  0  0  0
  2  3  1  6  0  0  0
  2  1  1  0  0  0  0
  4  5  2  0  0  0  0
  4  6  1  0  0  0  0
  6 11  1  0  0  0  0
  6 12  1  0  0  0  0
  7  8  1  0  0  0  0
  7 13  1  0  0  0  0
  7 14  1  0  0  0  0
  8 15  1  0  0  0  0
M  END
$$$$
