SF8
 OpenBabel04121316183D

 57 56  0  0  1  0  0  0  0  0999 V2000
   14.3676   -7.5304   -3.5644 O   0  0  0  0  0  0  0  0  0  0  0  0
   13.2852   -7.4216   -3.0123 C   0  0  0  0  0  0  0  0  0  0  0  0
   12.3554   -8.5756   -2.7246 C   0  0  0  0  0  0  0  0  0  0  0  0
   13.0895   -9.8577   -2.3318 C   0  0  1  0  0  0  0  0  0  0  0  0
   14.1415  -10.3276   -3.3684 C   0  0  0  0  0  0  0  0  0  0  0  0
   15.2673  -10.7059   -3.0793 O   0  0  0  0  0  0  0  0  0  0  0  0
   13.6737  -10.4647   -4.6352 O   0  0  0  0  0  0  0  0  0  0  0  0
   13.7144   -9.7894   -0.9091 C   0  0  0  0  0  0  0  0  0  0  0  0
   14.8995   -8.8345   -0.7437 C   0  0  0  0  0  0  0  0  0  0  0  0
   15.6161   -8.4175   -1.6072 O   0  0  0  0  0  0  0  0  0  0  0  0
   15.1372   -8.4719    0.5409 O   0  0  0  0  0  0  0  0  0  0  0  0
   12.0514  -10.8800   -2.2518 O   0  0  0  0  0  0  0  0  0  0  0  0
   12.8187   -6.1645   -2.8027 N   0  0  0  0  0  0  0  0  0  0  0  0
   11.4992   -5.8872   -3.2588 C   0  0  0  0  0  0  0  0  0  0  0  0
   11.3151   -4.4301   -3.5669 C   0  0  0  0  0  0  0  0  0  0  0  0
    9.8236   -4.3070   -3.8797 C   0  0  0  0  0  0  0  0  0  0  0  0
    9.3846   -2.8814   -3.9398 C   0  0  2  0  0  0  0  0  0  0  0  0
    9.7529   -2.3374   -3.0527 H   0  0  0  0  0  0  0  0  0  0  0  0
    7.8850   -2.5917   -4.0121 C   0  0  0  0  0  0  0  0  0  0  0  0
    7.3529   -1.8493   -4.8214 O   0  0  0  0  0  0  0  0  0  0  0  0
    7.1811   -3.1491   -3.0004 O   0  0  0  0  0  0  0  0  0  0  0  0
   10.0661   -2.2887   -5.0391 N   0  0  0  0  0  0  0  0  0  0  0  0
    9.8442   -2.5069   -6.3653 C   0  0  0  0  0  0  0  0  0  0  0  0
    9.1634   -3.4396   -6.7827 O   0  0  0  0  0  0  0  0  0  0  0  0
   10.5979   -1.5916   -7.3030 C   0  0  0  0  0  0  0  0  0  0  0  0
   11.0742   -0.2137   -6.7609 C   0  0  2  0  0  0  0  0  0  0  0  0
   10.7856    0.1990   -5.2931 C   0  0  0  0  0  0  0  0  0  0  0  0
    9.8630    0.8762   -4.8798 O   0  0  0  0  0  0  0  0  0  0  0  0
   11.6757   -0.3759   -4.4145 O   0  0  0  0  0  0  0  0  0  0  0  0
   10.5372    0.9411   -7.6178 C   0  0  0  0  0  0  0  0  0  0  0  0
    9.0150    0.9140   -7.6249 C   0  0  0  0  0  0  0  0  0  0  0  0
    8.3386    0.0208   -7.1449 O   0  0  0  0  0  0  0  0  0  0  0  0
    8.4477    1.9490   -8.2692 O   0  0  0  0  0  0  0  0  0  0  0  0
   12.5304   -0.2718   -6.8049 O   0  0  0  0  0  0  0  0  0  0  0  0
   11.7752   -8.7351   -3.6447 H   0  0  0  0  0  0  0  0  0  0  0  0
   11.6019   -8.3244   -1.9634 H   0  0  0  0  0  0  0  0  0  0  0  0
   12.7607  -10.1998   -4.8264 H   0  0  0  0  0  0  0  0  0  0  0  0
   14.0618  -10.7884   -0.6208 H   0  0  0  0  0  0  0  0  0  0  0  0
   12.9249   -9.5234   -0.1907 H   0  0  0  0  0  0  0  0  0  0  0  0
   14.8869   -9.1389    1.1986 H   0  0  0  0  0  0  0  0  0  0  0  0
   11.6735  -11.0464   -3.1333 H   0  0  0  0  0  0  0  0  0  0  0  0
   13.5472   -5.5119   -3.0790 H   0  0  0  0  0  0  0  0  0  0  0  0
   10.8121   -6.1988   -2.4665 H   0  0  0  0  0  0  0  0  0  0  0  0
   11.2790   -6.4797   -4.1579 H   0  0  0  0  0  0  0  0  0  0  0  0
   11.9503   -4.1410   -4.4204 H   0  0  0  0  0  0  0  0  0  0  0  0
   11.6374   -3.8080   -2.7220 H   0  0  0  0  0  0  0  0  0  0  0  0
    9.2334   -4.8450   -3.1392 H   0  0  0  0  0  0  0  0  0  0  0  0
    9.6544   -4.7951   -4.8446 H   0  0  0  0  0  0  0  0  0  0  0  0
    7.7175   -3.6328   -2.3506 H   0  0  0  0  0  0  0  0  0  0  0  0
   10.6862   -1.6119   -4.6713 H   0  0  0  0  0  0  0  0  0  0  0  0
    9.9321   -1.4494   -8.1671 H   0  0  0  0  0  0  0  0  0  0  0  0
   11.4347   -2.1721   -7.7165 H   0  0  0  0  0  0  0  0  0  0  0  0
   12.3564   -0.9512   -4.8402 H   0  0  0  0  0  0  0  0  0  0  0  0
   10.9164    0.8609   -8.6405 H   0  0  0  0  0  0  0  0  0  0  0  0
   10.8831    1.8935   -7.1990 H   0  0  0  0  0  0  0  0  0  0  0  0
    9.0635    2.6007   -8.6418 H   0  0  0  0  0  0  0  0  0  0  0  0
   12.8867    0.5595   -6.4370 H   0  0  0  0  0  0  0  0  0  0  0  0
  1  2  2  0  0  0  0
  2  3  1  0  0  0  0
  2 13  1  0  0  0  0
  3 35  1  0  0  0  0
  3 36  1  0  0  0  0
  4  3  1  6  0  0  0
  4  5  1  0  0  0  0
  4  8  1  0  0  0  0
  4 12  1  0  0  0  0
  5  6  2  0  0  0  0
  5  7  1  0  0  0  0
  7 37  1  0  0  0  0
  8  9  1  0  0  0  0
  8 38  1  0  0  0  0
  8 39  1  0  0  0  0
  9 10  2  0  0  0  0
  9 11  1  0  0  0  0
 11 40  1  0  0  0  0
 12 41  1  0  0  0  0
 13 14  1  0  0  0  0
 13 42  1  0  0  0  0
 14 15  1  0  0  0  0
 14 43  1  0  0  0  0
 14 44  1  0  0  0  0
 15 16  1  0  0  0  0
 15 45  1  0  0  0  0
 15 46  1  0  0  0  0
 16 47  1  0  0  0  0
 16 48  1  0  0  0  0
 17 19  1  0  0  0  0
 17 22  1  0  0  0  0
 17 18  1  1  0  0  0
 17 16  1  0  0  0  0
 19 20  2  0  0  0  0
 19 21  1  0  0  0  0
 21 49  1  0  0  0  0
 22 23  1  0  0  0  0
 22 50  1  0  0  0  0
 23 24  2  0  0  0  0
 23 25  1  0  0  0  0
 25 51  1  0  0  0  0
 25 52  1  0  0  0  0
 26 30  1  6  0  0  0
 26 34  1  0  0  0  0
 26 27  1  0  0  0  0
 26 25  1  0  0  0  0
 27 28  2  0  0  0  0
 27 29  1  0  0  0  0
 29 53  1  0  0  0  0
 30 31  1  0  0  0  0
 30 54  1  0  0  0  0
 30 55  1  0  0  0  0
 31 32  2  0  0  0  0
 31 33  1  0  0  0  0
 33 56  1  0  0  0  0
 34 57  1  0  0  0  0
M  END
$$$$
