SFU
 OpenBabel04121316183D

 26 26  0  0  1  0  0  0  0  0999 V2000
    4.2778   -0.3802    4.0176 C   0  0  0  0  0  0  0  0  0  0  0  0
    2.8701    0.6105    3.0804 Se  0  0  0  0  0  0  0  0  0  0  0  0
    3.6751   -0.5173    1.6942 C   0  0  2  0  0  0  0  0  0  0  0  0
    3.3184   -0.2131    0.7323 H   0  0  0  0  0  0  0  0  0  0  0  0
    3.2964   -1.9775    1.9526 O   0  0  0  0  0  0  0  0  0  0  0  0
    3.9129   -2.8103    0.9682 C   0  0  1  0  0  0  0  0  0  0  0  0
    3.6110   -3.8212    1.1465 H   0  0  0  0  0  0  0  0  0  0  0  0
    3.4616   -2.2937   -0.3882 C   0  0  0  0  0  0  0  0  0  0  0  0
    5.3408   -2.7606    0.9739 C   0  0  2  0  0  0  0  0  0  0  0  0
    5.7043   -3.0598    1.9348 H   0  0  0  0  0  0  0  0  0  0  0  0
    5.8021   -1.3321    0.6759 C   0  0  2  0  0  0  0  0  0  0  0  0
    6.8701   -1.2838    0.7214 H   0  0  0  0  0  0  0  0  0  0  0  0
    5.2012   -0.3825    1.7170 C   0  0  2  0  0  0  0  0  0  0  0  0
    5.4783    0.6255    1.4890 H   0  0  0  0  0  0  0  0  0  0  0  0
    5.6895   -0.7200    3.0070 O   0  0  0  0  0  0  0  0  0  0  0  0
    5.3711   -0.9519   -0.6226 O   0  0  0  0  0  0  0  0  0  0  0  0
    5.8493   -3.6394   -0.0188 O   0  0  0  0  0  0  0  0  0  0  0  0
    4.2916   -0.0917    5.0479 H   0  0  0  0  0  0  0  0  0  0  0  0
    5.2257   -0.1598    3.5729 H   0  0  0  0  0  0  0  0  0  0  0  0
    4.0847   -1.4301    3.9438 H   0  0  0  0  0  0  0  0  0  0  0  0
    3.7895   -1.2827   -0.5119 H   0  0  0  0  0  0  0  0  0  0  0  0
    2.3939   -2.3320   -0.4472 H   0  0  0  0  0  0  0  0  0  0  0  0
    3.8836   -2.9026   -1.1602 H   0  0  0  0  0  0  0  0  0  0  0  0
    6.6556   -0.6342    3.0197 H   0  0  0  0  0  0  0  0  0  0  0  0
    4.4031   -0.9946   -0.6673 H   0  0  0  0  0  0  0  0  0  0  0  0
    5.5198   -3.3684   -0.8900 H   0  0  0  0  0  0  0  0  0  0  0  0
  1  2  1  0  0  0  0
  1 18  1  0  0  0  0
  1 19  1  0  0  0  0
  1 20  1  0  0  0  0
  3  5  1  0  0  0  0
  3 13  1  0  0  0  0
  3  4  1  6  0  0  0
  3  2  1  0  0  0  0
  5  6  1  0  0  0  0
  6  9  1  0  0  0  0
  6  8  1  0  0  0  0
  6  7  1  1  0  0  0
  8 21  1  0  0  0  0
  8 22  1  0  0  0  0
  8 23  1  0  0  0  0
  9 11  1  0  0  0  0
  9 17  1  0  0  0  0
  9 10  1  1  0  0  0
 11 13  1  0  0  0  0
 11 16  1  0  0  0  0
 11 12  1  1  0  0  0
 13 14  1  6  0  0  0
 13 15  1  0  0  0  0
 15 24  1  0  0  0  0
 16 25  1  0  0  0  0
 17 26  1  0  0  0  0
M  END
$$$$
