SGE
 OpenBabel04121316183D

 40 45  0  0  0  0  0  0  0  0999 V2000
    0.9497    0.0412    0.0871 C   0  0  0  0  0  0  0  0  0  0  0  0
    2.3988    0.1031   -0.1261 N   0  0  0  0  0  0  0  0  0  0  0  0
    3.0475   -1.1763    0.1045 C   0  0  0  0  0  0  0  0  0  0  0  0
    4.4807   -1.1344    0.4739 C   0  0  0  0  0  0  0  0  0  0  0  0
    5.1126   -2.3461    0.6762 C   0  0  0  0  0  0  0  0  0  0  0  0
    4.5025   -3.5544    0.5320 O   0  0  0  0  0  0  0  0  0  0  0  0
    5.5975   -4.4370    0.8099 C   0  0  0  0  0  0  0  0  0  0  0  0
    6.8109   -3.7397    1.1812 O   0  0  0  0  0  0  0  0  0  0  0  0
    6.4217   -2.4429    1.0504 C   0  0  0  0  0  0  0  0  0  0  0  0
    7.1707   -1.3061    1.2513 C   0  0  0  0  0  0  0  0  0  0  0  0
    6.5489   -0.0576    1.0451 C   0  0  0  0  0  0  0  0  0  0  0  0
    5.1898    0.0534    0.6467 C   0  0  0  0  0  0  0  0  0  0  0  0
    4.4750    1.3260    0.3898 C   0  0  0  0  0  0  0  0  0  0  0  0
    3.1167    1.3097   -0.0726 C   0  0  0  0  0  0  0  0  0  0  0  0
    2.5149    2.5618   -0.4424 C   0  0  0  0  0  0  0  0  0  0  0  0
    1.3382    2.6774   -1.2212 C   0  0  0  0  0  0  0  0  0  0  0  0
    0.6917    3.8856   -1.3066 C   0  0  0  0  0  0  0  0  0  0  0  0
   -0.5206    4.0998   -1.8849 O   0  0  0  0  0  0  0  0  0  0  0  0
   -0.8095    5.3983   -1.3318 C   0  0  0  0  0  0  0  0  0  0  0  0
    0.3788    6.0813   -0.8782 O   0  0  0  0  0  0  0  0  0  0  0  0
    1.2128    5.0156   -0.7459 C   0  0  0  0  0  0  0  0  0  0  0  0
    2.4505    5.0091   -0.1492 C   0  0  0  0  0  0  0  0  0  0  0  0
    3.1251    3.7802   -0.0387 C   0  0  0  0  0  0  0  0  0  0  0  0
    4.4244    3.7674    0.4568 C   0  0  0  0  0  0  0  0  0  0  0  0
    5.1074    2.5646    0.6015 C   0  0  0  0  0  0  0  0  0  0  0  0
    0.6208   -0.9854    0.2957 H   0  0  0  0  0  0  0  0  0  0  0  0
    0.3998    0.2927   -0.8176 H   0  0  0  0  0  0  0  0  0  0  0  0
    0.6253    0.6600    0.9294 H   0  0  0  0  0  0  0  0  0  0  0  0
    2.9353   -1.7662   -0.8116 H   0  0  0  0  0  0  0  0  0  0  0  0
    2.5354   -1.7092    0.9190 H   0  0  0  0  0  0  0  0  0  0  0  0
    5.7801   -5.0382   -0.0884 H   0  0  0  0  0  0  0  0  0  0  0  0
    5.2928   -5.1058    1.6227 H   0  0  0  0  0  0  0  0  0  0  0  0
    8.2104   -1.3546    1.5561 H   0  0  0  0  0  0  0  0  0  0  0  0
    7.1588    0.8285    1.2014 H   0  0  0  0  0  0  0  0  0  0  0  0
    0.9314    1.8428   -1.7702 H   0  0  0  0  0  0  0  0  0  0  0  0
   -1.4764    5.2592   -0.4695 H   0  0  0  0  0  0  0  0  0  0  0  0
   -1.3243    6.0085   -2.0795 H   0  0  0  0  0  0  0  0  0  0  0  0
    2.8696    5.9252    0.2464 H   0  0  0  0  0  0  0  0  0  0  0  0
    4.9395    4.6950    0.6901 H   0  0  0  0  0  0  0  0  0  0  0  0
    6.1429    2.6295    0.9211 H   0  0  0  0  0  0  0  0  0  0  0  0
  1  2  1  0  0  0  0
  1 26  1  0  0  0  0
  1 27  1  0  0  0  0
  1 28  1  0  0  0  0
  2  3  1  0  0  0  0
  2 14  1  0  0  0  0
  3  4  1  0  0  0  0
  3 29  1  0  0  0  0
  3 30  1  0  0  0  0
  4  5  2  0  0  0  0
  4 12  1  0  0  0  0
  5  6  1  0  0  0  0
  5  9  1  0  0  0  0
  6  7  1  0  0  0  0
  7  8  1  0  0  0  0
  7 31  1  0  0  0  0
  7 32  1  0  0  0  0
  8  9  1  0  0  0  0
  9 10  2  0  0  0  0
 10 11  1  0  0  0  0
 10 33  1  0  0  0  0
 11 12  2  0  0  0  0
 11 34  1  0  0  0  0
 12 13  1  0  0  0  0
 13 14  2  0  0  0  0
 13 25  1  0  0  0  0
 14 15  1  0  0  0  0
 15 16  2  0  0  0  0
 15 23  1  0  0  0  0
 16 17  1  0  0  0  0
 16 35  1  0  0  0  0
 17 18  1  0  0  0  0
 17 21  2  0  0  0  0
 18 19  1  0  0  0  0
 19 20  1  0  0  0  0
 19 36  1  0  0  0  0
 19 37  1  0  0  0  0
 20 21  1  0  0  0  0
 21 22  1  0  0  0  0
 22 23  2  0  0  0  0
 22 38  1  0  0  0  0
 23 24  1  0  0  0  0
 24 25  2  0  0  0  0
 24 39  1  0  0  0  0
 25 40  1  0  0  0  0
M  END
$$$$
