SGM
 OpenBabel04121316183D

 14 13  0  0  1  0  0  0  0  0999 V2000
    0.8708   -0.5977    2.3798 O   0  0  0  0  0  0  0  0  0  0  0  0
    2.2902   -0.5885    2.3305 C   0  0  0  0  0  0  0  0  0  0  0  0
    2.8138   -1.0545    0.9635 C   0  0  2  0  0  0  0  0  0  0  0  0
    2.4941   -0.3468    0.1898 H   0  0  0  0  0  0  0  0  0  0  0  0
    2.3762   -2.4816    0.5862 C   0  0  0  0  0  0  0  0  0  0  0  0
    0.5993   -2.7570    0.3131 S   0  0  0  0  0  0  0  0  0  0  0  0
    4.2508   -1.0162    1.0098 O   0  0  0  0  0  0  0  0  0  0  0  0
    0.6091   -0.8064    3.2953 H   0  0  0  0  0  0  0  0  0  0  0  0
    2.6873   -1.2258    3.1291 H   0  0  0  0  0  0  0  0  0  0  0  0
    2.6338    0.4315    2.5397 H   0  0  0  0  0  0  0  0  0  0  0  0
    2.7192   -3.1831    1.3543 H   0  0  0  0  0  0  0  0  0  0  0  0
    2.8813   -2.7755   -0.3400 H   0  0  0  0  0  0  0  0  0  0  0  0
    0.1915   -2.2054    1.4718 H   0  0  0  0  0  0  0  0  0  0  0  0
    4.5804   -1.2429    0.1220 H   0  0  0  0  0  0  0  0  0  0  0  0
  1  2  1  0  0  0  0
  1  8  1  0  0  0  0
  2  9  1  0  0  0  0
  2 10  1  0  0  0  0
  3  5  1  0  0  0  0
  3  7  1  0  0  0  0
  3  4  1  6  0  0  0
  3  2  1  0  0  0  0
  5  6  1  0  0  0  0
  5 11  1  0  0  0  0
  5 12  1  0  0  0  0
  6 13  1  0  0  0  0
  7 14  1  0  0  0  0
M  END
$$$$
