SGN
 OpenBabel04121316183D

 33 33  0  0  1  0  0  0  0  0999 V2000
    0.9321   -0.0908   -0.0400 O   0  0  0  0  0  0  0  0  0  0  0  0
    2.3532   -0.0568   -0.0232 C   0  0  1  0  0  0  0  0  0  0  0  0
    2.7114    0.0717    1.0006 H   0  0  0  0  0  0  0  0  0  0  0  0
    2.8390   -1.3210   -0.4506 O   0  0  0  0  0  0  0  0  0  0  0  0
    2.4041   -1.6579   -1.7696 C   0  0  2  0  0  0  0  0  0  0  0  0
    1.3071   -1.6970   -1.8013 H   0  0  0  0  0  0  0  0  0  0  0  0
    2.9240   -3.0589   -2.0717 C   0  0  0  0  0  0  0  0  0  0  0  0
    2.5371   -3.5061   -3.3599 O   0  0  0  0  0  0  0  0  0  0  0  0
    3.0765   -4.9784   -3.7775 S   0  0  0  0  0  0  0  0  0  0  0  0
    4.5136   -4.9008   -3.8967 O   0  0  0  0  0  0  0  0  0  0  0  0
    2.4226   -5.9444   -2.9253 O   0  0  0  0  0  0  0  0  0  0  0  0
    2.5026   -5.1562   -5.2714 O   0  0  0  0  0  0  0  0  0  0  0  0
    2.9059   -0.6145   -2.7761 C   0  0  2  0  0  0  0  0  0  0  0  0
    4.0042   -0.6207   -2.7993 H   0  0  0  0  0  0  0  0  0  0  0  0
    2.4195    0.7875   -2.3686 C   0  0  1  0  0  0  0  0  0  0  0  0
    1.3280    0.8398   -2.4662 H   0  0  0  0  0  0  0  0  0  0  0  0
    2.8635    1.0949   -0.9274 C   0  0  1  0  0  0  0  0  0  0  0  0
    3.9610    1.1419   -0.9192 H   0  0  0  0  0  0  0  0  0  0  0  0
    2.3531    2.4537   -0.4957 N   0  0  0  0  0  0  0  0  0  0  0  0
    2.5554    2.7725    1.1426 S   0  0  0  0  0  0  0  0  0  0  0  0
    1.6106    1.9817    1.8864 O   0  0  0  0  0  0  0  0  0  0  0  0
    3.9752    2.7174    1.4001 O   0  0  0  0  0  0  0  0  0  0  0  0
    2.0580    4.2882    1.2587 O   0  0  0  0  0  0  0  0  0  0  0  0
    2.9432    1.7466   -3.3006 O   0  0  0  0  0  0  0  0  0  0  0  0
    2.4498   -0.8726   -4.1083 O   0  0  0  0  0  0  0  0  0  0  0  0
    0.6715   -0.5219    0.7911 H   0  0  0  0  0  0  0  0  0  0  0  0
    2.5296   -3.7511   -1.3182 H   0  0  0  0  0  0  0  0  0  0  0  0
    4.0164   -3.0672   -1.9825 H   0  0  0  0  0  0  0  0  0  0  0  0
    3.0071   -4.5745   -5.8737 H   0  0  0  0  0  0  0  0  0  0  0  0
    2.8062    3.1811   -1.0577 H   0  0  0  0  0  0  0  0  0  0  0  0
    1.0795    4.2674    1.3029 H   0  0  0  0  0  0  0  0  0  0  0  0
    2.7275    1.3826   -4.1852 H   0  0  0  0  0  0  0  0  0  0  0  0
    1.5048   -1.1062   -4.0526 H   0  0  0  0  0  0  0  0  0  0  0  0
  1  2  1  0  0  0  0
  1 26  1  0  0  0  0
  2  3  1  1  0  0  0
  2  4  1  0  0  0  0
  2 17  1  0  0  0  0
  4  5  1  0  0  0  0
  5  6  1  6  0  0  0
  5  7  1  0  0  0  0
  5 13  1  0  0  0  0
  7  8  1  0  0  0  0
  7 27  1  0  0  0  0
  7 28  1  0  0  0  0
  8  9  1  0  0  0  0
  9 10  2  0  0  0  0
  9 11  2  0  0  0  0
  9 12  1  0  0  0  0
 12 29  1  0  0  0  0
 13 15  1  0  0  0  0
 13 25  1  0  0  0  0
 13 14  1  1  0  0  0
 15 16  1  6  0  0  0
 15 17  1  0  0  0  0
 15 24  1  0  0  0  0
 17 19  1  0  0  0  0
 17 18  1  1  0  0  0
 19 20  1  0  0  0  0
 19 30  1  0  0  0  0
 20 21  2  0  0  0  0
 20 22  2  0  0  0  0
 20 23  1  0  0  0  0
 23 31  1  0  0  0  0
 24 32  1  0  0  0  0
 25 33  1  0  0  0  0
M  END
$$$$
