SHG
 OpenBabel04121316183D

 23 23  0  0  1  0  0  0  0  0999 V2000
    0.9966    0.2787    0.1676 O   0  0  0  0  0  0  0  0  0  0  0  0
    2.4084    0.3051   -0.0517 C   0  0  0  0  0  0  0  0  0  0  0  0
    2.8486   -0.6735   -1.1653 C   0  0  1  0  0  0  0  0  0  0  0  0
    3.4081   -0.0748   -1.8966 H   0  0  0  0  0  0  0  0  0  0  0  0
    3.8288   -1.6027   -0.6698 O   0  0  0  0  0  0  0  0  0  0  0  0
    3.3233   -2.6957    0.0932 C   0  0  1  0  0  0  0  0  0  0  0  0
    4.1732   -3.3670    0.2530 H   0  0  0  0  0  0  0  0  0  0  0  0
    2.9291   -2.2453    1.3860 O   0  0  0  0  0  0  0  0  0  0  0  0
    2.2152   -3.4938   -0.6074 C   0  0  1  0  0  0  0  0  0  0  0  0
    1.7933   -4.2187    0.0986 H   0  0  0  0  0  0  0  0  0  0  0  0
    1.1156   -2.5626   -1.0993 C   0  0  2  0  0  0  0  0  0  0  0  0
    0.4385   -3.1348   -1.7437 H   0  0  0  0  0  0  0  0  0  0  0  0
    1.7084   -1.3959   -1.9182 C   0  0  2  0  0  0  0  0  0  0  0  0
    0.9273   -0.6764   -2.1870 H   0  0  0  0  0  0  0  0  0  0  0  0
    2.2394   -1.8860   -3.1610 O   0  0  0  0  0  0  0  0  0  0  0  0
    0.3431   -2.1515    0.0376 O   0  0  0  0  0  0  0  0  0  0  0  0
    2.7205   -4.1992   -1.6550 F   0  0  0  0  0  0  0  0  0  0  0  0
    0.8119    0.9087    0.8908 H   0  0  0  0  0  0  0  0  0  0  0  0
    2.9014    0.0969    0.9012 H   0  0  0  0  0  0  0  0  0  0  0  0
    2.6778    1.3295   -0.3286 H   0  0  0  0  0  0  0  0  0  0  0  0
    1.9898   -1.9804    1.3199 H   0  0  0  0  0  0  0  0  0  0  0  0
    1.5862   -2.4794   -3.5708 H   0  0  0  0  0  0  0  0  0  0  0  0
    0.3483   -1.1691    0.0780 H   0  0  0  0  0  0  0  0  0  0  0  0
  1  2  1  0  0  0  0
  1 18  1  0  0  0  0
  2  3  1  0  0  0  0
  2 19  1  0  0  0  0
  2 20  1  0  0  0  0
  3  4  1  6  0  0  0
  3  5  1  0  0  0  0
  3 13  1  0  0  0  0
  5  6  1  0  0  0  0
  6  9  1  0  0  0  0
  6  8  1  0  0  0  0
  6  7  1  1  0  0  0
  8 21  1  0  0  0  0
  9 10  1  1  0  0  0
  9 11  1  0  0  0  0
  9 17  1  0  0  0  0
 11 13  1  0  0  0  0
 11 16  1  0  0  0  0
 11 12  1  6  0  0  0
 13 14  1  6  0  0  0
 13 15  1  0  0  0  0
 15 22  1  0  0  0  0
 16 23  1  0  0  0  0
M  END
$$$$
