SHR
 OpenBabel04121316183D

 39 38  0  0  1  0  0  0  0  0999 V2000
    0.9598   -0.1415    0.0279 O   0  0  0  0  0  0  0  0  0  0  0  0
    2.2920   -0.0408    0.1888 C   0  0  0  0  0  0  0  0  0  0  0  0
    2.7812    0.6326    1.0830 O   0  0  0  0  0  0  0  0  0  0  0  0
    3.0116   -0.7879   -0.8839 C   0  0  0  0  0  0  0  0  0  0  0  0
    4.5271   -0.6671   -0.7791 C   0  0  0  0  0  0  0  0  0  0  0  0
    5.2578   -1.4389   -1.8873 C   0  0  1  0  0  0  0  0  0  0  0  0
    4.9774   -2.5000   -1.8555 H   0  0  0  0  0  0  0  0  0  0  0  0
    4.9337   -0.8595   -3.3043 C   0  0  0  0  0  0  0  0  0  0  0  0
    5.7124   -0.2444   -4.0202 O   0  0  0  0  0  0  0  0  0  0  0  0
    3.6870   -1.1271   -3.7606 O   0  0  0  0  0  0  0  0  0  0  0  0
    6.7100   -1.3433   -1.5997 N   0  0  0  0  0  0  0  0  0  0  0  0
    7.4958   -2.1067   -2.5556 C   0  0  0  0  0  0  0  0  0  0  0  0
    8.9803   -1.9002   -2.2920 C   0  0  0  0  0  0  0  0  0  0  0  0
    9.7363   -2.6453   -3.3733 C   0  0  0  0  0  0  0  0  0  0  0  0
   11.2425   -2.5071   -3.2464 C   0  0  0  0  0  0  0  0  0  0  0  0
   11.9846   -3.2963   -4.3326 C   0  0  1  0  0  0  0  0  0  0  0  0
   11.7139   -4.3578   -4.2985 H   0  0  0  0  0  0  0  0  0  0  0  0
   11.7180   -2.7665   -5.7718 C   0  0  0  0  0  0  0  0  0  0  0  0
   12.5587   -2.2076   -6.4653 O   0  0  0  0  0  0  0  0  0  0  0  0
   10.4679   -2.9676   -6.2513 O   0  0  0  0  0  0  0  0  0  0  0  0
   13.4341   -3.2063   -4.0502 N   0  0  0  0  0  0  0  0  0  0  0  0
    0.5813    0.4411    0.7187 H   0  0  0  0  0  0  0  0  0  0  0  0
    2.6635   -0.3244   -1.8089 H   0  0  0  0  0  0  0  0  0  0  0  0
    2.7145   -1.8433   -0.8579 H   0  0  0  0  0  0  0  0  0  0  0  0
    4.8394   -1.0389    0.2080 H   0  0  0  0  0  0  0  0  0  0  0  0
    4.8088    0.3930   -0.8145 H   0  0  0  0  0  0  0  0  0  0  0  0
    3.0983   -1.6404   -3.1825 H   0  0  0  0  0  0  0  0  0  0  0  0
    6.9261   -1.6494   -0.6519 H   0  0  0  0  0  0  0  0  0  0  0  0
    7.3066   -1.7928   -3.5860 H   0  0  0  0  0  0  0  0  0  0  0  0
    7.2410   -3.1711   -2.4999 H   0  0  0  0  0  0  0  0  0  0  0  0
    9.2625   -2.2579   -1.2979 H   0  0  0  0  0  0  0  0  0  0  0  0
    9.2300   -0.8333   -2.3599 H   0  0  0  0  0  0  0  0  0  0  0  0
    9.4067   -2.1957   -4.3122 H   0  0  0  0  0  0  0  0  0  0  0  0
    9.4532   -3.7059   -3.3799 H   0  0  0  0  0  0  0  0  0  0  0  0
   11.5393   -2.8691   -2.2521 H   0  0  0  0  0  0  0  0  0  0  0  0
   11.5111   -1.4447   -3.2948 H   0  0  0  0  0  0  0  0  0  0  0  0
    9.8424   -3.4418   -5.6770 H   0  0  0  0  0  0  0  0  0  0  0  0
   13.6459   -3.4548   -3.0879 H   0  0  0  0  0  0  0  0  0  0  0  0
   13.7239   -2.2322   -4.1782 H   0  0  0  0  0  0  0  0  0  0  0  0
  1  2  1  0  0  0  0
  1 22  1  0  0  0  0
  2  3  2  0  0  0  0
  2  4  1  0  0  0  0
  4  5  1  0  0  0  0
  4 23  1  0  0  0  0
  4 24  1  0  0  0  0
  5  6  1  0  0  0  0
  5 25  1  0  0  0  0
  5 26  1  0  0  0  0
  6  7  1  1  0  0  0
  6  8  1  0  0  0  0
  6 11  1  0  0  0  0
  8  9  2  0  0  0  0
  8 10  1  0  0  0  0
 10 27  1  0  0  0  0
 11 12  1  0  0  0  0
 11 28  1  0  0  0  0
 12 13  1  0  0  0  0
 12 29  1  0  0  0  0
 12 30  1  0  0  0  0
 13 14  1  0  0  0  0
 13 31  1  0  0  0  0
 13 32  1  0  0  0  0
 14 15  1  0  0  0  0
 14 33  1  0  0  0  0
 14 34  1  0  0  0  0
 15 16  1  0  0  0  0
 15 35  1  0  0  0  0
 15 36  1  0  0  0  0
 16 17  1  1  0  0  0
 16 18  1  0  0  0  0
 16 21  1  0  0  0  0
 18 19  2  0  0  0  0
 18 20  1  0  0  0  0
 20 37  1  0  0  0  0
 21 38  1  0  0  0  0
 21 39  1  0  0  0  0
M  END
$$$$
