SIB
 OpenBabel04121316183D

 45 47  0  0  1  0  0  0  0  0999 V2000
    3.4386   -3.3745   -0.6359 O   0  0  0  0  0  0  0  0  0  0  0  0
    2.6205   -2.3056   -0.5566 C   0  0  0  0  0  0  0  0  0  0  0  0
    1.4332   -2.4516   -0.2818 O   0  0  0  0  0  0  0  0  0  0  0  0
    3.1877   -0.9209   -0.9198 C   0  0  2  0  0  0  0  0  0  0  0  0
    2.7288   -0.2229   -0.2078 H   0  0  0  0  0  0  0  0  0  0  0  0
    2.7847   -0.5096   -2.3454 C   0  0  0  0  0  0  0  0  0  0  0  0
    1.2681   -0.6444   -2.6053 C   0  0  0  0  0  0  0  0  0  0  0  0
    0.9400   -0.1724   -4.3240 S   0  0  0  0  0  0  0  0  0  0  0  0
   -0.8850   -0.4286   -4.4951 C   0  0  0  0  0  0  0  0  0  0  0  0
   -1.3059   -0.0062   -5.9286 C   0  0  1  0  0  0  0  0  0  0  0  0
   -0.7093   -0.5931   -6.6419 H   0  0  0  0  0  0  0  0  0  0  0  0
   -2.7011   -0.2501   -6.2497 O   0  0  0  0  0  0  0  0  0  0  0  0
   -2.9630    0.5725   -7.4256 C   0  0  2  0  0  0  0  0  0  0  0  0
   -2.5617    0.0743   -8.3175 H   0  0  0  0  0  0  0  0  0  0  0  0
   -2.2140    1.8909   -7.1497 C   0  0  1  0  0  0  0  0  0  0  0  0
   -2.8524    2.6260   -6.6491 H   0  0  0  0  0  0  0  0  0  0  0  0
   -1.1139    1.4956   -6.1629 C   0  0  2  0  0  0  0  0  0  0  0  0
   -1.2651    2.0387   -5.2215 H   0  0  0  0  0  0  0  0  0  0  0  0
    0.1899    1.8000   -6.6371 O   0  0  0  0  0  0  0  0  0  0  0  0
   -1.6812    2.5336   -8.3053 O   0  0  0  0  0  0  0  0  0  0  0  0
   -4.4011    0.7427   -7.6207 N   0  0  0  0  0  0  0  0  0  0  0  0
   -5.2303    1.4804   -6.8048 C   0  0  0  0  0  0  0  0  0  0  0  0
   -6.4693    1.5270   -7.2429 N   0  0  0  0  0  0  0  0  0  0  0  0
   -6.4549    0.7731   -8.3822 C   0  0  0  0  0  0  0  0  0  0  0  0
   -5.1842    0.3044   -8.6675 C   0  0  0  0  0  0  0  0  0  0  0  0
   -4.8093   -0.4409   -9.7403 N   0  0  0  0  0  0  0  0  0  0  0  0
   -5.8072   -0.7355  -10.5255 C   0  0  0  0  0  0  0  0  0  0  0  0
   -7.1228   -0.3424  -10.3415 N   0  0  0  0  0  0  0  0  0  0  0  0
   -7.8477   -0.6145  -10.9903 H   0  0  0  0  0  0  0  0  0  0  0  0
   -7.5406    0.4300   -9.2760 C   0  0  0  0  0  0  0  0  0  0  0  0
   -8.7208    0.7638   -9.1393 O   0  0  0  0  0  0  0  0  0  0  0  0
    4.6536   -0.7981   -0.7185 N   0  0  0  0  0  0  0  0  0  0  0  0
    4.3613   -3.1929   -0.8856 H   0  0  0  0  0  0  0  0  0  0  0  0
    3.3439   -1.1190   -3.0683 H   0  0  0  0  0  0  0  0  0  0  0  0
    3.0909    0.5354   -2.5098 H   0  0  0  0  0  0  0  0  0  0  0  0
    0.7091   -0.0076   -1.9121 H   0  0  0  0  0  0  0  0  0  0  0  0
    0.9466   -1.6806   -2.4979 H   0  0  0  0  0  0  0  0  0  0  0  0
   -1.4210    0.1709   -3.7493 H   0  0  0  0  0  0  0  0  0  0  0  0
   -1.1390   -1.4785   -4.3123 H   0  0  0  0  0  0  0  0  0  0  0  0
    0.1797    2.7362   -6.9030 H   0  0  0  0  0  0  0  0  0  0  0  0
   -2.4169    2.7174   -8.9160 H   0  0  0  0  0  0  0  0  0  0  0  0
   -4.8805    1.9765   -5.9098 H   0  0  0  0  0  0  0  0  0  0  0  0
   -5.6678   -1.3456  -11.4342 H   0  0  0  0  0  0  0  0  0  0  0  0
    4.8905    0.1967   -0.8308 H   0  0  0  0  0  0  0  0  0  0  0  0
    5.1751   -1.2507   -1.4650 H   0  0  0  0  0  0  0  0  0  0  0  0
  1  2  1  0  0  0  0
  1 33  1  0  0  0  0
  2  3  2  0  0  0  0
  4  6  1  0  0  0  0
  4 32  1  0  0  0  0
  4  5  1  1  0  0  0
  4  2  1  0  0  0  0
  6  7  1  0  0  0  0
  6 34  1  0  0  0  0
  6 35  1  0  0  0  0
  7  8  1  0  0  0  0
  7 36  1  0  0  0  0
  7 37  1  0  0  0  0
  8  9  1  0  0  0  0
  9 10  1  0  0  0  0
  9 38  1  0  0  0  0
  9 39  1  0  0  0  0
 10 11  1  6  0  0  0
 10 12  1  0  0  0  0
 10 17  1  0  0  0  0
 12 13  1  0  0  0  0
 13 15  1  0  0  0  0
 13 21  1  0  0  0  0
 13 14  1  6  0  0  0
 15 16  1  1  0  0  0
 15 17  1  0  0  0  0
 15 20  1  0  0  0  0
 17 18  1  1  0  0  0
 17 19  1  0  0  0  0
 19 40  1  0  0  0  0
 20 41  1  0  0  0  0
 21 22  1  0  0  0  0
 21 25  1  0  0  0  0
 22 23  2  0  0  0  0
 22 42  1  0  0  0  0
 23 24  1  0  0  0  0
 24 25  2  0  0  0  0
 24 30  1  0  0  0  0
 25 26  1  0  0  0  0
 26 27  2  0  0  0  0
 27 28  1  0  0  0  0
 27 43  1  0  0  0  0
 28 29  1  0  0  0  0
 28 30  1  0  0  0  0
 30 31  2  0  0  0  0
 32 44  1  0  0  0  0
 32 45  1  0  0  0  0
M  END
$$$$
