SII
 OpenBabel04121316183D

 70 74  0  0  0  0  0  0  0  0999 V2000
    0.9334   -0.0253   -0.0542 C   0  0  0  0  0  0  0  0  0  0  0  0
    2.4255   -0.1417   -0.0315 C   0  0  0  0  0  0  0  0  0  0  0  0
    2.9740   -1.2371   -0.1202 O   0  0  0  0  0  0  0  0  0  0  0  0
    3.0822    1.0695    0.0664 N   0  0  0  0  0  0  0  0  0  0  0  0
    4.4803    1.0959    0.0699 C   0  0  0  0  0  0  0  0  0  0  0  0
    5.1846    0.3338    1.0083 C   0  0  0  0  0  0  0  0  0  0  0  0
    6.5522    0.4997    1.1510 C   0  0  0  0  0  0  0  0  0  0  0  0
    7.2342    1.2785    0.2237 C   0  0  0  0  0  0  0  0  0  0  0  0
    6.5308    1.8274   -0.8648 C   0  0  0  0  0  0  0  0  0  0  0  0
    5.1495    1.8725   -0.8603 C   0  0  0  0  0  0  0  0  0  0  0  0
    8.6896    1.5853    0.4577 C   0  0  0  0  0  0  0  0  0  0  0  0
    9.1855    2.6078   -0.4824 N   0  0  0  0  0  0  0  0  0  0  0  0
    8.6347    3.9232   -0.1140 C   0  0  0  0  0  0  0  0  0  0  0  0
    9.0222    4.9600   -1.1276 C   0  0  0  0  0  0  0  0  0  0  0  0
   10.5761    4.9904   -1.3022 C   0  0  0  0  0  0  0  0  0  0  0  0
   11.3663    3.7177   -1.2929 C   0  0  0  0  0  0  0  0  0  0  0  0
   10.6479    2.5581   -0.5466 C   0  0  0  0  0  0  0  0  0  0  0  0
   11.0893    5.7928   -2.6024 C   0  0  0  0  0  0  0  0  0  0  0  0
   11.7637    6.8356   -2.2045 N   0  0  0  0  0  0  0  0  0  0  0  0
   11.8722    6.8379   -0.7971 C   0  0  0  0  0  0  0  0  0  0  0  0
   12.5175    7.6033   -0.1384 O   0  0  0  0  0  0  0  0  0  0  0  0
   11.1754    5.7678   -0.2507 N   0  0  0  0  0  0  0  0  0  0  0  0
   11.2738    5.3314    1.1212 C   0  0  0  0  0  0  0  0  0  0  0  0
   11.8273    4.1035    1.5556 C   0  0  0  0  0  0  0  0  0  0  0  0
   11.4579    3.4788    2.7624 C   0  0  0  0  0  0  0  0  0  0  0  0
   10.6333    4.1606    3.6314 C   0  0  0  0  0  0  0  0  0  0  0  0
   10.2477    5.4564    3.2958 C   0  0  0  0  0  0  0  0  0  0  0  0
   10.5678    6.0459    2.0676 C   0  0  0  0  0  0  0  0  0  0  0  0
    9.5168    6.1543    4.1709 F   0  0  0  0  0  0  0  0  0  0  0  0
   11.0188    5.3684   -4.0099 N   0  0  0  0  0  0  0  0  0  0  0  0
   10.0925    4.3631   -4.7132 C   0  0  0  0  0  0  0  0  0  0  0  0
   10.5379    3.3227   -5.7554 C   0  0  0  0  0  0  0  0  0  0  0  0
   11.3980    2.1536   -5.2431 C   0  0  0  0  0  0  0  0  0  0  0  0
   10.6700    1.2818   -4.2288 C   0  0  0  0  0  0  0  0  0  0  0  0
   10.1956    2.2320   -3.2302 C   0  0  0  0  0  0  0  0  0  0  0  0
    9.4442    3.4626   -3.7191 C   0  0  0  0  0  0  0  0  0  0  0  0
    0.5189   -1.0353   -0.1229 H   0  0  0  0  0  0  0  0  0  0  0  0
    0.6058    0.5497   -0.9233 H   0  0  0  0  0  0  0  0  0  0  0  0
    0.5816    0.4374    0.8703 H   0  0  0  0  0  0  0  0  0  0  0  0
    2.5930    1.9264   -0.1600 H   0  0  0  0  0  0  0  0  0  0  0  0
    4.6615   -0.3470    1.6711 H   0  0  0  0  0  0  0  0  0  0  0  0
    7.0733    0.0350    1.9835 H   0  0  0  0  0  0  0  0  0  0  0  0
    7.0654    2.3193   -1.6744 H   0  0  0  0  0  0  0  0  0  0  0  0
    4.6367    2.4484   -1.6227 H   0  0  0  0  0  0  0  0  0  0  0  0
    9.2521    0.6447    0.3896 H   0  0  0  0  0  0  0  0  0  0  0  0
    8.8192    1.9584    1.4858 H   0  0  0  0  0  0  0  0  0  0  0  0
    8.9000    4.2264    0.8887 H   0  0  0  0  0  0  0  0  0  0  0  0
    7.5398    3.9083   -0.1321 H   0  0  0  0  0  0  0  0  0  0  0  0
    8.6350    5.9658   -0.9540 H   0  0  0  0  0  0  0  0  0  0  0  0
    8.3267    4.6917   -1.9387 H   0  0  0  0  0  0  0  0  0  0  0  0
   12.4233    3.7603   -1.0005 H   0  0  0  0  0  0  0  0  0  0  0  0
   11.6524    3.7065   -2.3350 H   0  0  0  0  0  0  0  0  0  0  0  0
   10.9108    2.4965    0.4875 H   0  0  0  0  0  0  0  0  0  0  0  0
   11.0464    1.5876   -0.8820 H   0  0  0  0  0  0  0  0  0  0  0  0
   12.4913    3.5135    0.9267 H   0  0  0  0  0  0  0  0  0  0  0  0
   11.7860    2.4618    2.9864 H   0  0  0  0  0  0  0  0  0  0  0  0
   10.3265    3.7179    4.5736 H   0  0  0  0  0  0  0  0  0  0  0  0
   10.2241    7.0430    1.8326 H   0  0  0  0  0  0  0  0  0  0  0  0
   11.2987    6.1313   -4.6366 H   0  0  0  0  0  0  0  0  0  0  0  0
    9.3322    4.9929   -5.2038 H   0  0  0  0  0  0  0  0  0  0  0  0
   10.9694    3.7701   -6.6442 H   0  0  0  0  0  0  0  0  0  0  0  0
    9.5948    2.8347   -6.0752 H   0  0  0  0  0  0  0  0  0  0  0  0
   12.3032    2.5967   -4.8007 H   0  0  0  0  0  0  0  0  0  0  0  0
   11.6881    1.4810   -6.0433 H   0  0  0  0  0  0  0  0  0  0  0  0
   11.3716    0.5991   -3.7109 H   0  0  0  0  0  0  0  0  0  0  0  0
    9.7844    0.7279   -4.5188 H   0  0  0  0  0  0  0  0  0  0  0  0
   11.2005    2.3379   -2.8589 H   0  0  0  0  0  0  0  0  0  0  0  0
    9.6169    1.7088   -2.4882 H   0  0  0  0  0  0  0  0  0  0  0  0
    9.3713    4.2060   -3.0065 H   0  0  0  0  0  0  0  0  0  0  0  0
    8.4072    3.2015   -3.9265 H   0  0  0  0  0  0  0  0  0  0  0  0
  1  2  1  0  0  0  0
  1 37  1  0  0  0  0
  1 38  1  0  0  0  0
  1 39  1  0  0  0  0
  2  3  2  0  0  0  0
  2  4  1  0  0  0  0
  4  5  1  0  0  0  0
  4 40  1  0  0  0  0
  5  6  2  0  0  0  0
  5 10  1  0  0  0  0
  6  7  1  0  0  0  0
  6 41  1  0  0  0  0
  7  8  2  0  0  0  0
  7 42  1  0  0  0  0
  8  9  1  0  0  0  0
  8 11  1  0  0  0  0
  9 10  2  0  0  0  0
  9 43  1  0  0  0  0
 10 44  1  0  0  0  0
 11 12  1  0  0  0  0
 11 45  1  0  0  0  0
 11 46  1  0  0  0  0
 12 13  1  0  0  0  0
 12 17  1  0  0  0  0
 13 14  1  0  0  0  0
 13 47  1  0  0  0  0
 13 48  1  0  0  0  0
 14 15  1  0  0  0  0
 14 49  1  0  0  0  0
 14 50  1  0  0  0  0
 15 16  1  0  0  0  0
 15 18  1  0  0  0  0
 15 22  1  0  0  0  0
 16 17  1  0  0  0  0
 16 51  1  0  0  0  0
 16 52  1  0  0  0  0
 17 53  1  0  0  0  0
 17 54  1  0  0  0  0
 18 19  2  0  0  0  0
 18 30  1  0  0  0  0
 19 20  1  0  0  0  0
 20 21  2  0  0  0  0
 20 22  1  0  0  0  0
 22 23  1  0  0  0  0
 23 24  2  0  0  0  0
 23 28  1  0  0  0  0
 24 25  1  0  0  0  0
 24 55  1  0  0  0  0
 25 26  2  0  0  0  0
 25 56  1  0  0  0  0
 26 27  1  0  0  0  0
 26 57  1  0  0  0  0
 27 28  2  0  0  0  0
 27 29  1  0  0  0  0
 28 58  1  0  0  0  0
 30 31  1  0  0  0  0
 30 59  1  0  0  0  0
 31 32  1  0  0  0  0
 31 36  1  0  0  0  0
 31 60  1  0  0  0  0
 32 33  1  0  0  0  0
 32 61  1  0  0  0  0
 32 62  1  0  0  0  0
 33 34  1  0  0  0  0
 33 63  1  0  0  0  0
 33 64  1  0  0  0  0
 34 35  1  0  0  0  0
 34 65  1  0  0  0  0
 34 66  1  0  0  0  0
 35 36  1  0  0  0  0
 35 67  1  0  0  0  0
 35 68  1  0  0  0  0
 36 69  1  0  0  0  0
 36 70  1  0  0  0  0
M  END
$$$$
