SIM
 OpenBabel04121316183D

 71 72  0  0  1  0  0  0  0  0999 V2000
    2.2022   12.9690    4.9618 C   0  0  0  0  0  0  0  0  0  0  0  0
    1.7300   11.6190    5.6035 C   0  0  0  0  0  0  0  0  0  0  0  0
    2.3856   10.1470    5.3110 C   0  0  0  0  0  0  0  0  0  0  0  0
    1.7030    9.4723    3.7299 C   0  0  0  0  0  0  0  0  0  0  0  0
    2.1641    9.2305    2.5832 O   0  0  0  0  0  0  0  0  0  0  0  0
    0.5403    9.0605    3.5639 O   0  0  0  0  0  0  0  0  0  0  0  0
   -0.5197    9.8474    3.7981 C   0  0  1  0  0  0  0  0  0  0  0  0
   -1.1775    9.0529    3.4442 H   0  0  0  0  0  0  0  0  0  0  0  0
   -0.9509    9.9560    5.2077 C   0  0  0  0  0  0  0  0  0  0  0  0
   -2.4236    9.9665    4.9933 C   0  0  1  0  0  0  0  0  0  0  0  0
   -2.7087    8.9817    4.5846 H   0  0  0  0  0  0  0  0  0  0  0  0
   -3.0238   10.0884    6.3606 C   0  0  0  0  0  0  0  0  0  0  0  0
   -2.7281   11.0931    3.9983 C   0  0  0  0  0  0  0  0  0  0  0  0
   -1.8840   11.5232    3.0219 C   0  0  0  0  0  0  0  0  0  0  0  0
   -0.5639   10.8609    2.7258 C   0  0  1  0  0  0  0  0  0  0  0  0
   -0.6752   10.2862    1.7930 H   0  0  0  0  0  0  0  0  0  0  0  0
    0.6530   11.8580    2.4804 C   0  0  1  0  0  0  0  0  0  0  0  0
    0.5566   12.5280    3.3369 H   0  0  0  0  0  0  0  0  0  0  0  0
    2.2726   11.4715    2.0683 C   0  0  0  0  0  0  0  0  0  0  0  0
    3.4078   10.9067    3.0561 C   0  0  0  0  0  0  0  0  0  0  0  0
    4.0450    9.1030    3.2736 C   0  0  2  0  0  0  0  0  0  0  0  0
    4.0832    8.7012    2.2604 H   0  0  0  0  0  0  0  0  0  0  0  0
    3.2340    7.5881    4.0181 C   0  0  0  0  0  0  0  0  0  0  0  0
    1.6329    6.9602    3.7435 C   0  0  2  0  0  0  0  0  0  0  0  0
    1.6057    5.9075    4.0121 H   0  0  0  0  0  0  0  0  0  0  0  0
    1.0874    7.0391    2.2353 C   0  0  0  0  0  0  0  0  0  0  0  0
    1.9967    6.1754    1.4467 C   0  0  0  0  0  0  0  0  0  0  0  0
    2.8154    5.4264    1.9443 O   0  0  0  0  0  0  0  0  0  0  0  0
    1.8932    6.3627    0.1130 O   0  0  0  0  0  0  0  0  0  0  0  0
    0.6755    7.3310    4.7843 O   0  0  0  0  0  0  0  0  0  0  0  0
    5.4138    9.1170    3.6320 O   0  0  0  0  0  0  0  0  0  0  0  0
    0.2607   12.7056    1.2612 C   0  0  2  0  0  0  0  0  0  0  0  0
    0.9239   13.5837    1.2795 H   0  0  0  0  0  0  0  0  0  0  0  0
   -1.1726   13.1699    1.3602 C   0  0  0  0  0  0  0  0  0  0  0  0
   -2.1264   12.6393    2.1486 C   0  0  0  0  0  0  0  0  0  0  0  0
    0.5050   11.9062   -0.0341 C   0  0  0  0  0  0  0  0  0  0  0  0
    3.9485   10.4678    5.7138 C   0  0  0  0  0  0  0  0  0  0  0  0
    2.0036    9.1629    6.4139 C   0  0  0  0  0  0  0  0  0  0  0  0
    1.4591   13.7528    5.1634 H   0  0  0  0  0  0  0  0  0  0  0  0
    2.2314   13.0152    3.8760 H   0  0  0  0  0  0  0  0  0  0  0  0
    3.2087   13.2700    5.2289 H   0  0  0  0  0  0  0  0  0  0  0  0
    0.7291   11.5924    5.2394 H   0  0  0  0  0  0  0  0  0  0  0  0
    1.6985   11.7631    6.6860 H   0  0  0  0  0  0  0  0  0  0  0  0
   -0.6716   10.8249    5.7995 H   0  0  0  0  0  0  0  0  0  0  0  0
   -0.7009    9.0922    5.8254 H   0  0  0  0  0  0  0  0  0  0  0  0
   -2.7073    9.2453    6.9923 H   0  0  0  0  0  0  0  0  0  0  0  0
   -4.1016   10.0754    6.2534 H   0  0  0  0  0  0  0  0  0  0  0  0
   -2.6848   11.0110    6.8376 H   0  0  0  0  0  0  0  0  0  0  0  0
   -3.6748   11.5813    4.1614 H   0  0  0  0  0  0  0  0  0  0  0  0
    2.7434   12.3964    1.7233 H   0  0  0  0  0  0  0  0  0  0  0  0
    2.1808   10.7718    1.2561 H   0  0  0  0  0  0  0  0  0  0  0  0
    2.6174   11.1238    3.7363 H   0  0  0  0  0  0  0  0  0  0  0  0
    4.0370   11.6688    3.5022 H   0  0  0  0  0  0  0  0  0  0  0  0
    3.4699    7.5460    5.0854 H   0  0  0  0  0  0  0  0  0  0  0  0
    3.8480    6.7585    3.6641 H   0  0  0  0  0  0  0  0  0  0  0  0
    1.1427    7.9668    1.6505 H   0  0  0  0  0  0  0  0  0  0  0  0
    0.0049    6.8831    2.1577 H   0  0  0  0  0  0  0  0  0  0  0  0
    1.2816    7.0804   -0.1441 H   0  0  0  0  0  0  0  0  0  0  0  0
   -0.2229    7.3698    4.3967 H   0  0  0  0  0  0  0  0  0  0  0  0
    5.7314    8.2768    3.2547 H   0  0  0  0  0  0  0  0  0  0  0  0
   -1.4088   14.0296    0.7467 H   0  0  0  0  0  0  0  0  0  0  0  0
   -3.1276   13.0447    2.1608 H   0  0  0  0  0  0  0  0  0  0  0  0
    1.5518   11.6277   -0.1980 H   0  0  0  0  0  0  0  0  0  0  0  0
    0.2564   12.4855   -0.9147 H   0  0  0  0  0  0  0  0  0  0  0  0
   -0.0571   10.9666   -0.0298 H   0  0  0  0  0  0  0  0  0  0  0  0
    4.4374   11.3302    5.2400 H   0  0  0  0  0  0  0  0  0  0  0  0
    4.6641    9.6455    5.6420 H   0  0  0  0  0  0  0  0  0  0  0  0
    3.9813   10.7849    6.7626 H   0  0  0  0  0  0  0  0  0  0  0  0
    0.9730    8.9249    6.3284 H   0  0  0  0  0  0  0  0  0  0  0  0
    2.1589    9.5906    7.3971 H   0  0  0  0  0  0  0  0  0  0  0  0
    2.5067    8.1956    6.4334 H   0  0  0  0  0  0  0  0  0  0  0  0
  1  2  1  0  0  0  0
  1 39  1  0  0  0  0
  1 40  1  0  0  0  0
  1 41  1  0  0  0  0
  2  3  1  0  0  0  0
  2 42  1  0  0  0  0
  2 43  1  0  0  0  0
  3  4  1  0  0  0  0
  3 37  1  0  0  0  0
  3 38  1  0  0  0  0
  4  5  2  0  0  0  0
  4  6  1  0  0  0  0
  7  9  1  0  0  0  0
  7 15  1  0  0  0  0
  7  8  1  6  0  0  0
  7  6  1  0  0  0  0
  9 10  1  0  0  0  0
  9 44  1  0  0  0  0
  9 45  1  0  0  0  0
 10 11  1  6  0  0  0
 10 12  1  0  0  0  0
 10 13  1  0  0  0  0
 12 46  1  0  0  0  0
 12 47  1  0  0  0  0
 12 48  1  0  0  0  0
 13 14  2  0  0  0  0
 13 49  1  0  0  0  0
 14 15  1  0  0  0  0
 14 35  1  0  0  0  0
 15 16  1  6  0  0  0
 15 17  1  0  0  0  0
 17 18  1  1  0  0  0
 17 19  1  0  0  0  0
 17 32  1  0  0  0  0
 19 20  1  0  0  0  0
 19 50  1  0  0  0  0
 19 51  1  0  0  0  0
 20 52  1  0  0  0  0
 20 53  1  0  0  0  0
 21 23  1  0  0  0  0
 21 31  1  0  0  0  0
 21 22  1  6  0  0  0
 21 20  1  0  0  0  0
 23 54  1  0  0  0  0
 23 55  1  0  0  0  0
 24 26  1  0  0  0  0
 24 30  1  0  0  0  0
 24 25  1  1  0  0  0
 24 23  1  0  0  0  0
 26 27  1  0  0  0  0
 26 56  1  0  0  0  0
 26 57  1  0  0  0  0
 27 28  2  0  0  0  0
 27 29  1  0  0  0  0
 29 58  1  0  0  0  0
 30 59  1  0  0  0  0
 31 60  1  0  0  0  0
 32 33  1  6  0  0  0
 32 34  1  0  0  0  0
 32 36  1  0  0  0  0
 34 35  2  0  0  0  0
 34 61  1  0  0  0  0
 35 62  1  0  0  0  0
 36 63  1  0  0  0  0
 36 64  1  0  0  0  0
 36 65  1  0  0  0  0
 37 66  1  0  0  0  0
 37 67  1  0  0  0  0
 37 68  1  0  0  0  0
 38 69  1  0  0  0  0
 38 70  1  0  0  0  0
 38 71  1  0  0  0  0
M  END
$$$$
