SK4
 OpenBabel04121316183D

 43 45  0  0  0  0  0  0  0  0999 V2000
    1.1696    0.1371    0.1569 C   0  0  0  0  0  0  0  0  0  0  0  0
    2.6017    0.1647    0.3775 O   0  0  0  0  0  0  0  0  0  0  0  0
    3.2305    1.3427    0.0321 C   0  0  0  0  0  0  0  0  0  0  0  0
    2.6439    2.5815    0.1833 C   0  0  0  0  0  0  0  0  0  0  0  0
    3.2476    3.7029   -0.3825 C   0  0  0  0  0  0  0  0  0  0  0  0
    4.2912    3.5495   -1.2977 C   0  0  0  0  0  0  0  0  0  0  0  0
    4.8826    2.2994   -1.4595 C   0  0  0  0  0  0  0  0  0  0  0  0
    4.4999    1.2881   -0.5600 C   0  0  0  0  0  0  0  0  0  0  0  0
    5.7383    2.0524   -2.5665 N   0  0  0  0  0  0  0  0  0  0  0  0
    6.0003    0.8148   -3.2389 C   0  0  0  0  0  0  0  0  0  0  0  0
    5.2625   -0.3660   -3.0186 C   0  0  0  0  0  0  0  0  0  0  0  0
    5.8433   -1.5823   -3.3179 C   0  0  0  0  0  0  0  0  0  0  0  0
    6.9870   -1.7215   -4.0014 N   0  0  0  0  0  0  0  0  0  0  0  0
    7.5402   -0.6069   -4.4713 C   0  0  0  0  0  0  0  0  0  0  0  0
    7.1399    0.6986   -4.0853 C   0  0  0  0  0  0  0  0  0  0  0  0
    7.8760    1.7874   -4.6009 C   0  0  0  0  0  0  0  0  0  0  0  0
    8.7771    1.5836   -5.6509 C   0  0  0  0  0  0  0  0  0  0  0  0
    9.0182    0.3060   -6.1374 C   0  0  0  0  0  0  0  0  0  0  0  0
    8.5084   -0.7781   -5.4372 C   0  0  0  0  0  0  0  0  0  0  0  0
    9.6566    2.9913   -6.2705 S   0  0  0  0  0  0  0  0  0  0  0  0
    8.6652    3.8806   -6.8426 O   0  0  0  0  0  0  0  0  0  0  0  0
   10.5201    3.4199   -5.1875 O   0  0  0  0  0  0  0  0  0  0  0  0
   10.6922    2.4042   -7.5833 C   0  0  0  0  0  0  0  0  0  0  0  0
    3.8427   -0.3990   -2.6044 C   0  0  0  0  0  0  0  0  0  0  0  0
    3.0522    0.4891   -2.9313 O   0  0  0  0  0  0  0  0  0  0  0  0
    3.4469   -1.4326   -1.7905 N   0  0  0  0  0  0  0  0  0  0  0  0
    0.8034   -0.8629    0.4245 H   0  0  0  0  0  0  0  0  0  0  0  0
    0.8980    0.2969   -0.8971 H   0  0  0  0  0  0  0  0  0  0  0  0
    0.6432    0.8450    0.8007 H   0  0  0  0  0  0  0  0  0  0  0  0
    1.7246    2.6882    0.7417 H   0  0  0  0  0  0  0  0  0  0  0  0
    2.8447    4.6851   -0.1688 H   0  0  0  0  0  0  0  0  0  0  0  0
    4.5937    4.3983   -1.9040 H   0  0  0  0  0  0  0  0  0  0  0  0
    5.0751    0.3693   -0.5217 H   0  0  0  0  0  0  0  0  0  0  0  0
    5.8646    2.8657   -3.1650 H   0  0  0  0  0  0  0  0  0  0  0  0
    5.3755   -2.5182   -3.0396 H   0  0  0  0  0  0  0  0  0  0  0  0
    7.7152    2.7997   -4.2382 H   0  0  0  0  0  0  0  0  0  0  0  0
    9.6041    0.1089   -7.0269 H   0  0  0  0  0  0  0  0  0  0  0  0
    8.8323   -1.7863   -5.6871 H   0  0  0  0  0  0  0  0  0  0  0  0
   10.0669    1.9961   -8.3799 H   0  0  0  0  0  0  0  0  0  0  0  0
   11.3752    1.6469   -7.1914 H   0  0  0  0  0  0  0  0  0  0  0  0
   11.2688    3.2482   -7.9651 H   0  0  0  0  0  0  0  0  0  0  0  0
    4.0478   -2.1879   -1.4980 H   0  0  0  0  0  0  0  0  0  0  0  0
    2.8199   -1.1265   -1.0516 H   0  0  0  0  0  0  0  0  0  0  0  0
  1  2  1  0  0  0  0
  1 27  1  0  0  0  0
  1 28  1  0  0  0  0
  1 29  1  0  0  0  0
  2  3  1  0  0  0  0
  3  4  2  0  0  0  0
  3  8  1  0  0  0  0
  4  5  1  0  0  0  0
  4 30  1  0  0  0  0
  5  6  2  0  0  0  0
  5 31  1  0  0  0  0
  6  7  1  0  0  0  0
  6 32  1  0  0  0  0
  7  8  2  0  0  0  0
  7  9  1  0  0  0  0
  8 33  1  0  0  0  0
  9 10  1  0  0  0  0
  9 34  1  0  0  0  0
 10 11  2  0  0  0  0
 10 15  1  0  0  0  0
 11 12  1  0  0  0  0
 11 24  1  0  0  0  0
 12 13  2  0  0  0  0
 12 35  1  0  0  0  0
 13 14  1  0  0  0  0
 14 15  2  0  0  0  0
 14 19  1  0  0  0  0
 15 16  1  0  0  0  0
 16 17  2  0  0  0  0
 16 36  1  0  0  0  0
 17 18  1  0  0  0  0
 17 20  1  0  0  0  0
 18 19  2  0  0  0  0
 18 37  1  0  0  0  0
 19 38  1  0  0  0  0
 20 21  2  0  0  0  0
 20 22  2  0  0  0  0
 20 23  1  0  0  0  0
 23 39  1  0  0  0  0
 23 40  1  0  0  0  0
 23 41  1  0  0  0  0
 24 25  2  0  0  0  0
 24 26  1  0  0  0  0
 26 42  1  0  0  0  0
 26 43  1  0  0  0  0
M  END
$$$$
