SKP
 OpenBabel04121316183D

 42 42  0  0  1  0  0  0  0  0999 V2000
   -0.3221    3.2121    1.4366 O   0  0  0  0  0  0  0  0  0  0  0  0
    0.2469    3.8741    0.2833 C   0  0  2  0  0  0  0  0  0  0  0  0
    0.1469    4.9432    0.4377 H   0  0  0  0  0  0  0  0  0  0  0  0
   -0.5636    3.6563   -0.9718 C   0  0  1  0  0  0  0  0  0  0  0  0
   -0.7094    4.6210   -1.4725 H   0  0  0  0  0  0  0  0  0  0  0  0
    0.0444    2.7748   -2.0101 C   0  0  0  0  0  0  0  0  0  0  0  0
    1.2890    2.2667   -1.9450 C   0  0  0  0  0  0  0  0  0  0  0  0
    2.1703    2.4639   -0.7720 C   0  0  0  0  0  0  0  0  0  0  0  0
    1.6842    3.4294    0.2795 C   0  0  1  0  0  0  0  0  0  0  0  0
    1.7956    2.8175    1.1642 H   0  0  0  0  0  0  0  0  0  0  0  0
    2.5807    4.5278    0.3602 O   0  0  0  0  0  0  0  0  0  0  0  0
    2.7065    5.1001    1.6736 C   0  0  2  0  0  0  0  0  0  0  0  0
    4.0331    5.9062    1.6344 C   0  0  0  0  0  0  0  0  0  0  0  0
    4.2009    6.8896    0.9197 O   0  0  0  0  0  0  0  0  0  0  0  0
    5.0224    5.4728    2.4449 O   0  0  0  0  0  0  0  0  0  0  0  0
    2.5534    4.1422    2.6846 O   0  0  0  0  0  0  0  0  0  0  0  0
    3.4991    2.9286    3.0903 P   0  0  0  0  0  0  0  0  0  0  0  0
    4.2207    3.2292    4.3519 O   0  0  0  0  0  0  0  0  0  0  0  0
    2.4941    1.6945    3.0851 O   0  0  0  0  0  0  0  0  0  0  0  0
    4.5133    2.5971    1.9069 O   0  0  0  0  0  0  0  0  0  0  0  0
    1.5973    6.1798    1.8705 C   0  0  0  0  0  0  0  0  0  0  0  0
    1.8159    1.4913   -3.0908 C   0  0  0  0  0  0  0  0  0  0  0  0
    1.1786    1.3282   -4.1354 O   0  0  0  0  0  0  0  0  0  0  0  0
    3.0342    0.9536   -2.9166 O   0  0  0  0  0  0  0  0  0  0  0  0
   -1.8045    3.1529   -0.5126 O   0  0  0  0  0  0  0  0  0  0  0  0
   -2.8986    4.2596   -0.0986 P   0  0  0  0  0  0  0  0  0  0  0  0
   -2.9258    5.4486   -0.9879 O   0  0  0  0  0  0  0  0  0  0  0  0
   -4.1684    3.3054   -0.1097 O   0  0  0  0  0  0  0  0  0  0  0  0
   -2.7037    4.6310    1.4404 O   0  0  0  0  0  0  0  0  0  0  0  0
   -0.7194    2.3868    1.0978 H   0  0  0  0  0  0  0  0  0  0  0  0
   -0.5427    2.6542   -2.9201 H   0  0  0  0  0  0  0  0  0  0  0  0
    3.1690    2.7901   -1.0800 H   0  0  0  0  0  0  0  0  0  0  0  0
    2.2860    1.4792   -0.2928 H   0  0  0  0  0  0  0  0  0  0  0  0
    4.7819    4.8404    3.1460 H   0  0  0  0  0  0  0  0  0  0  0  0
    1.5693    2.0086    3.0096 H   0  0  0  0  0  0  0  0  0  0  0  0
    5.3482    2.2425    2.2972 H   0  0  0  0  0  0  0  0  0  0  0  0
    1.7577    6.7806    2.7689 H   0  0  0  0  0  0  0  0  0  0  0  0
    0.5939    5.7691    2.0259 H   0  0  0  0  0  0  0  0  0  0  0  0
    1.5349    6.8544    1.0039 H   0  0  0  0  0  0  0  0  0  0  0  0
    3.5074    1.1190   -2.0806 H   0  0  0  0  0  0  0  0  0  0  0  0
   -3.8327    2.3973   -0.2494 H   0  0  0  0  0  0  0  0  0  0  0  0
   -2.9148    5.5799    1.5769 H   0  0  0  0  0  0  0  0  0  0  0  0
  1 30  1  0  0  0  0
  2  4  1  0  0  0  0
  2  9  1  0  0  0  0
  2  3  1  1  0  0  0
  2  1  1  0  0  0  0
  4  6  1  0  0  0  0
  4 25  1  0  0  0  0
  4  5  1  6  0  0  0
  6  7  2  0  0  0  0
  6 31  1  0  0  0  0
  7  8  1  0  0  0  0
  7 22  1  0  0  0  0
  8  9  1  0  0  0  0
  8 32  1  0  0  0  0
  8 33  1  0  0  0  0
  9 11  1  0  0  0  0
  9 10  1  1  0  0  0
 12 16  1  1  0  0  0
 12 21  1  0  0  0  0
 12 13  1  0  0  0  0
 12 11  1  0  0  0  0
 13 14  2  0  0  0  0
 13 15  1  0  0  0  0
 15 34  1  0  0  0  0
 16 17  1  0  0  0  0
 17 18  2  0  0  0  0
 17 19  1  0  0  0  0
 17 20  1  0  0  0  0
 19 35  1  0  0  0  0
 20 36  1  0  0  0  0
 21 37  1  0  0  0  0
 21 38  1  0  0  0  0
 21 39  1  0  0  0  0
 22 23  2  0  0  0  0
 22 24  1  0  0  0  0
 24 40  1  0  0  0  0
 25 26  1  0  0  0  0
 26 27  2  0  0  0  0
 26 28  1  0  0  0  0
 26 29  1  0  0  0  0
 28 41  1  0  0  0  0
 29 42  1  0  0  0  0
M  END
$$$$
