SKY
 OpenBabel04121316183D

 45 48  0  0  1  0  0  0  0  0999 V2000
    1.5213   -0.9702   -0.1100 O   0  0  0  0  0  0  0  0  0  0  0  0
    2.7669   -0.3217   -0.0815 C   0  0  0  0  0  0  0  0  0  0  0  0
    2.9045    0.6413   -1.2972 C   0  0  1  0  0  0  0  0  0  0  0  0
    3.6735    0.1710   -1.9253 H   0  0  0  0  0  0  0  0  0  0  0  0
    1.7033    0.6572   -2.1046 O   0  0  0  0  0  0  0  0  0  0  0  0
    0.6062    1.5321   -1.7411 C   0  0  1  0  0  0  0  0  0  0  0  0
   -0.0568    1.5270   -2.6162 H   0  0  0  0  0  0  0  0  0  0  0  0
   -0.2497    1.0413   -0.6363 N   0  0  0  0  0  0  0  0  0  0  0  0
   -0.9554   -0.1157   -0.6603 N   0  0  0  0  0  0  0  0  0  0  0  0
   -1.0703   -0.5111    0.6171 N   0  0  0  0  0  0  0  0  0  0  0  0
   -0.5756    0.4959    1.4070 C   0  0  0  0  0  0  0  0  0  0  0  0
   -0.3930    1.5931    0.6115 C   0  0  0  0  0  0  0  0  0  0  0  0
   -0.2066    0.4345    2.8108 C   0  0  0  0  0  0  0  0  0  0  0  0
    0.6214    1.4176    3.4013 C   0  0  0  0  0  0  0  0  0  0  0  0
    0.7797    1.5042    4.7796 C   0  0  0  0  0  0  0  0  0  0  0  0
    0.0974    0.6184    5.5924 C   0  0  0  0  0  0  0  0  0  0  0  0
   -0.6127   -0.4682    5.0025 C   0  0  0  0  0  0  0  0  0  0  0  0
   -0.7077   -0.5751    3.6145 C   0  0  0  0  0  0  0  0  0  0  0  0
   -1.3025   -1.3501    5.8201 C   0  0  0  0  0  0  0  0  0  0  0  0
   -1.4814   -1.0501    7.1662 C   0  0  0  0  0  0  0  0  0  0  0  0
   -0.8718    0.0768    7.7224 C   0  0  0  0  0  0  0  0  0  0  0  0
    0.0142    0.8316    6.9659 C   0  0  0  0  0  0  0  0  0  0  0  0
    1.1154    2.9695   -1.4843 C   0  0  1  0  0  0  0  0  0  0  0  0
    0.2898    3.5678   -1.0837 H   0  0  0  0  0  0  0  0  0  0  0  0
    2.3354    2.9988   -0.5229 C   0  0  2  0  0  0  0  0  0  0  0  0
    2.6854    4.0356   -0.4939 H   0  0  0  0  0  0  0  0  0  0  0  0
    3.4539    2.0589   -0.9686 C   0  0  2  0  0  0  0  0  0  0  0  0
    4.2017    1.9741   -0.1706 H   0  0  0  0  0  0  0  0  0  0  0  0
    4.1376    2.6267   -2.0862 O   0  0  0  0  0  0  0  0  0  0  0  0
    2.0797    2.6811    0.8356 O   0  0  0  0  0  0  0  0  0  0  0  0
    1.5114    3.6472   -2.6925 O   0  0  0  0  0  0  0  0  0  0  0  0
    1.1384   -1.1012    0.7727 H   0  0  0  0  0  0  0  0  0  0  0  0
    3.4808   -1.1432   -0.1543 H   0  0  0  0  0  0  0  0  0  0  0  0
    2.9506    0.1506    0.8883 H   0  0  0  0  0  0  0  0  0  0  0  0
   -0.0959    2.5968    0.8652 H   0  0  0  0  0  0  0  0  0  0  0  0
    1.1125    2.1897    2.8260 H   0  0  0  0  0  0  0  0  0  0  0  0
    1.3423    2.3411    5.1982 H   0  0  0  0  0  0  0  0  0  0  0  0
   -1.2881   -1.3835    3.1671 H   0  0  0  0  0  0  0  0  0  0  0  0
   -1.7847   -2.2306    5.3957 H   0  0  0  0  0  0  0  0  0  0  0  0
   -2.1172   -1.6810    7.7765 H   0  0  0  0  0  0  0  0  0  0  0  0
   -1.1003    0.3718    8.7415 H   0  0  0  0  0  0  0  0  0  0  0  0
    0.5755    1.6370    7.4396 H   0  0  0  0  0  0  0  0  0  0  0  0
    4.2468    3.5808   -1.9087 H   0  0  0  0  0  0  0  0  0  0  0  0
    1.9028    1.7264    0.8936 H   0  0  0  0  0  0  0  0  0  0  0  0
    0.8740    3.4588   -3.4026 H   0  0  0  0  0  0  0  0  0  0  0  0
  1  2  1  0  0  0  0
  1 32  1  0  0  0  0
  2  3  1  0  0  0  0
  2 33  1  0  0  0  0
  2 34  1  0  0  0  0
  3  4  1  6  0  0  0
  3  5  1  0  0  0  0
  3 27  1  0  0  0  0
  5  6  1  0  0  0  0
  6 23  1  0  0  0  0
  6  8  1  0  0  0  0
  6  7  1  6  0  0  0
  8  9  1  0  0  0  0
  8 12  1  0  0  0  0
  9 10  2  0  0  0  0
 10 11  1  0  0  0  0
 11 12  2  0  0  0  0
 11 13  1  0  0  0  0
 12 35  1  0  0  0  0
 13 14  2  0  0  0  0
 13 18  1  0  0  0  0
 14 15  1  0  0  0  0
 14 36  1  0  0  0  0
 15 16  2  0  0  0  0
 15 37  1  0  0  0  0
 16 17  1  0  0  0  0
 16 22  1  0  0  0  0
 17 18  2  0  0  0  0
 17 19  1  0  0  0  0
 18 38  1  0  0  0  0
 19 20  2  0  0  0  0
 19 39  1  0  0  0  0
 20 21  1  0  0  0  0
 20 40  1  0  0  0  0
 21 22  2  0  0  0  0
 21 41  1  0  0  0  0
 22 42  1  0  0  0  0
 23 24  1  1  0  0  0
 23 25  1  0  0  0  0
 23 31  1  0  0  0  0
 25 27  1  0  0  0  0
 25 30  1  0  0  0  0
 25 26  1  6  0  0  0
 27 28  1  1  0  0  0
 27 29  1  0  0  0  0
 29 43  1  0  0  0  0
 30 44  1  0  0  0  0
 31 45  1  0  0  0  0
M  END
$$$$
