SM2
 OpenBabel04121316183D

 36 37  0  0  1  0  0  0  0  0999 V2000
    0.9479    0.0512    0.0683 O   0  0  0  0  0  0  0  0  0  0  0  0
    2.1755    0.0512    0.0683 C   0  0  0  0  0  0  0  0  0  0  0  0
    2.8737   -0.9372    0.7653 N   0  0  0  0  0  0  0  0  0  0  0  0
    2.1565   -1.9524    1.4813 C   0  0  1  0  0  0  0  0  0  0  0  0
    1.5413   -1.4952    2.2279 H   0  0  0  0  0  0  0  0  0  0  0  0
    1.3044   -2.7140    0.5377 C   0  0  0  0  0  0  0  0  0  0  0  0
    1.4499   -4.0393    0.4920 C   0  0  0  0  0  0  0  0  0  0  0  0
    0.7175   -4.7771   -0.4794 C   0  0  0  0  0  0  0  0  0  0  0  0
    0.1039   -4.0959   -1.5433 C   0  0  0  0  0  0  0  0  0  0  0  0
   -0.0300   -2.8030   -1.4973 C   0  0  0  0  0  0  0  0  0  0  0  0
    0.4279   -2.0887   -0.3822 C   0  0  0  0  0  0  0  0  0  0  0  0
   -0.6512   -2.1029   -2.5969 C   0  0  0  0  0  0  0  0  0  0  0  0
   -1.0526   -2.7279   -3.5742 O   0  0  0  0  0  0  0  0  0  0  0  0
   -0.7904   -0.7619   -2.5501 O   0  0  0  0  0  0  0  0  0  0  0  0
    3.1689   -2.9201    2.1638 B   0  0  0  0  0  0  0  0  0  0  0  0
    4.6023   -2.7024    2.0103 O   0  0  0  0  0  0  0  0  0  0  0  0
    2.6829   -4.0435    2.9561 O   0  0  0  0  0  0  0  0  0  0  0  0
    2.9165    1.1000   -0.6714 C   0  0  0  0  0  0  0  0  0  0  0  0
    4.3735    0.8787   -0.5153 C   0  0  0  0  0  0  0  0  0  0  0  0
    5.3254    1.8380   -0.4148 C   0  0  0  0  0  0  0  0  0  0  0  0
    6.5028    1.1814   -0.2762 C   0  0  0  0  0  0  0  0  0  0  0  0
    6.2414   -0.0969   -0.3025 C   0  0  0  0  0  0  0  0  0  0  0  0
    4.9764   -0.2768   -0.4488 S   0  0  0  0  0  0  0  0  0  0  0  0
    3.8582   -0.9372    0.7653 H   0  0  0  0  0  0  0  0  0  0  0  0
    2.0826   -4.5210    1.1497 H   0  0  0  0  0  0  0  0  0  0  0  0
    0.6379   -5.8032   -0.4029 H   0  0  0  0  0  0  0  0  0  0  0  0
   -0.2410   -4.6214   -2.3618 H   0  0  0  0  0  0  0  0  0  0  0  0
    0.1281   -1.1127   -0.2322 H   0  0  0  0  0  0  0  0  0  0  0  0
   -0.4840   -0.2848   -1.8041 H   0  0  0  0  0  0  0  0  0  0  0  0
    4.7531   -1.9194    1.4580 H   0  0  0  0  0  0  0  0  0  0  0  0
    1.7129   -4.0435    2.9561 H   0  0  0  0  0  0  0  0  0  0  0  0
    2.6580    2.0621   -0.2808 H   0  0  0  0  0  0  0  0  0  0  0  0
    2.6580    1.0550   -1.7087 H   0  0  0  0  0  0  0  0  0  0  0  0
    5.1829    2.8598   -0.4388 H   0  0  0  0  0  0  0  0  0  0  0  0
    7.4343    1.6127   -0.1696 H   0  0  0  0  0  0  0  0  0  0  0  0
    6.9430   -0.8490   -0.2187 H   0  0  0  0  0  0  0  0  0  0  0  0
  1  2  2  0  0  0  0
  2  3  1  0  0  0  0
  2 18  1  0  0  0  0
  3  4  1  0  0  0  0
  3 24  1  0  0  0  0
  4  5  1  1  0  0  0
  4  6  1  0  0  0  0
  4 15  1  0  0  0  0
  6  7  2  0  0  0  0
  6 11  1  0  0  0  0
  7  8  1  0  0  0  0
  7 25  1  0  0  0  0
  8  9  2  0  0  0  0
  8 26  1  0  0  0  0
  9 10  1  0  0  0  0
  9 27  1  0  0  0  0
 10 11  2  0  0  0  0
 10 12  1  0  0  0  0
 11 28  1  0  0  0  0
 12 13  2  0  0  0  0
 12 14  1  0  0  0  0
 14 29  1  0  0  0  0
 15 16  1  0  0  0  0
 15 17  1  0  0  0  0
 16 30  1  0  0  0  0
 17 31  1  0  0  0  0
 18 19  1  0  0  0  0
 18 32  1  0  0  0  0
 18 33  1  0  0  0  0
 19 20  2  0  0  0  0
 19 23  1  0  0  0  0
 20 21  1  0  0  0  0
 20 34  1  0  0  0  0
 21 22  2  0  0  0  0
 21 35  1  0  0  0  0
 22 23  1  0  0  0  0
 22 36  1  0  0  0  0
M  END
$$$$
