SMD
 OpenBabel04121316193D

 48 49  0  0  1  0  0  0  0  0999 V2000
    0.6989    0.3230    0.0287 C   0  0  0  0  0  0  0  0  0  0  0  0
    2.0645    0.1754    0.2561 O   0  0  0  0  0  0  0  0  0  0  0  0
    3.0491    1.1863    0.1677 C   0  0  1  0  0  0  0  0  0  0  0  0
    3.1396    1.6295    1.1652 H   0  0  0  0  0  0  0  0  0  0  0  0
    4.2149    0.3820   -0.1078 O   0  0  0  0  0  0  0  0  0  0  0  0
    4.0470   -0.3107   -1.3676 C   0  0  2  0  0  0  0  0  0  0  0  0
    3.0673   -0.8052   -1.4149 H   0  0  0  0  0  0  0  0  0  0  0  0
    5.0445   -1.4564   -1.4249 C   0  0  0  0  0  0  0  0  0  0  0  0
    4.9337   -2.2121   -2.6212 O   0  0  0  0  0  0  0  0  0  0  0  0
    4.0851    0.6798   -2.5428 C   0  0  2  0  0  0  0  0  0  0  0  0
    5.0785    1.1399   -2.6125 H   0  0  0  0  0  0  0  0  0  0  0  0
    2.9929    1.7469   -2.3041 C   0  0  1  0  0  0  0  0  0  0  0  0
    2.0120    1.2824   -2.4464 H   0  0  0  0  0  0  0  0  0  0  0  0
    3.0664    2.3394   -0.8808 C   0  0  2  0  0  0  0  0  0  0  0  0
    2.2676    3.0761   -0.7445 H   0  0  0  0  0  0  0  0  0  0  0  0
    4.7283    3.2318   -0.8534 S   0  0  0  0  0  0  0  0  0  0  0  0
    4.8247    4.0758    0.7679 C   0  0  1  0  0  0  0  0  0  0  0  0
    4.5637    3.3787    1.5700 H   0  0  0  0  0  0  0  0  0  0  0  0
    6.2034    4.4577    1.0211 O   0  0  0  0  0  0  0  0  0  0  0  0
    6.7394    5.4196    0.0943 C   0  0  2  0  0  0  0  0  0  0  0  0
    6.7481    4.9884   -0.9132 H   0  0  0  0  0  0  0  0  0  0  0  0
    8.2180    5.6878    0.4193 C   0  0  0  0  0  0  0  0  0  0  0  0
    8.8394    6.5473   -0.5343 O   0  0  0  0  0  0  0  0  0  0  0  0
    5.8933    6.7049    0.0709 C   0  0  2  0  0  0  0  0  0  0  0  0
    5.9901    7.2393    1.0232 H   0  0  0  0  0  0  0  0  0  0  0  0
    4.4220    6.3578   -0.1791 C   0  0  1  0  0  0  0  0  0  0  0  0
    4.3068    5.9931   -1.2064 H   0  0  0  0  0  0  0  0  0  0  0  0
    3.9128    5.3156    0.8152 C   0  0  2  0  0  0  0  0  0  0  0  0
    2.8727    5.0529    0.5970 H   0  0  0  0  0  0  0  0  0  0  0  0
    3.8932    5.8805    2.1374 O   0  0  0  0  0  0  0  0  0  0  0  0
    3.6282    7.5487   -0.1031 O   0  0  0  0  0  0  0  0  0  0  0  0
    6.2721    7.6208   -0.9678 O   0  0  0  0  0  0  0  0  0  0  0  0
    3.0464    2.7520   -3.3318 O   0  0  0  0  0  0  0  0  0  0  0  0
    3.8311    0.1079   -3.8269 O   0  0  0  0  0  0  0  0  0  0  0  0
    0.3325   -0.6946   -0.1697 H   0  0  0  0  0  0  0  0  0  0  0  0
    0.4713    0.9292   -0.8450 H   0  0  0  0  0  0  0  0  0  0  0  0
    0.1976    0.6759    0.9289 H   0  0  0  0  0  0  0  0  0  0  0  0
    4.8525   -2.1320   -0.5819 H   0  0  0  0  0  0  0  0  0  0  0  0
    6.0689   -1.0913   -1.3150 H   0  0  0  0  0  0  0  0  0  0  0  0
    3.9957   -2.4414   -2.7509 H   0  0  0  0  0  0  0  0  0  0  0  0
    8.7789    4.7464    0.4300 H   0  0  0  0  0  0  0  0  0  0  0  0
    8.3281    6.1343    1.4116 H   0  0  0  0  0  0  0  0  0  0  0  0
    8.6524    6.2094   -1.4224 H   0  0  0  0  0  0  0  0  0  0  0  0
    3.4882    6.7663    2.0365 H   0  0  0  0  0  0  0  0  0  0  0  0
    4.0997    8.1907   -0.6754 H   0  0  0  0  0  0  0  0  0  0  0  0
    6.4447    7.1119   -1.7764 H   0  0  0  0  0  0  0  0  0  0  0  0
    3.2963    2.2789   -4.1525 H   0  0  0  0  0  0  0  0  0  0  0  0
    3.0514   -0.4809   -3.7558 H   0  0  0  0  0  0  0  0  0  0  0  0
  1  2  1  0  0  0  0
  1 35  1  0  0  0  0
  1 36  1  0  0  0  0
  1 37  1  0  0  0  0
  2  3  1  0  0  0  0
  3  4  1  1  0  0  0
  3  5  1  0  0  0  0
  3 14  1  0  0  0  0
  5  6  1  0  0  0  0
  6  7  1  1  0  0  0
  6  8  1  0  0  0  0
  6 10  1  0  0  0  0
  8  9  1  0  0  0  0
  8 38  1  0  0  0  0
  8 39  1  0  0  0  0
  9 40  1  0  0  0  0
 10 12  1  0  0  0  0
 10 34  1  0  0  0  0
 10 11  1  6  0  0  0
 12 13  1  6  0  0  0
 12 14  1  0  0  0  0
 12 33  1  0  0  0  0
 14 15  1  1  0  0  0
 14 16  1  0  0  0  0
 16 17  1  0  0  0  0
 17 18  1  1  0  0  0
 17 19  1  0  0  0  0
 17 28  1  0  0  0  0
 19 20  1  0  0  0  0
 20 21  1  6  0  0  0
 20 22  1  0  0  0  0
 20 24  1  0  0  0  0
 22 23  1  0  0  0  0
 22 41  1  0  0  0  0
 22 42  1  0  0  0  0
 23 43  1  0  0  0  0
 24 26  1  0  0  0  0
 24 32  1  0  0  0  0
 24 25  1  1  0  0  0
 26 27  1  6  0  0  0
 26 28  1  0  0  0  0
 26 31  1  0  0  0  0
 28 29  1  6  0  0  0
 28 30  1  0  0  0  0
 30 44  1  0  0  0  0
 31 45  1  0  0  0  0
 32 46  1  0  0  0  0
 33 47  1  0  0  0  0
 34 48  1  0  0  0  0
M  END
$$$$
