SME
 OpenBabel04121316193D

 21 20  0  0  1  0  0  0  0  0999 V2000
    1.0177   -0.1059    0.0040 C   0  0  0  0  0  0  0  0  0  0  0  0
    2.8175    0.0604    0.1538 S   0  0  1  0  0  0  0  0  0  0  0  0
    3.2104   -0.4287    1.5142 O   0  0  0  0  0  0  0  0  0  0  0  0
    3.3013   -1.2261   -1.0383 C   0  0  0  0  0  0  0  0  0  0  0  0
    4.8288   -1.3147   -1.1459 C   0  0  0  0  0  0  0  0  0  0  0  0
    5.3337   -2.3841   -2.1305 C   0  0  1  0  0  0  0  0  0  0  0  0
    4.9617   -3.3783   -1.8596 H   0  0  0  0  0  0  0  0  0  0  0  0
    4.9288   -2.0899   -3.6004 C   0  0  0  0  0  0  0  0  0  0  0  0
    5.7152   -1.7761   -4.4895 O   0  0  0  0  0  0  0  0  0  0  0  0
    3.6056   -2.1864   -3.8646 O   0  0  0  0  0  0  0  0  0  0  0  0
    6.8123   -2.4461   -2.0543 N   0  0  0  0  0  0  0  0  0  0  0  0
    0.5686    0.6303    0.6767 H   0  0  0  0  0  0  0  0  0  0  0  0
    0.6880   -1.1044    0.3021 H   0  0  0  0  0  0  0  0  0  0  0  0
    0.6883    0.1093   -1.0162 H   0  0  0  0  0  0  0  0  0  0  0  0
    2.8616   -0.9121   -1.9847 H   0  0  0  0  0  0  0  0  0  0  0  0
    2.8800   -2.1932   -0.7406 H   0  0  0  0  0  0  0  0  0  0  0  0
    5.2393   -1.5311   -0.1484 H   0  0  0  0  0  0  0  0  0  0  0  0
    5.2261   -0.3331   -1.4351 H   0  0  0  0  0  0  0  0  0  0  0  0
    3.0439   -2.5378   -3.1528 H   0  0  0  0  0  0  0  0  0  0  0  0
    7.1433   -2.5489   -1.0980 H   0  0  0  0  0  0  0  0  0  0  0  0
    7.2012   -1.5684   -2.4118 H   0  0  0  0  0  0  0  0  0  0  0  0
  1 12  1  0  0  0  0
  1 13  1  0  0  0  0
  1 14  1  0  0  0  0
  2  1  1  1  0  0  0
  2  3  2  0  0  0  0
  2  4  1  0  0  0  0
  4  5  1  0  0  0  0
  4 15  1  0  0  0  0
  4 16  1  0  0  0  0
  5  6  1  0  0  0  0
  5 17  1  0  0  0  0
  5 18  1  0  0  0  0
  6  7  1  1  0  0  0
  6  8  1  0  0  0  0
  6 11  1  0  0  0  0
  8  9  2  0  0  0  0
  8 10  1  0  0  0  0
 10 19  1  0  0  0  0
 11 20  1  0  0  0  0
 11 21  1  0  0  0  0
M  END
$$$$
