SN0
 OpenBabel04121316193D

 30 29  0  0  1  0  0  0  0  0999 V2000
    0.8178   -0.0507    0.0688 C   0  0  0  0  0  0  0  0  0  0  0  0
    2.3284   -0.0238    0.0528 C   0  0  0  0  0  0  0  0  0  0  0  0
    2.9362    0.3669    1.4000 C   0  0  0  0  0  0  0  0  0  0  0  0
    4.4734    0.3959    1.3741 C   0  0  1  0  0  0  0  0  0  0  0  0
    4.8748   -0.5806    1.0747 H   0  0  0  0  0  0  0  0  0  0  0  0
    5.0152    1.4892    0.4048 C   0  0  0  0  0  0  0  0  0  0  0  0
    5.5506    2.5322    0.7676 O   0  0  0  0  0  0  0  0  0  0  0  0
    4.8467    1.2351   -0.9149 O   0  0  0  0  0  0  0  0  0  0  0  0
    4.9922    0.6584    2.7247 N   0  0  0  0  0  0  0  0  0  0  0  0
    6.3562    0.6583    2.9263 C   0  0  0  0  0  0  0  0  0  0  0  0
    7.1461    0.3158    2.0506 O   0  0  0  0  0  0  0  0  0  0  0  0
    6.8008    1.1028    4.2983 C   0  0  0  0  0  0  0  0  0  0  0  0
    8.3294    1.1399    4.3693 C   0  0  0  0  0  0  0  0  0  0  0  0
    8.7852    1.5092    5.7526 C   0  0  0  0  0  0  0  0  0  0  0  0
    8.0303    1.7521    6.6884 O   0  0  0  0  0  0  0  0  0  0  0  0
   10.1276    1.5446    5.8911 O   0  0  0  0  0  0  0  0  0  0  0  0
    0.4526   -0.3087   -0.9308 H   0  0  0  0  0  0  0  0  0  0  0  0
    0.4314    0.9413    0.3220 H   0  0  0  0  0  0  0  0  0  0  0  0
    0.4376   -0.7807    0.7854 H   0  0  0  0  0  0  0  0  0  0  0  0
    2.5816    0.7203   -0.7037 H   0  0  0  0  0  0  0  0  0  0  0  0
    2.7246   -0.9939   -0.2707 H   0  0  0  0  0  0  0  0  0  0  0  0
    2.5941   -0.3438    2.1654 H   0  0  0  0  0  0  0  0  0  0  0  0
    2.5542    1.3509    1.6996 H   0  0  0  0  0  0  0  0  0  0  0  0
    4.4402    0.3809   -1.1469 H   0  0  0  0  0  0  0  0  0  0  0  0
    4.3704    0.9744    3.4604 H   0  0  0  0  0  0  0  0  0  0  0  0
    6.4016    0.3956    5.0345 H   0  0  0  0  0  0  0  0  0  0  0  0
    6.3873    2.0945    4.5215 H   0  0  0  0  0  0  0  0  0  0  0  0
    8.7216    1.8731    3.6539 H   0  0  0  0  0  0  0  0  0  0  0  0
    8.7371    0.1535    4.1171 H   0  0  0  0  0  0  0  0  0  0  0  0
   10.6289    1.3374    5.0788 H   0  0  0  0  0  0  0  0  0  0  0  0
  1  2  1  0  0  0  0
  1 17  1  0  0  0  0
  1 18  1  0  0  0  0
  1 19  1  0  0  0  0
  2  3  1  0  0  0  0
  2 20  1  0  0  0  0
  2 21  1  0  0  0  0
  3  4  1  0  0  0  0
  3 22  1  0  0  0  0
  3 23  1  0  0  0  0
  4  5  1  6  0  0  0
  4  6  1  0  0  0  0
  4  9  1  0  0  0  0
  6  7  2  0  0  0  0
  6  8  1  0  0  0  0
  8 24  1  0  0  0  0
  9 10  1  0  0  0  0
  9 25  1  0  0  0  0
 10 11  2  0  0  0  0
 10 12  1  0  0  0  0
 12 13  1  0  0  0  0
 12 26  1  0  0  0  0
 12 27  1  0  0  0  0
 13 14  1  0  0  0  0
 13 28  1  0  0  0  0
 13 29  1  0  0  0  0
 14 15  2  0  0  0  0
 14 16  1  0  0  0  0
 16 30  1  0  0  0  0
M  END
$$$$
