SN7
 OpenBabel04121316193D

 66 70  0  0  0  0  0  0  0  0999 V2000
    0.9553    0.1834   -0.0075 C   0  0  0  0  0  0  0  0  0  0  0  0
    2.4152    0.2386   -0.0409 N   0  3  0  0  0  0  0  0  0  0  0  0
    3.1056    1.4026   -0.0403 C   0  0  0  0  0  0  0  0  0  0  0  0
    4.4940    1.4076   -0.2291 C   0  0  0  0  0  0  0  0  0  0  0  0
    5.1930    0.2127   -0.2132 C   0  0  0  0  0  0  0  0  0  0  0  0
    4.4328   -0.9036    0.1338 C   0  0  0  0  0  0  0  0  0  0  0  0
    3.0669   -0.9247    0.0079 C   0  0  0  0  0  0  0  0  0  0  0  0
    6.5828    0.1664   -0.4648 N   0  0  0  0  0  0  0  0  0  0  0  0
    7.3822   -0.9640   -0.7337 C   0  0  0  0  0  0  0  0  0  0  0  0
    8.7439   -0.9084   -1.0458 C   0  0  0  0  0  0  0  0  0  0  0  0
    9.4478   -2.0953   -1.3440 C   0  0  0  0  0  0  0  0  0  0  0  0
    8.8448   -3.3243   -1.1025 C   0  0  0  0  0  0  0  0  0  0  0  0
    7.5950   -3.3480   -0.5556 C   0  0  0  0  0  0  0  0  0  0  0  0
    6.8472   -2.2274   -0.6266 C   0  0  0  0  0  0  0  0  0  0  0  0
    9.4249   -4.5347   -1.4734 N   0  0  0  0  0  0  0  0  0  0  0  0
    8.7396   -5.7248   -1.3830 C   0  0  0  0  0  0  0  0  0  0  0  0
    7.5527   -5.8923   -1.0503 O   0  0  0  0  0  0  0  0  0  0  0  0
    9.4251   -6.9437   -1.7396 C   0  0  0  0  0  0  0  0  0  0  0  0
   10.4640   -6.9407   -2.6815 C   0  0  0  0  0  0  0  0  0  0  0  0
   10.8723   -8.1462   -3.2183 C   0  0  0  0  0  0  0  0  0  0  0  0
   10.3697   -9.3221   -2.6794 C   0  0  0  0  0  0  0  0  0  0  0  0
    9.5857   -9.2553   -1.5272 C   0  0  0  0  0  0  0  0  0  0  0  0
    8.9167   -8.1213   -1.1845 C   0  0  0  0  0  0  0  0  0  0  0  0
    7.9647   -8.1954   -0.1454 N   0  0  0  0  0  0  0  0  0  0  0  0
   10.6571  -10.5494   -3.2746 N   0  0  0  0  0  0  0  0  0  0  0  0
   10.1285  -11.8126   -2.9607 C   0  0  0  0  0  0  0  0  0  0  0  0
    8.9287  -11.9506   -2.2643 C   0  0  0  0  0  0  0  0  0  0  0  0
    8.5963  -13.1349   -1.6612 C   0  0  0  0  0  0  0  0  0  0  0  0
    9.3135  -14.2423   -1.8990 N   0  3  0  0  0  0  0  0  0  0  0  0
   10.3965  -14.2100   -2.7304 C   0  0  0  0  0  0  0  0  0  0  0  0
   10.8560  -12.9695   -3.2352 C   0  0  0  0  0  0  0  0  0  0  0  0
   11.9999  -12.9341   -4.0530 C   0  0  0  0  0  0  0  0  0  0  0  0
   12.5509  -14.0986   -4.5616 C   0  0  0  0  0  0  0  0  0  0  0  0
   13.4770  -14.0206   -5.5951 N   0  0  0  0  0  0  0  0  0  0  0  0
   11.9767  -15.3082   -4.1966 C   0  0  0  0  0  0  0  0  0  0  0  0
   11.0360  -15.3702   -3.1676 C   0  0  0  0  0  0  0  0  0  0  0  0
    8.7995  -15.5011   -1.3437 C   0  0  0  0  0  0  0  0  0  0  0  0
    0.5527    1.1909    0.0622 H   0  0  0  0  0  0  0  0  0  0  0  0
    0.6681   -0.4149    0.8638 H   0  0  0  0  0  0  0  0  0  0  0  0
    0.6335   -0.3102   -0.9295 H   0  0  0  0  0  0  0  0  0  0  0  0
    2.5473    2.3169    0.1176 H   0  0  0  0  0  0  0  0  0  0  0  0
    5.0234    2.3505   -0.3363 H   0  0  0  0  0  0  0  0  0  0  0  0
    4.8444   -1.7994    0.5720 H   0  0  0  0  0  0  0  0  0  0  0  0
    2.5021   -1.8539    0.0436 H   0  0  0  0  0  0  0  0  0  0  0  0
    7.0167    1.0305   -0.7788 H   0  0  0  0  0  0  0  0  0  0  0  0
    9.2657    0.0396   -1.1284 H   0  0  0  0  0  0  0  0  0  0  0  0
   10.4492   -2.0459   -1.7601 H   0  0  0  0  0  0  0  0  0  0  0  0
    7.0473   -4.2119   -0.2157 H   0  0  0  0  0  0  0  0  0  0  0  0
    5.8121   -2.4883   -0.6523 H   0  0  0  0  0  0  0  0  0  0  0  0
   10.3387   -4.4955   -1.9012 H   0  0  0  0  0  0  0  0  0  0  0  0
   10.9183   -6.0310   -3.0521 H   0  0  0  0  0  0  0  0  0  0  0  0
   11.5825   -8.1541   -4.0404 H   0  0  0  0  0  0  0  0  0  0  0  0
    9.4156  -10.1124   -0.8952 H   0  0  0  0  0  0  0  0  0  0  0  0
    7.3894   -9.0308   -0.1404 H   0  0  0  0  0  0  0  0  0  0  0  0
    7.3601   -7.3597   -0.1704 H   0  0  0  0  0  0  0  0  0  0  0  0
   11.2154  -10.4784   -4.1183 H   0  0  0  0  0  0  0  0  0  0  0  0
    8.2321  -11.1268   -2.1419 H   0  0  0  0  0  0  0  0  0  0  0  0
    7.7294  -13.1962   -1.0079 H   0  0  0  0  0  0  0  0  0  0  0  0
   12.4382  -11.9935   -4.3766 H   0  0  0  0  0  0  0  0  0  0  0  0
   14.0641  -13.1895   -5.5887 H   0  0  0  0  0  0  0  0  0  0  0  0
   14.0249  -14.8620   -5.7499 H   0  0  0  0  0  0  0  0  0  0  0  0
   12.2662  -16.2246   -4.7038 H   0  0  0  0  0  0  0  0  0  0  0  0
   10.7822  -16.3485   -2.7772 H   0  0  0  0  0  0  0  0  0  0  0  0
    7.9167  -15.3038   -0.7292 H   0  0  0  0  0  0  0  0  0  0  0  0
    9.5831  -15.9436   -0.7274 H   0  0  0  0  0  0  0  0  0  0  0  0
    8.5122  -16.1322   -2.1874 H   0  0  0  0  0  0  0  0  0  0  0  0
  1  2  1  0  0  0  0
  1 38  1  0  0  0  0
  1 39  1  0  0  0  0
  1 40  1  0  0  0  0
  2  3  2  0  0  0  0
  2  7  1  0  0  0  0
  3  4  1  0  0  0  0
  3 41  1  0  0  0  0
  4  5  2  0  0  0  0
  4 42  1  0  0  0  0
  5  6  1  0  0  0  0
  5  8  1  0  0  0  0
  6  7  2  0  0  0  0
  6 43  1  0  0  0  0
  7 44  1  0  0  0  0
  8  9  1  0  0  0  0
  8 45  1  0  0  0  0
  9 10  2  0  0  0  0
  9 14  1  0  0  0  0
 10 11  1  0  0  0  0
 10 46  1  0  0  0  0
 11 12  2  0  0  0  0
 11 47  1  0  0  0  0
 12 13  1  0  0  0  0
 12 15  1  0  0  0  0
 13 14  2  0  0  0  0
 13 48  1  0  0  0  0
 14 49  1  0  0  0  0
 15 16  1  0  0  0  0
 15 50  1  0  0  0  0
 16 17  2  0  0  0  0
 16 18  1  0  0  0  0
 18 19  2  0  0  0  0
 18 23  1  0  0  0  0
 19 20  1  0  0  0  0
 19 51  1  0  0  0  0
 20 21  2  0  0  0  0
 20 52  1  0  0  0  0
 21 22  1  0  0  0  0
 21 25  1  0  0  0  0
 22 23  2  0  0  0  0
 22 53  1  0  0  0  0
 23 24  1  0  0  0  0
 24 54  1  0  0  0  0
 24 55  1  0  0  0  0
 25 26  1  0  0  0  0
 25 56  1  0  0  0  0
 26 27  2  0  0  0  0
 26 31  1  0  0  0  0
 27 28  1  0  0  0  0
 27 57  1  0  0  0  0
 28 29  2  0  0  0  0
 28 58  1  0  0  0  0
 29 30  1  0  0  0  0
 29 37  1  0  0  0  0
 30 31  2  0  0  0  0
 30 36  1  0  0  0  0
 31 32  1  0  0  0  0
 32 33  2  0  0  0  0
 32 59  1  0  0  0  0
 33 34  1  0  0  0  0
 33 35  1  0  0  0  0
 34 60  1  0  0  0  0
 34 61  1  0  0  0  0
 35 36  2  0  0  0  0
 35 62  1  0  0  0  0
 36 63  1  0  0  0  0
 37 64  1  0  0  0  0
 37 65  1  0  0  0  0
 37 66  1  0  0  0  0
M  CHG  2   2   1  29   1
M  END
$$$$
