SO2
 OpenBabel04121316193D

  3  2  0  0  0  0  0  0  0  0999 V2000
    0.8850    0.0708    0.0425 O   0  0  0  0  0  0  0  0  0  0  0  0
    2.4541    0.0306    0.0693 S   0  0  0  0  0  0  0  0  0  0  0  0
    3.0226   -1.1867    0.8811 O   0  0  0  0  0  0  0  0  0  0  0  0
  1  2  2  0  0  0  0
  2  3  2  0  0  0  0
M  END
$$$$
