SOA
 OpenBabel04121316193D

 18 18  0  0  0  0  0  0  0  0999 V2000
    0.9918    0.1223    0.1088 O   0  0  0  0  0  0  0  0  0  0  0  0
    2.4179    0.0170    0.1306 C   0  0  0  0  0  0  0  0  0  0  0  0
    2.8436   -1.3151    0.7017 C   0  0  0  0  0  0  0  0  0  0  0  0
    3.9815   -1.3809    1.5295 C   0  0  0  0  0  0  0  0  0  0  0  0
    4.4652   -2.6167    1.9698 C   0  0  0  0  0  0  0  0  0  0  0  0
    3.7789   -3.7813    1.6575 C   0  0  0  0  0  0  0  0  0  0  0  0
    2.6226   -3.7245    0.8768 C   0  0  0  0  0  0  0  0  0  0  0  0
    2.1681   -2.5016    0.3668 C   0  0  0  0  0  0  0  0  0  0  0  0
    1.2194   -2.5141   -0.6779 N   0  0  0  0  0  0  0  0  0  0  0  0
    0.7807    0.9663   -0.3226 H   0  0  0  0  0  0  0  0  0  0  0  0
    2.8028    0.8504    0.7261 H   0  0  0  0  0  0  0  0  0  0  0  0
    2.7899    0.1050   -0.8954 H   0  0  0  0  0  0  0  0  0  0  0  0
    4.5141   -0.4781    1.8119 H   0  0  0  0  0  0  0  0  0  0  0  0
    5.3863   -2.6665    2.5471 H   0  0  0  0  0  0  0  0  0  0  0  0
    4.1523   -4.7464    1.9927 H   0  0  0  0  0  0  0  0  0  0  0  0
    2.0895   -4.6395    0.6478 H   0  0  0  0  0  0  0  0  0  0  0  0
    0.5569   -3.2752   -0.6225 H   0  0  0  0  0  0  0  0  0  0  0  0
    0.7503   -1.6044   -0.7289 H   0  0  0  0  0  0  0  0  0  0  0  0
  1  2  1  0  0  0  0
  1 10  1  0  0  0  0
  2  3  1  0  0  0  0
  2 11  1  0  0  0  0
  2 12  1  0  0  0  0
  3  4  2  0  0  0  0
  3  8  1  0  0  0  0
  4  5  1  0  0  0  0
  4 13  1  0  0  0  0
  5  6  2  0  0  0  0
  5 14  1  0  0  0  0
  6  7  1  0  0  0  0
  6 15  1  0  0  0  0
  7  8  2  0  0  0  0
  7 16  1  0  0  0  0
  8  9  1  0  0  0  0
  9 17  1  0  0  0  0
  9 18  1  0  0  0  0
M  END
$$$$
