SOG
 OpenBabel04121316193D

 48 48  0  0  1  0  0  0  0  0999 V2000
   14.4388   15.5994    3.9888 C   0  0  0  0  0  0  0  0  0  0  0  0
   14.1165   14.3271    3.2262 C   0  0  0  0  0  0  0  0  0  0  0  0
   13.7260   13.2072    4.1838 C   0  0  0  0  0  0  0  0  0  0  0  0
   13.4019   11.9268    3.4220 C   0  0  0  0  0  0  0  0  0  0  0  0
   13.0150   10.8151    4.3897 C   0  0  0  0  0  0  0  0  0  0  0  0
   12.6904    9.5256    3.6436 C   0  0  0  0  0  0  0  0  0  0  0  0
   12.3127    8.4240    4.6356 C   0  0  0  0  0  0  0  0  0  0  0  0
   11.9601    7.1320    3.9090 C   0  0  0  0  0  0  0  0  0  0  0  0
   11.5549    5.8265    5.1255 S   0  0  0  0  0  0  0  0  0  0  0  0
   10.9949    4.4149    4.0642 C   0  0  2  0  0  0  0  0  0  0  0  0
    9.8993    4.4518    4.1113 H   0  0  0  0  0  0  0  0  0  0  0  0
   11.4219    3.1923    4.6976 O   0  0  0  0  0  0  0  0  0  0  0  0
   10.9828    1.9906    4.0481 C   0  0  2  0  0  0  0  0  0  0  0  0
    9.8850    1.9652    4.0547 H   0  0  0  0  0  0  0  0  0  0  0  0
   11.4760    0.7723    4.8521 C   0  0  0  0  0  0  0  0  0  0  0  0
   11.0655   -0.4722    4.2926 O   0  0  0  0  0  0  0  0  0  0  0  0
   11.4880    1.9484    2.5974 C   0  0  2  0  0  0  0  0  0  0  0  0
   12.5841    1.9143    2.5769 H   0  0  0  0  0  0  0  0  0  0  0  0
   11.0049    3.1961    1.8693 C   0  0  1  0  0  0  0  0  0  0  0  0
    9.9103    3.1783    1.7890 H   0  0  0  0  0  0  0  0  0  0  0  0
   11.4471    4.4703    2.5865 C   0  0  1  0  0  0  0  0  0  0  0  0
   12.5389    4.5522    2.5248 H   0  0  0  0  0  0  0  0  0  0  0  0
   10.8797    5.5841    1.8799 O   0  0  0  0  0  0  0  0  0  0  0  0
   11.4822    3.1789    0.5197 O   0  0  0  0  0  0  0  0  0  0  0  0
   11.0119    0.8277    1.8420 O   0  0  0  0  0  0  0  0  0  0  0  0
   14.7178   16.3974    3.2952 H   0  0  0  0  0  0  0  0  0  0  0  0
   15.2722   15.4377    4.6799 H   0  0  0  0  0  0  0  0  0  0  0  0
   13.5728   15.9350    4.5684 H   0  0  0  0  0  0  0  0  0  0  0  0
   14.9886   14.0250    2.6347 H   0  0  0  0  0  0  0  0  0  0  0  0
   13.2974   14.5199    2.5237 H   0  0  0  0  0  0  0  0  0  0  0  0
   12.8555   13.5135    4.7771 H   0  0  0  0  0  0  0  0  0  0  0  0
   14.5459   13.0193    4.8882 H   0  0  0  0  0  0  0  0  0  0  0  0
   14.2717   11.6170    2.8301 H   0  0  0  0  0  0  0  0  0  0  0  0
   12.5796   12.1107    2.7200 H   0  0  0  0  0  0  0  0  0  0  0  0
   12.1454   11.1274    4.9811 H   0  0  0  0  0  0  0  0  0  0  0  0
   13.8369   10.6360    5.0937 H   0  0  0  0  0  0  0  0  0  0  0  0
   13.5571    9.2135    3.0478 H   0  0  0  0  0  0  0  0  0  0  0  0
   11.8646    9.7029    2.9430 H   0  0  0  0  0  0  0  0  0  0  0  0
   11.4519    8.7602    5.2272 H   0  0  0  0  0  0  0  0  0  0  0  0
   13.1485    8.2582    5.3251 H   0  0  0  0  0  0  0  0  0  0  0  0
   12.8103    6.8114    3.2977 H   0  0  0  0  0  0  0  0  0  0  0  0
   11.0960    7.3434    3.2750 H   0  0  0  0  0  0  0  0  0  0  0  0
   11.1023    0.8158    5.8805 H   0  0  0  0  0  0  0  0  0  0  0  0
   12.5688    0.7721    4.9154 H   0  0  0  0  0  0  0  0  0  0  0  0
   10.1122   -0.4551    4.1410 H   0  0  0  0  0  0  0  0  0  0  0  0
    9.9133    5.5050    1.8846 H   0  0  0  0  0  0  0  0  0  0  0  0
   11.3499    2.2651    0.1988 H   0  0  0  0  0  0  0  0  0  0  0  0
   10.0712    0.6931    2.0292 H   0  0  0  0  0  0  0  0  0  0  0  0
  1  2  1  0  0  0  0
  1 26  1  0  0  0  0
  1 27  1  0  0  0  0
  1 28  1  0  0  0  0
  2  3  1  0  0  0  0
  2 29  1  0  0  0  0
  2 30  1  0  0  0  0
  3  4  1  0  0  0  0
  3 31  1  0  0  0  0
  3 32  1  0  0  0  0
  4  5  1  0  0  0  0
  4 33  1  0  0  0  0
  4 34  1  0  0  0  0
  5  6  1  0  0  0  0
  5 35  1  0  0  0  0
  5 36  1  0  0  0  0
  6  7  1  0  0  0  0
  6 37  1  0  0  0  0
  6 38  1  0  0  0  0
  7  8  1  0  0  0  0
  7 39  1  0  0  0  0
  7 40  1  0  0  0  0
  8  9  1  0  0  0  0
  8 41  1  0  0  0  0
  8 42  1  0  0  0  0
 10 12  1  0  0  0  0
 10 21  1  0  0  0  0
 10 11  1  1  0  0  0
 10  9  1  0  0  0  0
 12 13  1  0  0  0  0
 13 14  1  6  0  0  0
 13 15  1  0  0  0  0
 13 17  1  0  0  0  0
 15 16  1  0  0  0  0
 15 43  1  0  0  0  0
 15 44  1  0  0  0  0
 16 45  1  0  0  0  0
 17 19  1  0  0  0  0
 17 25  1  0  0  0  0
 17 18  1  1  0  0  0
 19 20  1  6  0  0  0
 19 21  1  0  0  0  0
 19 24  1  0  0  0  0
 21 23  1  0  0  0  0
 21 22  1  6  0  0  0
 23 46  1  0  0  0  0
 24 47  1  0  0  0  0
 25 48  1  0  0  0  0
M  END
$$$$
