SOR
 OpenBabel04121316193D

 26 25  0  0  1  0  0  0  0  0999 V2000
   -0.0192   -1.8108    1.9163 O   0  0  0  0  0  0  0  0  0  0  0  0
    0.9248   -2.8663    2.1073 C   0  0  0  0  0  0  0  0  0  0  0  0
    2.3722   -2.4124    1.8131 C   0  0  2  0  0  0  0  0  0  0  0  0
    2.6571   -2.8375    0.8421 H   0  0  0  0  0  0  0  0  0  0  0  0
    3.4571   -2.8851    2.8279 C   0  0  2  0  0  0  0  0  0  0  0  0
    3.8331   -3.8512    2.4709 H   0  0  0  0  0  0  0  0  0  0  0  0
    2.9849   -3.0968    4.2855 C   0  0  1  0  0  0  0  0  0  0  0  0
    3.8831   -3.3642    4.8469 H   0  0  0  0  0  0  0  0  0  0  0  0
    2.3737   -1.7903    4.8819 C   0  0  2  0  0  0  0  0  0  0  0  0
    2.6544   -0.9445    4.2443 H   0  0  0  0  0  0  0  0  0  0  0  0
    2.9310   -1.5038    6.2756 C   0  0  0  0  0  0  0  0  0  0  0  0
    4.3483   -1.3681    6.2488 O   0  0  0  0  0  0  0  0  0  0  0  0
    0.9440   -1.8140    4.9539 O   0  0  0  0  0  0  0  0  0  0  0  0
    2.1506   -4.2504    4.4414 O   0  0  0  0  0  0  0  0  0  0  0  0
    4.6003   -2.0083    2.7887 O   0  0  0  0  0  0  0  0  0  0  0  0
    2.4251   -0.9899    1.6264 O   0  0  0  0  0  0  0  0  0  0  0  0
   -0.6831   -1.9407    2.6234 H   0  0  0  0  0  0  0  0  0  0  0  0
    0.6463   -3.6979    1.4565 H   0  0  0  0  0  0  0  0  0  0  0  0
    0.7701   -3.2350    3.1124 H   0  0  0  0  0  0  0  0  0  0  0  0
    2.6409   -2.2833    6.9880 H   0  0  0  0  0  0  0  0  0  0  0  0
    2.5121   -0.5616    6.6450 H   0  0  0  0  0  0  0  0  0  0  0  0
    4.7343   -2.2596    6.2341 H   0  0  0  0  0  0  0  0  0  0  0  0
    0.6545   -0.8836    5.0130 H   0  0  0  0  0  0  0  0  0  0  0  0
    2.4880   -4.9658    3.8652 H   0  0  0  0  0  0  0  0  0  0  0  0
    5.0986   -2.0568    3.6240 H   0  0  0  0  0  0  0  0  0  0  0  0
    1.6430   -0.7713    1.0830 H   0  0  0  0  0  0  0  0  0  0  0  0
  1  2  1  0  0  0  0
  1 17  1  0  0  0  0
  2 18  1  0  0  0  0
  2 19  1  0  0  0  0
  3 16  1  0  0  0  0
  3  4  1  6  0  0  0
  3  2  1  0  0  0  0
  5  7  1  0  0  0  0
  5 15  1  0  0  0  0
  5  6  1  6  0  0  0
  5  3  1  0  0  0  0
  7  8  1  1  0  0  0
  7 14  1  0  0  0  0
  9 11  1  0  0  0  0
  9 13  1  0  0  0  0
  9 10  1  6  0  0  0
  9  7  1  0  0  0  0
 11 12  1  0  0  0  0
 11 20  1  0  0  0  0
 11 21  1  0  0  0  0
 12 22  1  0  0  0  0
 13 23  1  0  0  0  0
 14 24  1  0  0  0  0
 15 25  1  0  0  0  0
 16 26  1  0  0  0  0
M  END
$$$$
