SOX
 OpenBabel04121316193D

 44 46  0  0  1  0  0  0  0  0999 V2000
    3.3044   -0.8512    1.2690 O   0  0  0  0  0  0  0  0  0  0  0  0
    2.7652    0.0656    0.0687 S   0  0  2  0  0  0  0  0  0  0  0  0
    1.4284   -0.0375    0.0011 H   0  0  0  0  0  0  0  0  0  0  0  0
    3.5235   -0.3591   -1.4816 C   0  0  2  0  0  0  0  0  0  0  0  0
    2.8296   -0.8303   -2.1865 H   0  0  0  0  0  0  0  0  0  0  0  0
    5.0078   -0.7352   -1.6818 C   0  0  2  0  0  0  0  0  0  0  0  0
    5.2005   -1.3901   -2.5422 H   0  0  0  0  0  0  0  0  0  0  0  0
    5.6547   -1.3125   -0.4711 N   0  0  0  0  0  0  0  0  0  0  0  0
    5.1854   -2.5518   -0.1147 C   0  0  0  0  0  0  0  0  0  0  0  0
    4.2682   -3.0359   -0.7756 O   0  0  0  0  0  0  0  0  0  0  0  0
    5.7685   -3.1543    1.1472 C   0  0  0  0  0  0  0  0  0  0  0  0
    5.1454   -4.4803    1.5006 C   0  0  0  0  0  0  0  0  0  0  0  0
    4.9653   -4.8334    2.8395 C   0  0  0  0  0  0  0  0  0  0  0  0
    4.5188   -6.1133    3.1622 C   0  0  0  0  0  0  0  0  0  0  0  0
    4.1134   -6.9920    2.1577 C   0  0  0  0  0  0  0  0  0  0  0  0
    4.1629   -6.5997    0.8289 C   0  0  0  0  0  0  0  0  0  0  0  0
    4.7625   -5.3939    0.5039 C   0  0  0  0  0  0  0  0  0  0  0  0
    5.2221    0.7228   -2.0521 C   0  0  0  0  0  0  0  0  0  0  0  0
    6.2073    1.4332   -2.1856 O   0  0  0  0  0  0  0  0  0  0  0  0
    3.8962    1.0277   -1.9269 N   0  0  0  0  0  0  0  0  0  0  0  0
    3.4795    2.1903   -1.1137 C   0  0  2  0  0  0  0  0  0  0  0  0
    4.2164    2.9954   -1.2310 H   0  0  0  0  0  0  0  0  0  0  0  0
    3.4697    1.6945    0.3511 C   0  0  0  0  0  0  0  0  0  0  0  0
    2.6736    2.5706    1.3077 C   0  0  0  0  0  0  0  0  0  0  0  0
    4.8941    1.6379    0.9469 C   0  0  0  0  0  0  0  0  0  0  0  0
    2.1429    2.7303   -1.6762 C   0  0  0  0  0  0  0  0  0  0  0  0
    2.0984    3.5967   -2.5416 O   0  0  0  0  0  0  0  0  0  0  0  0
    0.9898    2.1692   -1.2535 O   0  0  0  0  0  0  0  0  0  0  0  0
    4.2546   -1.0537    1.3350 H   0  0  0  0  0  0  0  0  0  0  0  0
    6.4172   -0.8547    0.0170 H   0  0  0  0  0  0  0  0  0  0  0  0
    5.6061   -2.4469    1.9723 H   0  0  0  0  0  0  0  0  0  0  0  0
    6.8499   -3.2711    1.0262 H   0  0  0  0  0  0  0  0  0  0  0  0
    5.1754   -4.1243    3.6366 H   0  0  0  0  0  0  0  0  0  0  0  0
    4.4753   -6.4238    4.2012 H   0  0  0  0  0  0  0  0  0  0  0  0
    3.7525   -7.9833    2.4083 H   0  0  0  0  0  0  0  0  0  0  0  0
    3.7542   -7.2232    0.0395 H   0  0  0  0  0  0  0  0  0  0  0  0
    4.8796   -5.1640   -0.5535 H   0  0  0  0  0  0  0  0  0  0  0  0
    1.6307    2.7099    1.0314 H   0  0  0  0  0  0  0  0  0  0  0  0
    3.1332    3.5659    1.3617 H   0  0  0  0  0  0  0  0  0  0  0  0
    2.6824    2.1452    2.3169 H   0  0  0  0  0  0  0  0  0  0  0  0
    5.6063    1.0566    0.3710 H   0  0  0  0  0  0  0  0  0  0  0  0
    4.8875    1.2072    1.9540 H   0  0  0  0  0  0  0  0  0  0  0  0
    5.3212    2.6453    1.0166 H   0  0  0  0  0  0  0  0  0  0  0  0
    1.0149    1.5357   -0.5215 H   0  0  0  0  0  0  0  0  0  0  0  0
  1 29  1  0  0  0  0
  2  4  1  0  0  0  0
  2 23  1  0  0  0  0
  2  3  1  6  0  0  0
  2  1  1  0  0  0  0
  4  5  1  6  0  0  0
  4  6  1  0  0  0  0
  4 20  1  0  0  0  0
  6 18  1  0  0  0  0
  6  8  1  0  0  0  0
  6  7  1  6  0  0  0
  8  9  1  0  0  0  0
  8 30  1  0  0  0  0
  9 10  2  0  0  0  0
  9 11  1  0  0  0  0
 11 12  1  0  0  0  0
 11 31  1  0  0  0  0
 11 32  1  0  0  0  0
 12 13  2  0  0  0  0
 12 17  1  0  0  0  0
 13 14  1  0  0  0  0
 13 33  1  0  0  0  0
 14 15  2  0  0  0  0
 14 34  1  0  0  0  0
 15 16  1  0  0  0  0
 15 35  1  0  0  0  0
 16 17  2  0  0  0  0
 16 36  1  0  0  0  0
 17 37  1  0  0  0  0
 18 19  2  0  0  0  0
 18 20  1  0  0  0  0
 20 21  1  0  0  0  0
 21 23  1  0  0  0  0
 21 26  1  0  0  0  0
 21 22  1  6  0  0  0
 23 24  1  0  0  0  0
 23 25  1  0  0  0  0
 24 38  1  0  0  0  0
 24 39  1  0  0  0  0
 24 40  1  0  0  0  0
 25 41  1  0  0  0  0
 25 42  1  0  0  0  0
 25 43  1  0  0  0  0
 26 27  2  0  0  0  0
 26 28  1  0  0  0  0
 28 44  1  0  0  0  0
M  END
$$$$
