SP0
 OpenBabel04121316193D

 41 44  0  0  0  0  0  0  0  0999 V2000
    0.8611    0.0295    0.1579 F   0  0  0  0  0  0  0  0  0  0  0  0
    2.1952    0.0282    0.0852 C   0  0  0  0  0  0  0  0  0  0  0  0
    2.8967    1.2293    0.0828 C   0  0  0  0  0  0  0  0  0  0  0  0
    4.2776    1.2253   -0.1202 C   0  0  0  0  0  0  0  0  0  0  0  0
    4.9608    0.0055   -0.1634 C   0  0  0  0  0  0  0  0  0  0  0  0
    4.2458   -1.1740    0.0713 C   0  0  0  0  0  0  0  0  0  0  0  0
    2.8607   -1.1813    0.0629 C   0  0  0  0  0  0  0  0  0  0  0  0
    6.3498   -0.0181   -0.4640 N   0  0  0  0  0  0  0  0  0  0  0  0
    7.0332    1.1427   -0.6564 N   0  0  0  0  0  0  0  0  0  0  0  0
    8.2782    0.7544   -0.9360 C   0  0  0  0  0  0  0  0  0  0  0  0
    8.4096   -0.6397   -0.9524 C   0  0  0  0  0  0  0  0  0  0  0  0
    7.1679   -1.1275   -0.6713 C   0  0  0  0  0  0  0  0  0  0  0  0
    6.8531   -2.4753   -0.6714 N   0  0  0  0  0  0  0  0  0  0  0  0
    7.9345   -3.6641   -0.8693 S   0  0  0  0  0  0  0  0  0  0  0  0
    8.3721   -3.6794   -2.2440 O   0  0  0  0  0  0  0  0  0  0  0  0
    8.8960   -3.6437    0.2196 O   0  0  0  0  0  0  0  0  0  0  0  0
    6.9895   -5.1637   -0.6532 C   0  0  0  0  0  0  0  0  0  0  0  0
    7.7109   -6.3623   -0.6361 C   0  0  0  0  0  0  0  0  0  0  0  0
    7.0320   -7.5785   -0.5639 C   0  0  0  0  0  0  0  0  0  0  0  0
    5.6400   -7.6025   -0.6210 C   0  0  0  0  0  0  0  0  0  0  0  0
    4.9375   -6.4075   -0.6186 C   0  0  0  0  0  0  0  0  0  0  0  0
    5.5945   -5.1852   -0.5657 C   0  0  0  0  0  0  0  0  0  0  0  0
    3.6005   -6.4179   -0.6819 F   0  0  0  0  0  0  0  0  0  0  0  0
    9.4212    1.6622   -1.2021 C   0  0  0  0  0  0  0  0  0  0  0  0
    9.3905    3.0370   -1.2089 C   0  0  0  0  0  0  0  0  0  0  0  0
   10.6869    3.5760   -1.4783 C   0  0  0  0  0  0  0  0  0  0  0  0
   11.6344    2.5952   -1.6684 C   0  0  0  0  0  0  0  0  0  0  0  0
   10.9821    1.0392   -1.5309 S   0  0  0  0  0  0  0  0  0  0  0  0
    2.3629    2.1627    0.2236 H   0  0  0  0  0  0  0  0  0  0  0  0
    4.7998    2.1756   -0.2288 H   0  0  0  0  0  0  0  0  0  0  0  0
    4.7047   -2.1054    0.3486 H   0  0  0  0  0  0  0  0  0  0  0  0
    2.3124   -2.1175    0.0978 H   0  0  0  0  0  0  0  0  0  0  0  0
    9.3015   -1.2044   -1.1808 H   0  0  0  0  0  0  0  0  0  0  0  0
    5.9011   -2.7360   -0.7389 H   0  0  0  0  0  0  0  0  0  0  0  0
    8.7992   -6.3559   -0.6903 H   0  0  0  0  0  0  0  0  0  0  0  0
    7.5887   -8.5091   -0.4867 H   0  0  0  0  0  0  0  0  0  0  0  0
    5.0993   -8.5431   -0.6618 H   0  0  0  0  0  0  0  0  0  0  0  0
    4.9555   -4.3207   -0.4786 H   0  0  0  0  0  0  0  0  0  0  0  0
    8.4992    3.6285   -1.0261 H   0  0  0  0  0  0  0  0  0  0  0  0
   10.9172    4.6313   -1.5290 H   0  0  0  0  0  0  0  0  0  0  0  0
   12.6866    2.6945   -1.8835 H   0  0  0  0  0  0  0  0  0  0  0  0
  1  2  1  0  0  0  0
  2  3  2  0  0  0  0
  2  7  1  0  0  0  0
  3  4  1  0  0  0  0
  3 29  1  0  0  0  0
  4  5  2  0  0  0  0
  4 30  1  0  0  0  0
  5  6  1  0  0  0  0
  5  8  1  0  0  0  0
  6  7  2  0  0  0  0
  6 31  1  0  0  0  0
  7 32  1  0  0  0  0
  8  9  1  0  0  0  0
  8 12  1  0  0  0  0
  9 10  2  0  0  0  0
 10 11  1  0  0  0  0
 10 24  1  0  0  0  0
 11 12  2  0  0  0  0
 11 33  1  0  0  0  0
 12 13  1  0  0  0  0
 13 14  1  0  0  0  0
 13 34  1  0  0  0  0
 14 15  2  0  0  0  0
 14 16  2  0  0  0  0
 14 17  1  0  0  0  0
 17 18  2  0  0  0  0
 17 22  1  0  0  0  0
 18 19  1  0  0  0  0
 18 35  1  0  0  0  0
 19 20  2  0  0  0  0
 19 36  1  0  0  0  0
 20 21  1  0  0  0  0
 20 37  1  0  0  0  0
 21 22  2  0  0  0  0
 21 23  1  0  0  0  0
 22 38  1  0  0  0  0
 24 25  2  0  0  0  0
 24 28  1  0  0  0  0
 25 26  1  0  0  0  0
 25 39  1  0  0  0  0
 26 27  2  0  0  0  0
 26 40  1  0  0  0  0
 27 28  1  0  0  0  0
 27 41  1  0  0  0  0
M  END
$$$$
