SPB
 OpenBabel04121316193D

 42 43  0  0  0  0  0  0  0  0999 V2000
    0.9143   -0.0563    0.0183 O   0  0  0  0  0  0  0  0  0  0  0  0
    2.1423   -0.0852   -0.0470 C   0  0  0  0  0  0  0  0  0  0  0  0
    2.8467   -0.2628   -1.2133 N   0  0  0  0  0  0  0  0  0  0  0  0
    2.1957   -0.3565   -2.4312 C   0  0  0  0  0  0  0  0  0  0  0  0
    1.9590   -1.6202   -2.9595 C   0  0  0  0  0  0  0  0  0  0  0  0
    1.4580   -1.7225   -4.2450 C   0  0  0  0  0  0  0  0  0  0  0  0
    1.1051   -0.5621   -4.9432 C   0  0  0  0  0  0  0  0  0  0  0  0
    1.2357    0.6921   -4.3347 C   0  0  0  0  0  0  0  0  0  0  0  0
    1.8507    0.8049   -3.1046 C   0  0  0  0  0  0  0  0  0  0  0  0
    0.6536   -0.7084   -6.3181 C   0  0  0  0  0  0  0  0  0  0  0  0
    0.2800    0.3172   -7.0935 C   0  0  0  0  0  0  0  0  0  0  0  0
   -0.1038    0.1680   -8.4902 C   0  0  0  0  0  0  0  0  0  0  0  0
   -0.2597   -1.0865   -9.0872 C   0  0  0  0  0  0  0  0  0  0  0  0
   -0.4327   -1.1904  -10.4576 C   0  0  0  0  0  0  0  0  0  0  0  0
   -0.5994   -0.0375  -11.2161 C   0  0  0  0  0  0  0  0  0  0  0  0
   -0.5958    1.2156  -10.6046 C   0  0  0  0  0  0  0  0  0  0  0  0
   -0.2922    1.3237   -9.2525 C   0  0  0  0  0  0  0  0  0  0  0  0
    2.9719    0.0403    1.2145 C   0  0  0  0  0  0  0  0  0  0  0  0
    4.4752    0.0211    0.9941 C   0  0  0  0  0  0  0  0  0  0  0  0
    5.2744    0.1399    2.2844 C   0  0  0  0  0  0  0  0  0  0  0  0
    6.7469    0.1085    1.9507 C   0  0  0  0  0  0  0  0  0  0  0  0
    7.1976    0.0034    0.8122 O   0  0  0  0  0  0  0  0  0  0  0  0
    7.5487    0.2076    3.0273 O   0  0  0  0  0  0  0  0  0  0  0  0
    3.8544   -0.1940   -1.2687 H   0  0  0  0  0  0  0  0  0  0  0  0
    2.1627   -2.5138   -2.3793 H   0  0  0  0  0  0  0  0  0  0  0  0
    1.3455   -2.7067   -4.6935 H   0  0  0  0  0  0  0  0  0  0  0  0
    0.8830    1.6020   -4.8061 H   0  0  0  0  0  0  0  0  0  0  0  0
    2.0367    1.7880   -2.6862 H   0  0  0  0  0  0  0  0  0  0  0  0
    0.6923   -1.7233   -6.6992 H   0  0  0  0  0  0  0  0  0  0  0  0
    0.2987    1.3392   -6.7322 H   0  0  0  0  0  0  0  0  0  0  0  0
   -0.2273   -2.0017   -8.5052 H   0  0  0  0  0  0  0  0  0  0  0  0
   -0.4384   -2.1729  -10.9181 H   0  0  0  0  0  0  0  0  0  0  0  0
   -0.7424   -0.1196  -12.2876 H   0  0  0  0  0  0  0  0  0  0  0  0
   -0.8097    2.1094  -11.1814 H   0  0  0  0  0  0  0  0  0  0  0  0
   -0.1960    2.3101   -8.8027 H   0  0  0  0  0  0  0  0  0  0  0  0
    2.6830   -0.7910    1.8668 H   0  0  0  0  0  0  0  0  0  0  0  0
    2.6800    0.9791    1.6975 H   0  0  0  0  0  0  0  0  0  0  0  0
    4.7562    0.8450    0.3237 H   0  0  0  0  0  0  0  0  0  0  0  0
    4.7584   -0.9128    0.4889 H   0  0  0  0  0  0  0  0  0  0  0  0
    5.0349   -0.6978    2.9477 H   0  0  0  0  0  0  0  0  0  0  0  0
    5.0350    1.0844    2.7837 H   0  0  0  0  0  0  0  0  0  0  0  0
    7.0797    0.2861    3.8790 H   0  0  0  0  0  0  0  0  0  0  0  0
  1  2  2  0  0  0  0
  2  3  1  0  0  0  0
  2 18  1  0  0  0  0
  3  4  1  0  0  0  0
  3 24  1  0  0  0  0
  4  5  2  0  0  0  0
  4  9  1  0  0  0  0
  5  6  1  0  0  0  0
  5 25  1  0  0  0  0
  6  7  2  0  0  0  0
  6 26  1  0  0  0  0
  7  8  1  0  0  0  0
  7 10  1  0  0  0  0
  8  9  2  0  0  0  0
  8 27  1  0  0  0  0
  9 28  1  0  0  0  0
 10 11  2  0  0  0  0
 10 29  1  0  0  0  0
 11 12  1  0  0  0  0
 11 30  1  0  0  0  0
 12 13  2  0  0  0  0
 12 17  1  0  0  0  0
 13 14  1  0  0  0  0
 13 31  1  0  0  0  0
 14 15  2  0  0  0  0
 14 32  1  0  0  0  0
 15 16  1  0  0  0  0
 15 33  1  0  0  0  0
 16 17  2  0  0  0  0
 16 34  1  0  0  0  0
 17 35  1  0  0  0  0
 18 19  1  0  0  0  0
 18 36  1  0  0  0  0
 18 37  1  0  0  0  0
 19 20  1  0  0  0  0
 19 38  1  0  0  0  0
 19 39  1  0  0  0  0
 20 21  1  0  0  0  0
 20 40  1  0  0  0  0
 20 41  1  0  0  0  0
 21 22  2  0  0  0  0
 21 23  1  0  0  0  0
 23 42  1  0  0  0  0
M  END
$$$$
