SPK
 OpenBabel04121316193D

 44 43  0  0  0  0  0  0  0  0999 V2000
    0.9905    0.1026    0.0425 N   0  3  0  0  0  0  0  0  0  0  0  0
    0.5745    0.4492   -0.8336 H   0  0  0  0  0  0  0  0  0  0  0  0
    0.5745   -0.8187    0.2399 H   0  0  0  0  0  0  0  0  0  0  0  0
    0.6247    0.7302    0.7837 H   0  0  0  0  0  0  0  0  0  0  0  0
    2.4679    0.1045    0.0447 C   0  0  0  0  0  0  0  0  0  0  0  0
    2.9958   -0.8217   -1.0492 C   0  0  0  0  0  0  0  0  0  0  0  0
    4.5180   -0.8105   -1.0359 C   0  0  0  0  0  0  0  0  0  0  0  0
    5.0431   -1.7153   -2.1045 N   0  3  0  0  0  0  0  0  0  0  0  0
    4.6922   -2.6764   -1.9645 H   0  0  0  0  0  0  0  0  0  0  0  0
    4.6922   -1.4186   -3.0295 H   0  0  0  0  0  0  0  0  0  0  0  0
    6.5347   -1.7268   -2.1182 C   0  0  0  0  0  0  0  0  0  0  0  0
    7.0175   -2.6558   -3.2154 C   0  0  0  0  0  0  0  0  0  0  0  0
    8.5438   -2.6788   -3.2425 C   0  0  0  0  0  0  0  0  0  0  0  0
    9.0266   -3.6077   -4.3396 C   0  0  0  0  0  0  0  0  0  0  0  0
   10.5181   -3.6193   -4.3534 N   0  3  0  0  0  0  0  0  0  0  0  0
   10.8690   -2.6582   -4.4934 H   0  0  0  0  0  0  0  0  0  0  0  0
   10.8691   -3.9160   -3.4284 H   0  0  0  0  0  0  0  0  0  0  0  0
   11.0432   -4.5241   -5.4219 C   0  0  0  0  0  0  0  0  0  0  0  0
   12.5655   -4.5129   -5.4087 C   0  0  0  0  0  0  0  0  0  0  0  0
   13.0934   -5.4391   -6.5026 C   0  0  0  0  0  0  0  0  0  0  0  0
   14.5708   -5.4371   -6.5003 N   0  3  0  0  0  0  0  0  0  0  0  0
   14.9868   -4.5159   -6.6978 H   0  0  0  0  0  0  0  0  0  0  0  0
   14.9868   -5.7838   -5.6243 H   0  0  0  0  0  0  0  0  0  0  0  0
   14.9366   -6.0647   -7.2415 H   0  0  0  0  0  0  0  0  0  0  0  0
    2.7931   -0.2272    1.0352 H   0  0  0  0  0  0  0  0  0  0  0  0
    2.7931    1.1361   -0.1191 H   0  0  0  0  0  0  0  0  0  0  0  0
    2.6312   -0.4971   -2.0313 H   0  0  0  0  0  0  0  0  0  0  0  0
    2.6312   -1.8439   -0.8910 H   0  0  0  0  0  0  0  0  0  0  0  0
    4.9124   -1.1778   -0.0828 H   0  0  0  0  0  0  0  0  0  0  0  0
    4.9124    0.1902   -1.2410 H   0  0  0  0  0  0  0  0  0  0  0  0
    6.8709   -2.0687   -1.1339 H   0  0  0  0  0  0  0  0  0  0  0  0
    6.8709   -0.6996   -2.2931 H   0  0  0  0  0  0  0  0  0  0  0  0
    6.6342   -2.3232   -4.1882 H   0  0  0  0  0  0  0  0  0  0  0  0
    6.6342   -3.6701   -3.0477 H   0  0  0  0  0  0  0  0  0  0  0  0
    8.9271   -3.0114   -2.2697 H   0  0  0  0  0  0  0  0  0  0  0  0
    8.9271   -1.6644   -3.4101 H   0  0  0  0  0  0  0  0  0  0  0  0
    8.6904   -3.2659   -5.3240 H   0  0  0  0  0  0  0  0  0  0  0  0
    8.6904   -4.6350   -4.1648 H   0  0  0  0  0  0  0  0  0  0  0  0
   10.6489   -4.1568   -6.3751 H   0  0  0  0  0  0  0  0  0  0  0  0
   10.6489   -5.5247   -5.2169 H   0  0  0  0  0  0  0  0  0  0  0  0
   12.9301   -4.8375   -4.4266 H   0  0  0  0  0  0  0  0  0  0  0  0
   12.9301   -3.4907   -5.5669 H   0  0  0  0  0  0  0  0  0  0  0  0
   12.7682   -5.1074   -7.4931 H   0  0  0  0  0  0  0  0  0  0  0  0
   12.7682   -6.4707   -6.3388 H   0  0  0  0  0  0  0  0  0  0  0  0
  1  2  1  0  0  0  0
  1  3  1  0  0  0  0
  1  4  1  0  0  0  0
  1  5  1  0  0  0  0
  5  6  1  0  0  0  0
  5 25  1  0  0  0  0
  5 26  1  0  0  0  0
  6  7  1  0  0  0  0
  6 27  1  0  0  0  0
  6 28  1  0  0  0  0
  7  8  1  0  0  0  0
  7 29  1  0  0  0  0
  7 30  1  0  0  0  0
  8  9  1  0  0  0  0
  8 10  1  0  0  0  0
  8 11  1  0  0  0  0
 11 12  1  0  0  0  0
 11 31  1  0  0  0  0
 11 32  1  0  0  0  0
 12 13  1  0  0  0  0
 12 33  1  0  0  0  0
 12 34  1  0  0  0  0
 13 14  1  0  0  0  0
 13 35  1  0  0  0  0
 13 36  1  0  0  0  0
 14 15  1  0  0  0  0
 14 37  1  0  0  0  0
 14 38  1  0  0  0  0
 15 16  1  0  0  0  0
 15 17  1  0  0  0  0
 15 18  1  0  0  0  0
 18 19  1  0  0  0  0
 18 39  1  0  0  0  0
 18 40  1  0  0  0  0
 19 20  1  0  0  0  0
 19 41  1  0  0  0  0
 19 42  1  0  0  0  0
 20 21  1  0  0  0  0
 20 43  1  0  0  0  0
 20 44  1  0  0  0  0
 21 22  1  0  0  0  0
 21 23  1  0  0  0  0
 21 24  1  0  0  0  0
M  CHG  4   1   1   8   1  15   1  21   1
M  END
$$$$
