SPP
 OpenBabel04121316193D

 60 63  0  0  0  0  0  0  0  0999 V2000
    0.8606   -0.3473   -0.1250 C   0  0  0  0  0  0  0  0  0  0  0  0
    2.3918   -0.4999   -0.0997 C   0  0  0  0  0  0  0  0  0  0  0  0
    2.7421   -1.3136    1.0277 N   0  0  0  0  0  0  0  0  0  0  0  0
    2.5790   -0.7211    2.3240 C   0  0  0  0  0  0  0  0  0  0  0  0
    2.3883   -1.7378    3.2855 C   0  0  0  0  0  0  0  0  0  0  0  0
    2.3864   -1.4670    4.6356 C   0  0  0  0  0  0  0  0  0  0  0  0
    2.3987   -0.1416    4.9971 C   0  0  0  0  0  0  0  0  0  0  0  0
    2.5663    0.8918    4.1270 N   0  0  0  0  0  0  0  0  0  0  0  0
    2.7150    0.6428    2.7907 C   0  0  0  0  0  0  0  0  0  0  0  0
    3.0041    1.7719    2.0369 N   0  0  0  0  0  0  0  0  0  0  0  0
    2.3817    2.1567    0.7775 C   0  0  0  0  0  0  0  0  0  0  0  0
    1.7553    3.5126    0.7088 C   0  0  0  0  0  0  0  0  0  0  0  0
    2.7634    4.4839    1.0578 N   0  0  0  0  0  0  0  0  0  0  0  0
    3.3787    4.2129    2.3693 C   0  0  0  0  0  0  0  0  0  0  0  0
    3.9842    2.7744    2.4789 C   0  0  0  0  0  0  0  0  0  0  0  0
    3.1192    5.4195    0.1019 C   0  0  0  0  0  0  0  0  0  0  0  0
    2.6173    5.4004   -1.0198 O   0  0  0  0  0  0  0  0  0  0  0  0
    4.0607    6.4553    0.4592 C   0  0  0  0  0  0  0  0  0  0  0  0
    3.7892    7.8025    0.6396 C   0  0  0  0  0  0  0  0  0  0  0  0
    5.0037    8.5263    0.4766 C   0  0  0  0  0  0  0  0  0  0  0  0
    6.0180    7.5756    0.3852 C   0  0  0  0  0  0  0  0  0  0  0  0
    5.4307    6.3309    0.4993 N   0  0  0  0  0  0  0  0  0  0  0  0
    5.9415    5.4589    0.4798 H   0  0  0  0  0  0  0  0  0  0  0  0
    7.3513    7.9335    0.1890 C   0  0  0  0  0  0  0  0  0  0  0  0
    7.6437    9.2964    0.0487 C   0  0  0  0  0  0  0  0  0  0  0  0
    6.6628   10.2894    0.1206 C   0  0  0  0  0  0  0  0  0  0  0  0
    5.3315    9.9022    0.3515 C   0  0  0  0  0  0  0  0  0  0  0  0
    6.9745   11.6896   -0.0419 N   0  0  0  0  0  0  0  0  0  0  0  0
    8.5536   12.1881   -0.3192 S   0  0  0  0  0  0  0  0  0  0  0  0
    9.3268   11.8824    0.8757 O   0  0  0  0  0  0  0  0  0  0  0  0
    8.9614   11.6942   -1.6106 O   0  0  0  0  0  0  0  0  0  0  0  0
    8.4669   13.9608   -0.4362 C   0  0  0  0  0  0  0  0  0  0  0  0
    2.9445   -0.8599   -1.4536 C   0  0  0  0  0  0  0  0  0  0  0  0
    0.4509   -0.0185    0.8450 H   0  0  0  0  0  0  0  0  0  0  0  0
    0.3758   -1.3027   -0.3219 H   0  0  0  0  0  0  0  0  0  0  0  0
    0.5361    0.3840   -0.8747 H   0  0  0  0  0  0  0  0  0  0  0  0
    3.0094    0.3559    0.0427 H   0  0  0  0  0  0  0  0  0  0  0  0
    3.6607   -1.7442    0.9601 H   0  0  0  0  0  0  0  0  0  0  0  0
    2.2238   -2.7589    2.9451 H   0  0  0  0  0  0  0  0  0  0  0  0
    2.3637   -2.2703    5.3622 H   0  0  0  0  0  0  0  0  0  0  0  0
    2.2636    0.1309    6.0412 H   0  0  0  0  0  0  0  0  0  0  0  0
    1.5290    1.5541    0.5848 H   0  0  0  0  0  0  0  0  0  0  0  0
    3.1473    2.1413   -0.0144 H   0  0  0  0  0  0  0  0  0  0  0  0
    0.9133    3.5638    1.4042 H   0  0  0  0  0  0  0  0  0  0  0  0
    1.3580    3.6259   -0.3103 H   0  0  0  0  0  0  0  0  0  0  0  0
    2.5607    4.2903    3.0929 H   0  0  0  0  0  0  0  0  0  0  0  0
    4.1346    4.9618    2.5919 H   0  0  0  0  0  0  0  0  0  0  0  0
    4.3712    2.5936    3.4862 H   0  0  0  0  0  0  0  0  0  0  0  0
    4.8397    2.7001    1.7910 H   0  0  0  0  0  0  0  0  0  0  0  0
    2.7972    8.2258    0.7230 H   0  0  0  0  0  0  0  0  0  0  0  0
    8.1473    7.2005    0.1125 H   0  0  0  0  0  0  0  0  0  0  0  0
    8.6851    9.5483   -0.1314 H   0  0  0  0  0  0  0  0  0  0  0  0
    4.5311   10.6332    0.3981 H   0  0  0  0  0  0  0  0  0  0  0  0
    6.2220   12.3721   -0.0025 H   0  0  0  0  0  0  0  0  0  0  0  0
    8.0983   14.3777    0.5008 H   0  0  0  0  0  0  0  0  0  0  0  0
    7.8424   14.2429   -1.2842 H   0  0  0  0  0  0  0  0  0  0  0  0
    9.4896   14.3143   -0.6098 H   0  0  0  0  0  0  0  0  0  0  0  0
    2.6333   -1.8461   -1.7787 H   0  0  0  0  0  0  0  0  0  0  0  0
    4.0401   -0.7953   -1.4412 H   0  0  0  0  0  0  0  0  0  0  0  0
    2.6087   -0.0995   -2.1761 H   0  0  0  0  0  0  0  0  0  0  0  0
  1  2  1  0  0  0  0
  1 34  1  0  0  0  0
  1 35  1  0  0  0  0
  1 36  1  0  0  0  0
  2  3  1  0  0  0  0
  2 33  1  0  0  0  0
  2 37  1  0  0  0  0
  3  4  1  0  0  0  0
  3 38  1  0  0  0  0
  4  5  2  0  0  0  0
  4  9  1  0  0  0  0
  5  6  1  0  0  0  0
  5 39  1  0  0  0  0
  6  7  2  0  0  0  0
  6 40  1  0  0  0  0
  7  8  1  0  0  0  0
  7 41  1  0  0  0  0
  8  9  2  0  0  0  0
  9 10  1  0  0  0  0
 10 11  1  0  0  0  0
 10 15  1  0  0  0  0
 11 12  1  0  0  0  0
 11 42  1  0  0  0  0
 11 43  1  0  0  0  0
 12 13  1  0  0  0  0
 12 44  1  0  0  0  0
 12 45  1  0  0  0  0
 13 14  1  0  0  0  0
 13 16  1  0  0  0  0
 14 15  1  0  0  0  0
 14 46  1  0  0  0  0
 14 47  1  0  0  0  0
 15 48  1  0  0  0  0
 15 49  1  0  0  0  0
 16 17  2  0  0  0  0
 16 18  1  0  0  0  0
 18 19  2  0  0  0  0
 18 22  1  0  0  0  0
 19 20  1  0  0  0  0
 19 50  1  0  0  0  0
 20 21  2  0  0  0  0
 20 27  1  0  0  0  0
 21 22  1  0  0  0  0
 21 24  1  0  0  0  0
 22 23  1  0  0  0  0
 24 25  2  0  0  0  0
 24 51  1  0  0  0  0
 25 26  1  0  0  0  0
 25 52  1  0  0  0  0
 26 27  2  0  0  0  0
 26 28  1  0  0  0  0
 27 53  1  0  0  0  0
 28 29  1  0  0  0  0
 28 54  1  0  0  0  0
 29 30  2  0  0  0  0
 29 31  2  0  0  0  0
 29 32  1  0  0  0  0
 32 55  1  0  0  0  0
 32 56  1  0  0  0  0
 32 57  1  0  0  0  0
 33 58  1  0  0  0  0
 33 59  1  0  0  0  0
 33 60  1  0  0  0  0
M  END
$$$$
