SR1
 OpenBabel04121316193D

 23 23  0  0  1  0  0  0  0  0999 V2000
    1.0195    0.0345    0.0743 C   0  0  0  0  0  0  0  0  0  0  0  0
    2.8206    0.2190   -0.0167 S   0  0  0  0  0  0  0  0  0  0  0  0
    3.3570   -1.0308    1.2194 C   0  0  0  0  0  0  0  0  0  0  0  0
    4.8948   -1.1132    1.2702 C   0  0  1  0  0  0  0  0  0  0  0  0
    5.3057   -1.0379    0.2546 H   0  0  0  0  0  0  0  0  0  0  0  0
    5.4652   -0.0482    2.0627 O   0  0  0  0  0  0  0  0  0  0  0  0
    6.7718   -0.4904    2.4333 C   0  0  1  0  0  0  0  0  0  0  0  0
    7.1012    0.0363    3.3348 H   0  0  0  0  0  0  0  0  0  0  0  0
    6.6476   -2.0026    2.6867 C   0  0  1  0  0  0  0  0  0  0  0  0
    6.4551   -2.1447    3.7562 H   0  0  0  0  0  0  0  0  0  0  0  0
    5.3824   -2.4083    1.9266 C   0  0  2  0  0  0  0  0  0  0  0  0
    4.6482   -2.7789    2.6494 H   0  0  0  0  0  0  0  0  0  0  0  0
    5.5787   -3.4429    0.9687 O   0  0  0  0  0  0  0  0  0  0  0  0
    7.7756   -2.8106    2.3633 O   0  0  0  0  0  0  0  0  0  0  0  0
    7.6953   -0.2100    1.3988 O   0  0  0  0  0  0  0  0  0  0  0  0
    0.5699    0.7115   -0.6598 H   0  0  0  0  0  0  0  0  0  0  0  0
    0.6478    0.3148    1.0630 H   0  0  0  0  0  0  0  0  0  0  0  0
    0.7024   -0.9832   -0.1700 H   0  0  0  0  0  0  0  0  0  0  0  0
    2.9363   -1.9995    0.9292 H   0  0  0  0  0  0  0  0  0  0  0  0
    2.9549   -0.7426    2.1971 H   0  0  0  0  0  0  0  0  0  0  0  0
    6.3122   -3.9910    1.3105 H   0  0  0  0  0  0  0  0  0  0  0  0
    8.5715   -2.2750    2.5493 H   0  0  0  0  0  0  0  0  0  0  0  0
    7.7314    0.7659    1.3471 H   0  0  0  0  0  0  0  0  0  0  0  0
  1  2  1  0  0  0  0
  1 16  1  0  0  0  0
  1 17  1  0  0  0  0
  1 18  1  0  0  0  0
  2  3  1  0  0  0  0
  3  4  1  0  0  0  0
  3 19  1  0  0  0  0
  3 20  1  0  0  0  0
  4  5  1  6  0  0  0
  4  6  1  0  0  0  0
  4 11  1  0  0  0  0
  6  7  1  0  0  0  0
  7  8  1  1  0  0  0
  7  9  1  0  0  0  0
  7 15  1  0  0  0  0
  9 10  1  1  0  0  0
  9 11  1  0  0  0  0
  9 14  1  0  0  0  0
 11 12  1  1  0  0  0
 11 13  1  0  0  0  0
 13 21  1  0  0  0  0
 14 22  1  0  0  0  0
 15 23  1  0  0  0  0
M  END
$$$$
