SSB
 OpenBabel04121316193D

 26 26  0  0  1  0  0  0  0  0999 V2000
    1.0642   -0.0301   -0.0214 C   0  0  0  0  0  0  0  0  0  0  0  0
    2.5830   -0.0286   -0.0308 C   0  0  0  0  0  0  0  0  0  0  0  0
    3.1063    0.7323   -1.2441 C   0  0  0  0  0  0  0  0  0  0  0  0
    4.6323    0.7405   -1.2810 C   0  0  0  0  0  0  0  0  0  0  0  0
    5.1670    1.5408   -2.4765 C   0  0  1  0  0  0  0  0  0  0  0  0
    4.6777    1.1929   -3.3968 H   0  0  0  0  0  0  0  0  0  0  0  0
    4.9124    3.0379   -2.3077 C   0  0  0  0  0  0  0  0  0  0  0  0
    5.7973    3.7449   -3.3088 C   0  0  0  0  0  0  0  0  0  0  0  0
    7.4019    2.8916   -3.2843 S   0  0  2  0  0  0  0  0  0  0  0  0
    7.7948    2.6372   -4.7110 O   0  0  0  0  0  0  0  0  0  0  0  0
    6.6752    1.3525   -2.6263 C   0  0  0  0  0  0  0  0  0  0  0  0
    0.6885   -0.5738    0.8496 H   0  0  0  0  0  0  0  0  0  0  0  0
    0.6713   -0.5107   -0.9233 H   0  0  0  0  0  0  0  0  0  0  0  0
    0.6747    0.9925    0.0178 H   0  0  0  0  0  0  0  0  0  0  0  0
    2.9515   -1.0605   -0.0461 H   0  0  0  0  0  0  0  0  0  0  0  0
    2.9526    0.4373    0.8902 H   0  0  0  0  0  0  0  0  0  0  0  0
    2.7214    1.7577   -1.2132 H   0  0  0  0  0  0  0  0  0  0  0  0
    2.7251    0.2714   -2.1634 H   0  0  0  0  0  0  0  0  0  0  0  0
    5.0000   -0.2918   -1.3301 H   0  0  0  0  0  0  0  0  0  0  0  0
    5.0197    1.1672   -0.3459 H   0  0  0  0  0  0  0  0  0  0  0  0
    5.1588    3.3603   -1.2888 H   0  0  0  0  0  0  0  0  0  0  0  0
    3.8617    3.2917   -2.4863 H   0  0  0  0  0  0  0  0  0  0  0  0
    5.9450    4.7963   -3.0494 H   0  0  0  0  0  0  0  0  0  0  0  0
    5.3840    3.6782   -4.3196 H   0  0  0  0  0  0  0  0  0  0  0  0
    7.1668    1.1464   -1.6708 H   0  0  0  0  0  0  0  0  0  0  0  0
    6.9005    0.5307   -3.3141 H   0  0  0  0  0  0  0  0  0  0  0  0
  1  2  1  0  0  0  0
  1 12  1  0  0  0  0
  1 13  1  0  0  0  0
  1 14  1  0  0  0  0
  2  3  1  0  0  0  0
  2 15  1  0  0  0  0
  2 16  1  0  0  0  0
  3  4  1  0  0  0  0
  3 17  1  0  0  0  0
  3 18  1  0  0  0  0
  4  5  1  0  0  0  0
  4 19  1  0  0  0  0
  4 20  1  0  0  0  0
  5  6  1  6  0  0  0
  5  7  1  0  0  0  0
  5 11  1  0  0  0  0
  7  8  1  0  0  0  0
  7 21  1  0  0  0  0
  7 22  1  0  0  0  0
  8  9  1  0  0  0  0
  8 23  1  0  0  0  0
  8 24  1  0  0  0  0
  9 10  2  6  0  0  0
  9 11  1  0  0  0  0
 11 25  1  0  0  0  0
 11 26  1  0  0  0  0
M  END
$$$$
