SSD
 OpenBabel04121316193D

 38 38  0  0  1  0  0  0  0  0999 V2000
    1.0863   -1.0593    4.3830 O   0  0  0  0  0  0  0  0  0  0  0  0
    2.4818   -0.9926    4.1392 C   0  0  0  0  0  0  0  0  0  0  0  0
    2.9067   -0.5282    2.7374 C   0  0  2  0  0  0  0  0  0  0  0  0
    3.9979   -0.4909    2.8120 H   0  0  0  0  0  0  0  0  0  0  0  0
    2.4588    0.8931    2.2873 C   0  0  2  0  0  0  0  0  0  0  0  0
    2.6726    1.0141    1.2173 H   0  0  0  0  0  0  0  0  0  0  0  0
    3.1276    2.0324    3.0871 C   0  0  0  0  0  0  0  0  0  0  0  0
    4.9307    1.9281    3.3096 S   0  3  2  0  0  0  0  0  0  0  0  0
    5.4368    3.6528    3.1118 C   0  0  0  0  0  0  0  0  0  0  0  0
    5.4188    4.0128    1.6380 C   0  0  2  0  0  0  0  0  0  0  0  0
    4.4240    4.3463    1.3247 H   0  0  0  0  0  0  0  0  0  0  0  0
    5.8613    2.7803    0.8417 C   0  0  1  0  0  0  0  0  0  0  0  0
    6.9360    2.8194    0.6310 H   0  0  0  0  0  0  0  0  0  0  0  0
    5.4875    1.5012    1.6036 C   0  0  1  0  0  0  0  0  0  0  0  0
    4.7258    0.9446    1.0567 H   0  0  0  0  0  0  0  0  0  0  0  0
    6.7011    0.5644    1.7547 C   0  0  0  0  0  0  0  0  0  0  0  0
    7.2105    0.1407    0.4978 O   0  0  0  0  0  0  0  0  0  0  0  0
    5.2064    2.8007   -0.4392 O   0  0  0  0  0  0  0  0  0  0  0  0
    6.3322    5.0827    1.3701 O   0  0  0  0  0  0  0  0  0  0  0  0
    1.0572    1.1067    2.4494 O   0  0  0  0  0  0  0  0  0  0  0  0
    2.7693   -1.5032    1.7033 O   0  0  0  0  0  0  0  0  0  0  0  0
    1.3832   -2.3026    1.4194 S   0  0  0  0  0  0  0  0  0  0  0  0
    1.0897   -2.9803    2.6812 O   0  5  0  0  0  0  0  0  0  0  0  0
    0.4422   -1.2697    1.0282 O   0  5  0  0  0  0  0  0  0  0  0  0
    1.7564   -3.2122    0.3357 O   0  5  0  0  0  0  0  0  0  0  0  0
    0.7971   -1.9007    3.9499 H   0  0  0  0  0  0  0  0  0  0  0  0
    2.9005   -1.9871    4.3279 H   0  0  0  0  0  0  0  0  0  0  0  0
    2.8888   -0.3194    4.8975 H   0  0  0  0  0  0  0  0  0  0  0  0
    2.7106    1.9984    4.1044 H   0  0  0  0  0  0  0  0  0  0  0  0
    2.8135    3.0073    2.6963 H   0  0  0  0  0  0  0  0  0  0  0  0
    6.4616    3.7171    3.4972 H   0  0  0  0  0  0  0  0  0  0  0  0
    4.8305    4.3330    3.7173 H   0  0  0  0  0  0  0  0  0  0  0  0
    6.4335   -0.3303    2.3289 H   0  0  0  0  0  0  0  0  0  0  0  0
    7.5118    1.0660    2.2947 H   0  0  0  0  0  0  0  0  0  0  0  0
    6.5016   -0.3498    0.0427 H   0  0  0  0  0  0  0  0  0  0  0  0
    4.2454    2.7619   -0.2964 H   0  0  0  0  0  0  0  0  0  0  0  0
    6.0480    5.8636    1.8710 H   0  0  0  0  0  0  0  0  0  0  0  0
    0.7399    1.7059    1.7563 H   0  0  0  0  0  0  0  0  0  0  0  0
  1  2  1  0  0  0  0
  1 26  1  0  0  0  0
  2 27  1  0  0  0  0
  2 28  1  0  0  0  0
  3 21  1  0  0  0  0
  3  4  1  1  0  0  0
  3  2  1  0  0  0  0
  5  7  1  0  0  0  0
  5 20  1  0  0  0  0
  5  6  1  6  0  0  0
  5  3  1  0  0  0  0
  7 29  1  0  0  0  0
  7 30  1  0  0  0  0
  8  7  1  6  0  0  0
  8  9  1  0  0  0  0
  8 14  1  0  0  0  0
  9 10  1  0  0  0  0
  9 31  1  0  0  0  0
  9 32  1  0  0  0  0
 10 11  1  6  0  0  0
 10 12  1  0  0  0  0
 10 19  1  0  0  0  0
 12 14  1  0  0  0  0
 12 18  1  0  0  0  0
 12 13  1  6  0  0  0
 14 15  1  6  0  0  0
 14 16  1  0  0  0  0
 16 17  1  0  0  0  0
 16 33  1  0  0  0  0
 16 34  1  0  0  0  0
 17 35  1  0  0  0  0
 18 36  1  0  0  0  0
 19 37  1  0  0  0  0
 20 38  1  0  0  0  0
 21 22  1  0  0  0  0
 22 23  1  0  0  0  0
 22 24  1  0  0  0  0
 22 25  1  0  0  0  0
M  CHG  4   8   1  23  -1  24  -1  25  -1
M  END
$$$$
