SSN
 OpenBabel04121316193D

 13 12  0  0  0  0  0  0  0  0999 V2000
    0.9851    0.0994    0.0339 O   0  0  0  0  0  0  0  0  0  0  0  0
    2.2123    0.0988    0.0054 C   0  0  0  0  0  0  0  0  0  0  0  0
    2.9939    0.0724   -1.2770 C   0  0  0  0  0  0  0  0  0  0  0  0
    4.5020    0.0773   -1.0396 C   0  0  0  0  0  0  0  0  0  0  0  0
    5.2192    0.0500   -2.3684 C   0  0  0  0  0  0  0  0  0  0  0  0
    4.6583    0.0276   -3.4547 O   0  0  0  0  0  0  0  0  0  0  0  0
    6.5643    0.0521   -2.2644 O   0  0  0  0  0  0  0  0  0  0  0  0
    2.7915    0.1181    0.9428 H   0  0  0  0  0  0  0  0  0  0  0  0
    2.7028    0.9498   -1.8656 H   0  0  0  0  0  0  0  0  0  0  0  0
    2.7028   -0.8284   -1.8290 H   0  0  0  0  0  0  0  0  0  0  0  0
    4.7937   -0.8010   -0.4525 H   0  0  0  0  0  0  0  0  0  0  0  0
    4.7937    0.9791   -0.4891 H   0  0  0  0  0  0  0  0  0  0  0  0
    6.9233    0.0708   -1.3586 H   0  0  0  0  0  0  0  0  0  0  0  0
  1  2  2  0  0  0  0
  2  3  1  0  0  0  0
  2  8  1  0  0  0  0
  3  4  1  0  0  0  0
  3  9  1  0  0  0  0
  3 10  1  0  0  0  0
  4  5  1  0  0  0  0
  4 11  1  0  0  0  0
  4 12  1  0  0  0  0
  5  6  2  0  0  0  0
  5  7  1  0  0  0  0
  7 13  1  0  0  0  0
M  END
$$$$
