SSO
 OpenBabel04121316193D

 38 38  0  0  1  0  0  0  0  0999 V2000
    1.0714    0.1197    0.0383 O   0  0  0  0  0  0  0  0  0  0  0  0
    2.5043    0.0174    0.2460 C   0  0  0  0  0  0  0  0  0  0  0  0
    2.8054   -1.3300    1.0451 C   0  0  1  0  0  0  0  0  0  0  0  0
    2.1214   -1.3312    1.8903 H   0  0  0  0  0  0  0  0  0  0  0  0
    2.3995   -2.3968   -0.0373 C   0  0  1  0  0  0  0  0  0  0  0  0
    2.7158   -2.1285   -1.0522 H   0  0  0  0  0  0  0  0  0  0  0  0
    3.0105   -3.7226    0.2643 C   0  0  0  0  0  0  0  0  0  0  0  0
    4.7814   -3.7074    0.1465 S   0  3  2  0  0  0  0  0  0  0  0  0
    5.5626   -2.2391   -0.4846 C   0  0  0  0  0  0  0  0  0  0  0  0
    5.6077   -2.5105   -1.9439 C   0  0  2  0  0  0  0  0  0  0  0  0
    4.6047   -2.3172   -2.3397 H   0  0  0  0  0  0  0  0  0  0  0  0
    5.9896   -4.0247   -2.0910 C   0  0  1  0  0  0  0  0  0  0  0  0
    7.0625   -4.1392   -2.2705 H   0  0  0  0  0  0  0  0  0  0  0  0
    5.5204   -4.8706   -0.8798 C   0  0  1  0  0  0  0  0  0  0  0  0
    4.7957   -5.6545   -1.1211 H   0  0  0  0  0  0  0  0  0  0  0  0
    6.6731   -5.5419   -0.0920 C   0  0  0  0  0  0  0  0  0  0  0  0
    7.2787   -6.5515   -0.8973 O   0  0  0  0  0  0  0  0  0  0  0  0
    5.2224   -4.5080   -3.2033 O   0  0  0  0  0  0  0  0  0  0  0  0
    6.4698   -1.5798   -2.5912 O   0  0  0  0  0  0  0  0  0  0  0  0
    0.9663   -2.5129   -0.1390 O   0  0  0  0  0  0  0  0  0  0  0  0
    4.1435   -1.4228    1.6022 O   0  0  0  0  0  0  0  0  0  0  0  0
    4.7803   -2.4601    2.8011 S   0  0  0  0  0  0  0  0  0  0  0  0
    4.3375   -1.8902    4.0361 O   0  5  0  0  0  0  0  0  0  0  0  0
    4.3069   -3.8473    2.6728 O   0  5  0  0  0  0  0  0  0  0  0  0
    6.2332   -2.3520    2.5392 O   0  5  0  0  0  0  0  0  0  0  0  0
    0.8665    0.9795   -0.3692 H   0  0  0  0  0  0  0  0  0  0  0  0
    2.8578    0.9231    0.7413 H   0  0  0  0  0  0  0  0  0  0  0  0
    2.9381    0.0225   -0.7703 H   0  0  0  0  0  0  0  0  0  0  0  0
    2.5328   -4.5841   -0.2029 H   0  0  0  0  0  0  0  0  0  0  0  0
    2.6951   -3.8639    1.3104 H   0  0  0  0  0  0  0  0  0  0  0  0
    6.5757   -2.1574   -0.0591 H   0  0  0  0  0  0  0  0  0  0  0  0
    5.1261   -1.2492   -0.3143 H   0  0  0  0  0  0  0  0  0  0  0  0
    6.3179   -6.0315    0.8299 H   0  0  0  0  0  0  0  0  0  0  0  0
    7.4493   -4.8324    0.2222 H   0  0  0  0  0  0  0  0  0  0  0  0
    6.5556   -7.1411   -1.1708 H   0  0  0  0  0  0  0  0  0  0  0  0
    4.2957   -4.4344   -2.9006 H   0  0  0  0  0  0  0  0  0  0  0  0
    6.2487   -0.7010   -2.2255 H   0  0  0  0  0  0  0  0  0  0  0  0
    0.6389   -1.5971   -0.2828 H   0  0  0  0  0  0  0  0  0  0  0  0
  1  2  1  0  0  0  0
  1 26  1  0  0  0  0
  2  3  1  0  0  0  0
  2 27  1  0  0  0  0
  2 28  1  0  0  0  0
  3  4  1  1  0  0  0
  3  5  1  0  0  0  0
  3 21  1  0  0  0  0
  5  6  1  6  0  0  0
  5  7  1  0  0  0  0
  5 20  1  0  0  0  0
  7 29  1  0  0  0  0
  7 30  1  0  0  0  0
  8  7  1  6  0  0  0
  8  9  1  0  0  0  0
  8 14  1  0  0  0  0
  9 10  1  0  0  0  0
  9 31  1  0  0  0  0
  9 32  1  0  0  0  0
 10 11  1  6  0  0  0
 10 12  1  0  0  0  0
 10 19  1  0  0  0  0
 12 14  1  0  0  0  0
 12 18  1  0  0  0  0
 12 13  1  6  0  0  0
 14 15  1  6  0  0  0
 14 16  1  0  0  0  0
 16 17  1  0  0  0  0
 16 33  1  0  0  0  0
 16 34  1  0  0  0  0
 17 35  1  0  0  0  0
 18 36  1  0  0  0  0
 19 37  1  0  0  0  0
 20 38  1  0  0  0  0
 21 22  1  0  0  0  0
 22 23  1  0  0  0  0
 22 24  1  0  0  0  0
 22 25  1  0  0  0  0
M  CHG  4   8   1  23  -1  24  -1  25  -1
M  END
$$$$
