ST8
 OpenBabel04121316193D

 49 51  0  0  0  0  0  0  0  0999 V2000
    1.4767   -0.6711   -0.5054 O   0  0  0  0  0  0  0  0  0  0  0  0
    2.3822   -0.1760    0.1796 N   0  0  0  0  0  0  0  0  0  0  0  0
    2.8126    1.0471   -0.3089 C   0  0  0  0  0  0  0  0  0  0  0  0
    2.3269    2.3255    0.0164 C   0  0  0  0  0  0  0  0  0  0  0  0
    1.3375    2.5864    0.9365 O   0  0  0  0  0  0  0  0  0  0  0  0
    0.5174    1.4724    1.2485 C   0  0  0  0  0  0  0  0  0  0  0  0
   -0.8117    1.8120    1.9003 C   0  0  0  0  0  0  0  0  0  0  0  0
   -1.2440    3.2265    1.5334 C   0  0  0  0  0  0  0  0  0  0  0  0
   -1.5051    3.3385    0.0309 C   0  0  0  0  0  0  0  0  0  0  0  0
   -2.5751    2.3436   -0.4083 C   0  0  0  0  0  0  0  0  0  0  0  0
   -2.2137    0.9032   -0.0507 C   0  0  0  0  0  0  0  0  0  0  0  0
   -1.8644    0.7731    1.4430 C   0  0  0  0  0  0  0  0  0  0  0  0
    2.8547    3.4945   -0.4501 N   0  0  0  0  0  0  0  0  0  0  0  0
    3.9526    3.3970   -1.1891 C   0  0  0  0  0  0  0  0  0  0  0  0
    4.4783    2.2028   -1.4967 N   0  0  0  0  0  0  0  0  0  0  0  0
    3.9356    1.0590   -1.0952 C   0  0  0  0  0  0  0  0  0  0  0  0
    4.6373   -0.0899   -1.4193 N   0  0  0  0  0  0  0  0  0  0  0  0
    4.6157    4.5573   -1.6207 N   0  0  0  0  0  0  0  0  0  0  0  0
    5.7659    4.6460   -2.4257 C   0  0  0  0  0  0  0  0  0  0  0  0
    6.3509    5.8662   -2.7771 C   0  0  0  0  0  0  0  0  0  0  0  0
    7.4313    5.8987   -3.6858 C   0  0  0  0  0  0  0  0  0  0  0  0
    8.0130    4.7101   -4.1544 C   0  0  0  0  0  0  0  0  0  0  0  0
    7.5441    3.5072   -3.6731 C   0  0  0  0  0  0  0  0  0  0  0  0
    6.4134    3.4940   -2.8874 C   0  0  0  0  0  0  0  0  0  0  0  0
    9.0717    4.7291   -5.1953 C   0  0  0  0  0  0  0  0  0  0  0  0
    9.4656    5.7729   -5.6840 O   0  0  0  0  0  0  0  0  0  0  0  0
    9.5641    3.5185   -5.6212 N   0  0  0  0  0  0  0  0  0  0  0  0
    1.0639    0.8035    1.9188 H   0  0  0  0  0  0  0  0  0  0  0  0
    0.2660    0.9937    0.3092 H   0  0  0  0  0  0  0  0  0  0  0  0
   -0.6799    1.7357    2.9872 H   0  0  0  0  0  0  0  0  0  0  0  0
   -0.4750    3.9466    1.8389 H   0  0  0  0  0  0  0  0  0  0  0  0
   -2.1483    3.4823    2.0950 H   0  0  0  0  0  0  0  0  0  0  0  0
   -0.5923    3.1474   -0.5470 H   0  0  0  0  0  0  0  0  0  0  0  0
   -1.8053    4.3616   -0.2098 H   0  0  0  0  0  0  0  0  0  0  0  0
   -2.7262    2.4285   -1.4891 H   0  0  0  0  0  0  0  0  0  0  0  0
   -3.5199    2.6014    0.0810 H   0  0  0  0  0  0  0  0  0  0  0  0
   -1.3824    0.5722   -0.6866 H   0  0  0  0  0  0  0  0  0  0  0  0
   -3.0413    0.2311   -0.3011 H   0  0  0  0  0  0  0  0  0  0  0  0
   -1.5105   -0.2468    1.6465 H   0  0  0  0  0  0  0  0  0  0  0  0
   -2.7789    0.9138    2.0293 H   0  0  0  0  0  0  0  0  0  0  0  0
    5.4549   -0.0083   -2.0021 H   0  0  0  0  0  0  0  0  0  0  0  0
    4.2343   -0.9979   -1.2315 H   0  0  0  0  0  0  0  0  0  0  0  0
    4.1099    5.4027   -1.4001 H   0  0  0  0  0  0  0  0  0  0  0  0
    5.9739    6.8067   -2.3814 H   0  0  0  0  0  0  0  0  0  0  0  0
    7.8122    6.8552   -4.0386 H   0  0  0  0  0  0  0  0  0  0  0  0
    7.9722    2.5415   -3.9019 H   0  0  0  0  0  0  0  0  0  0  0  0
    6.0628    2.4958   -2.6899 H   0  0  0  0  0  0  0  0  0  0  0  0
    9.2475    2.6155   -5.3077 H   0  0  0  0  0  0  0  0  0  0  0  0
   10.2511    3.5303   -6.3603 H   0  0  0  0  0  0  0  0  0  0  0  0
  1  2  2  0  0  0  0
  2  3  1  0  0  0  0
  3  4  2  0  0  0  0
  3 16  1  0  0  0  0
  4  5  1  0  0  0  0
  4 13  1  0  0  0  0
  5  6  1  0  0  0  0
  6  7  1  0  0  0  0
  6 28  1  0  0  0  0
  6 29  1  0  0  0  0
  7  8  1  0  0  0  0
  7 12  1  0  0  0  0
  7 30  1  0  0  0  0
  8  9  1  0  0  0  0
  8 31  1  0  0  0  0
  8 32  1  0  0  0  0
  9 10  1  0  0  0  0
  9 33  1  0  0  0  0
  9 34  1  0  0  0  0
 10 11  1  0  0  0  0
 10 35  1  0  0  0  0
 10 36  1  0  0  0  0
 11 12  1  0  0  0  0
 11 37  1  0  0  0  0
 11 38  1  0  0  0  0
 12 39  1  0  0  0  0
 12 40  1  0  0  0  0
 13 14  2  0  0  0  0
 14 15  1  0  0  0  0
 14 18  1  0  0  0  0
 15 16  2  0  0  0  0
 16 17  1  0  0  0  0
 17 41  1  0  0  0  0
 17 42  1  0  0  0  0
 18 19  1  0  0  0  0
 18 43  1  0  0  0  0
 19 20  2  0  0  0  0
 19 24  1  0  0  0  0
 20 21  1  0  0  0  0
 20 44  1  0  0  0  0
 21 22  2  0  0  0  0
 21 45  1  0  0  0  0
 22 23  1  0  0  0  0
 22 25  1  0  0  0  0
 23 24  2  0  0  0  0
 23 46  1  0  0  0  0
 24 47  1  0  0  0  0
 25 26  2  0  0  0  0
 25 27  1  0  0  0  0
 27 48  1  0  0  0  0
 27 49  1  0  0  0  0
M  END
$$$$
