STC
 OpenBabel04121316193D

 27 28  0  0  0  0  0  0  0  0999 V2000
    1.0707    0.0956    0.1274 Cl  0  0  0  0  0  0  0  0  0  0  0  0
    2.7866    0.0986    0.0678 C   0  0  0  0  0  0  0  0  0  0  0  0
    3.4845    1.3056    0.0604 C   0  0  0  0  0  0  0  0  0  0  0  0
    4.8652    1.3098   -0.1502 C   0  0  0  0  0  0  0  0  0  0  0  0
    5.5574    0.1029   -0.2368 C   0  0  0  0  0  0  0  0  0  0  0  0
    4.8604   -1.0996   -0.0650 C   0  0  0  0  0  0  0  0  0  0  0  0
    3.4711   -1.1074    0.0092 C   0  0  0  0  0  0  0  0  0  0  0  0
    6.9642    0.1613   -0.4566 N   0  0  0  0  0  0  0  0  0  0  0  0
    7.8214   -1.2447   -0.6371 S   0  0  0  0  0  0  0  0  0  0  0  0
    7.9142   -1.9000    0.6473 O   0  0  0  0  0  0  0  0  0  0  0  0
    7.3274   -1.9920   -1.7731 O   0  0  0  0  0  0  0  0  0  0  0  0
    9.4658   -1.0036   -1.0523 C   0  0  0  0  0  0  0  0  0  0  0  0
   10.0494    0.2920   -1.2161 C   0  0  0  0  0  0  0  0  0  0  0  0
   11.3845    0.2115   -1.5271 C   0  0  0  0  0  0  0  0  0  0  0  0
   11.9228   -1.3969   -1.6331 S   0  0  0  0  0  0  0  0  0  0  0  0
   10.3596   -2.0471   -1.2599 C   0  0  0  0  0  0  0  0  0  0  0  0
   10.2842   -3.5110   -1.2247 C   0  0  0  0  0  0  0  0  0  0  0  0
   11.2289   -4.2562   -1.4360 O   0  0  0  0  0  0  0  0  0  0  0  0
    9.0801   -4.0613   -0.9353 O   0  0  0  0  0  0  0  0  0  0  0  0
    2.9580    2.2450    0.2002 H   0  0  0  0  0  0  0  0  0  0  0  0
    5.3840    2.2596   -0.2456 H   0  0  0  0  0  0  0  0  0  0  0  0
    5.3601   -2.0625   -0.0125 H   0  0  0  0  0  0  0  0  0  0  0  0
    2.9448   -2.0581    0.0194 H   0  0  0  0  0  0  0  0  0  0  0  0
    7.3720    1.0380   -0.7640 H   0  0  0  0  0  0  0  0  0  0  0  0
    9.5412    1.2417   -1.1074 H   0  0  0  0  0  0  0  0  0  0  0  0
   12.0837    1.0183   -1.6983 H   0  0  0  0  0  0  0  0  0  0  0  0
    8.2918   -3.5101   -0.8193 H   0  0  0  0  0  0  0  0  0  0  0  0
  1  2  1  0  0  0  0
  2  3  2  0  0  0  0
  2  7  1  0  0  0  0
  3  4  1  0  0  0  0
  3 20  1  0  0  0  0
  4  5  2  0  0  0  0
  4 21  1  0  0  0  0
  5  6  1  0  0  0  0
  5  8  1  0  0  0  0
  6  7  2  0  0  0  0
  6 22  1  0  0  0  0
  7 23  1  0  0  0  0
  8  9  1  0  0  0  0
  8 24  1  0  0  0  0
  9 10  2  0  0  0  0
  9 11  2  0  0  0  0
  9 12  1  0  0  0  0
 12 13  1  0  0  0  0
 12 16  2  0  0  0  0
 13 14  2  0  0  0  0
 13 25  1  0  0  0  0
 14 15  1  0  0  0  0
 14 26  1  0  0  0  0
 15 16  1  0  0  0  0
 16 17  1  0  0  0  0
 17 18  2  0  0  0  0
 17 19  1  0  0  0  0
 19 27  1  0  0  0  0
M  END
$$$$
