STI
 OpenBabel04121316193D

 68 72  0  0  0  0  0  0  0  0999 V2000
    1.0091    0.0576    0.0402 C   0  0  0  0  0  0  0  0  0  0  0  0
    2.4725    0.0458   -0.0098 N   0  0  0  0  0  0  0  0  0  0  0  0
    2.9586   -1.3019   -0.3932 C   0  0  0  0  0  0  0  0  0  0  0  0
    2.6284   -1.6881   -1.8570 C   0  0  0  0  0  0  0  0  0  0  0  0
    3.1243   -0.6953   -2.8353 N   0  0  0  0  0  0  0  0  0  0  0  0
    2.5621    0.6281   -2.4583 C   0  0  0  0  0  0  0  0  0  0  0  0
    2.9264    1.0377   -1.0077 C   0  0  0  0  0  0  0  0  0  0  0  0
    4.6087   -0.6967   -2.8180 C   0  0  0  0  0  0  0  0  0  0  0  0
    5.1663    0.2731   -3.8236 C   0  0  0  0  0  0  0  0  0  0  0  0
    5.1881    1.6469   -3.5393 C   0  0  0  0  0  0  0  0  0  0  0  0
    5.2014    2.5579   -4.5776 C   0  0  0  0  0  0  0  0  0  0  0  0
    5.4408    2.1102   -5.8762 C   0  0  0  0  0  0  0  0  0  0  0  0
    5.6857    0.7506   -6.1130 C   0  0  0  0  0  0  0  0  0  0  0  0
    5.4721   -0.1737   -5.1036 C   0  0  0  0  0  0  0  0  0  0  0  0
    5.3610    3.1054   -6.9646 C   0  0  0  0  0  0  0  0  0  0  0  0
    5.0476    4.2717   -6.6842 O   0  0  0  0  0  0  0  0  0  0  0  0
    5.6548    2.6573   -8.2353 N   0  0  0  0  0  0  0  0  0  0  0  0
    5.6676    3.5567   -9.2974 C   0  0  0  0  0  0  0  0  0  0  0  0
    6.8583    3.9717   -9.8607 C   0  0  0  0  0  0  0  0  0  0  0  0
    6.8144    4.9629  -10.8370 C   0  0  0  0  0  0  0  0  0  0  0  0
    5.5925    5.5774  -11.1918 C   0  0  0  0  0  0  0  0  0  0  0  0
    4.3797    5.1191  -10.6440 C   0  0  0  0  0  0  0  0  0  0  0  0
    4.4507    4.0614   -9.7335 C   0  0  0  0  0  0  0  0  0  0  0  0
    3.1338    5.6640  -11.0546 N   0  0  0  0  0  0  0  0  0  0  0  0
    1.9017    5.3041  -10.4974 C   0  0  0  0  0  0  0  0  0  0  0  0
    1.6048    3.9962  -10.4614 N   0  0  0  0  0  0  0  0  0  0  0  0
    0.6347    3.6043   -9.6385 C   0  0  0  0  0  0  0  0  0  0  0  0
   -0.0737    4.4783   -8.8714 C   0  0  0  0  0  0  0  0  0  0  0  0
    0.1026    5.8181   -9.1633 C   0  0  0  0  0  0  0  0  0  0  0  0
    1.1148    6.2506   -9.9594 N   0  0  0  0  0  0  0  0  0  0  0  0
   -0.8938    6.8135   -8.7278 C   0  0  0  0  0  0  0  0  0  0  0  0
   -2.2107    6.4441   -8.3894 C   0  0  0  0  0  0  0  0  0  0  0  0
   -3.1610    7.3984   -8.0447 C   0  0  0  0  0  0  0  0  0  0  0  0
   -2.7995    8.7266   -8.1328 C   0  0  0  0  0  0  0  0  0  0  0  0
   -1.5507    9.1416   -8.4299 N   0  0  0  0  0  0  0  0  0  0  0  0
   -0.6263    8.1785   -8.6887 C   0  0  0  0  0  0  0  0  0  0  0  0
    5.6039    6.7668  -12.1051 C   0  0  0  0  0  0  0  0  0  0  0  0
    0.6494   -0.6710    0.7692 H   0  0  0  0  0  0  0  0  0  0  0  0
    0.5346   -0.1808   -0.9166 H   0  0  0  0  0  0  0  0  0  0  0  0
    0.6524    1.0472    0.3396 H   0  0  0  0  0  0  0  0  0  0  0  0
    2.5618   -2.0593    0.2907 H   0  0  0  0  0  0  0  0  0  0  0  0
    4.0460   -1.3409   -0.2420 H   0  0  0  0  0  0  0  0  0  0  0  0
    1.5410   -1.7860   -1.9748 H   0  0  0  0  0  0  0  0  0  0  0  0
    3.0251   -2.6824   -2.0907 H   0  0  0  0  0  0  0  0  0  0  0  0
    1.4731    0.6066   -2.5850 H   0  0  0  0  0  0  0  0  0  0  0  0
    2.8375    1.4114   -3.1680 H   0  0  0  0  0  0  0  0  0  0  0  0
    2.5268    2.0344   -0.7858 H   0  0  0  0  0  0  0  0  0  0  0  0
    4.0107    1.1514   -0.8895 H   0  0  0  0  0  0  0  0  0  0  0  0
    4.9614   -1.7079   -3.0599 H   0  0  0  0  0  0  0  0  0  0  0  0
    5.0461   -0.4590   -1.8449 H   0  0  0  0  0  0  0  0  0  0  0  0
    5.0167    2.0196   -2.5348 H   0  0  0  0  0  0  0  0  0  0  0  0
    4.9700    3.6025   -4.3718 H   0  0  0  0  0  0  0  0  0  0  0  0
    5.9688    0.3625   -7.0804 H   0  0  0  0  0  0  0  0  0  0  0  0
    5.4825   -1.2369   -5.3296 H   0  0  0  0  0  0  0  0  0  0  0  0
    6.1009    1.7671   -8.3857 H   0  0  0  0  0  0  0  0  0  0  0  0
    7.8087    3.5972   -9.4935 H   0  0  0  0  0  0  0  0  0  0  0  0
    7.7462    5.2848  -11.2947 H   0  0  0  0  0  0  0  0  0  0  0  0
    3.5619    3.6128   -9.3056 H   0  0  0  0  0  0  0  0  0  0  0  0
    3.1579    6.6552  -11.2407 H   0  0  0  0  0  0  0  0  0  0  0  0
    0.4399    2.5391   -9.6239 H   0  0  0  0  0  0  0  0  0  0  0  0
   -0.7886    4.1155   -8.1483 H   0  0  0  0  0  0  0  0  0  0  0  0
   -2.5306    5.4053   -8.4173 H   0  0  0  0  0  0  0  0  0  0  0  0
   -4.1583    7.1054   -7.7375 H   0  0  0  0  0  0  0  0  0  0  0  0
   -3.5284    9.5135   -7.9663 H   0  0  0  0  0  0  0  0  0  0  0  0
    0.3775    8.5557   -8.8697 H   0  0  0  0  0  0  0  0  0  0  0  0
    6.6154    7.0092  -12.4414 H   0  0  0  0  0  0  0  0  0  0  0  0
    5.2176    7.6391  -11.5651 H   0  0  0  0  0  0  0  0  0  0  0  0
    4.9812    6.5752  -12.9827 H   0  0  0  0  0  0  0  0  0  0  0  0
  1  2  1  0  0  0  0
  1 38  1  0  0  0  0
  1 39  1  0  0  0  0
  1 40  1  0  0  0  0
  2  3  1  0  0  0  0
  2  7  1  0  0  0  0
  3  4  1  0  0  0  0
  3 41  1  0  0  0  0
  3 42  1  0  0  0  0
  4  5  1  0  0  0  0
  4 43  1  0  0  0  0
  4 44  1  0  0  0  0
  5  6  1  0  0  0  0
  5  8  1  0  0  0  0
  6  7  1  0  0  0  0
  6 45  1  0  0  0  0
  6 46  1  0  0  0  0
  7 47  1  0  0  0  0
  7 48  1  0  0  0  0
  8  9  1  0  0  0  0
  8 49  1  0  0  0  0
  8 50  1  0  0  0  0
  9 10  2  0  0  0  0
  9 14  1  0  0  0  0
 10 11  1  0  0  0  0
 10 51  1  0  0  0  0
 11 12  2  0  0  0  0
 11 52  1  0  0  0  0
 12 13  1  0  0  0  0
 12 15  1  0  0  0  0
 13 14  2  0  0  0  0
 13 53  1  0  0  0  0
 14 54  1  0  0  0  0
 15 16  2  0  0  0  0
 15 17  1  0  0  0  0
 17 18  1  0  0  0  0
 17 55  1  0  0  0  0
 18 19  2  0  0  0  0
 18 23  1  0  0  0  0
 19 20  1  0  0  0  0
 19 56  1  0  0  0  0
 20 21  2  0  0  0  0
 20 57  1  0  0  0  0
 21 22  1  0  0  0  0
 21 37  1  0  0  0  0
 22 23  2  0  0  0  0
 22 24  1  0  0  0  0
 23 58  1  0  0  0  0
 24 25  1  0  0  0  0
 24 59  1  0  0  0  0
 25 26  2  0  0  0  0
 25 30  1  0  0  0  0
 26 27  1  0  0  0  0
 27 28  2  0  0  0  0
 27 60  1  0  0  0  0
 28 29  1  0  0  0  0
 28 61  1  0  0  0  0
 29 30  2  0  0  0  0
 29 31  1  0  0  0  0
 31 32  2  0  0  0  0
 31 36  1  0  0  0  0
 32 33  1  0  0  0  0
 32 62  1  0  0  0  0
 33 34  2  0  0  0  0
 33 63  1  0  0  0  0
 34 35  1  0  0  0  0
 34 64  1  0  0  0  0
 35 36  2  0  0  0  0
 36 65  1  0  0  0  0
 37 66  1  0  0  0  0
 37 67  1  0  0  0  0
 37 68  1  0  0  0  0
M  END
$$$$
