STZ
 OpenBabel04121316193D

 33 33  0  0  1  0  0  0  0  0999 V2000
    1.0229    0.0045    0.0511 O   0  0  0  0  0  0  0  0  0  0  0  0
    2.4346   -0.0526   -0.0788 C   0  0  0  0  0  0  0  0  0  0  0  0
    3.0879    1.3074   -0.4314 C   0  0  1  0  0  0  0  0  0  0  0  0
    3.8031    1.1026   -1.2392 H   0  0  0  0  0  0  0  0  0  0  0  0
    2.2281    2.3183   -0.9908 O   0  0  0  0  0  0  0  0  0  0  0  0
    1.4599    3.1325   -0.1059 C   0  0  1  0  0  0  0  0  0  0  0  0
    1.1126    3.9994   -0.6843 H   0  0  0  0  0  0  0  0  0  0  0  0
    0.2934    2.4329    0.2839 O   0  0  0  0  0  0  0  0  0  0  0  0
    2.2213    3.6415    1.1386 C   0  0  1  0  0  0  0  0  0  0  0  0
    1.4951    4.0664    1.8437 H   0  0  0  0  0  0  0  0  0  0  0  0
    2.9348    2.4440    1.8087 C   0  0  2  0  0  0  0  0  0  0  0  0
    3.5464    2.7836    2.6426 H   0  0  0  0  0  0  0  0  0  0  0  0
    3.8758    1.7702    0.8001 C   0  0  2  0  0  0  0  0  0  0  0  0
    4.3619    0.9088    1.2686 H   0  0  0  0  0  0  0  0  0  0  0  0
    4.9423    2.6321    0.3942 O   0  0  0  0  0  0  0  0  0  0  0  0
    2.0375    1.5039    2.4183 O   0  0  0  0  0  0  0  0  0  0  0  0
    3.1502    4.7338    0.8002 N   0  0  0  0  0  0  0  0  0  0  0  0
    3.9810    5.2790    1.7394 C   0  0  0  0  0  0  0  0  0  0  0  0
    3.8349    4.9949    2.9369 O   0  0  0  0  0  0  0  0  0  0  0  0
    5.0044    6.1145    1.3192 N   0  0  0  0  0  0  0  0  0  0  0  0
    5.3004    6.4945    0.0032 N   0  0  0  0  0  0  0  0  0  0  0  0
    4.6036    5.9902   -0.8798 O   0  0  0  0  0  0  0  0  0  0  0  0
    5.8792    6.6906    2.3259 C   0  0  0  0  0  0  0  0  0  0  0  0
    0.7361   -0.9011    0.2824 H   0  0  0  0  0  0  0  0  0  0  0  0
    2.7135   -0.8141   -0.8127 H   0  0  0  0  0  0  0  0  0  0  0  0
    2.8145   -0.4231    0.8806 H   0  0  0  0  0  0  0  0  0  0  0  0
    0.4843    1.5031    0.0417 H   0  0  0  0  0  0  0  0  0  0  0  0
    5.4018    2.9065    1.2083 H   0  0  0  0  0  0  0  0  0  0  0  0
    1.3429    1.2385    1.7854 H   0  0  0  0  0  0  0  0  0  0  0  0
    3.4685    4.7927   -0.1643 H   0  0  0  0  0  0  0  0  0  0  0  0
    5.6401    6.3355    3.3332 H   0  0  0  0  0  0  0  0  0  0  0  0
    5.7635    7.7778    2.3129 H   0  0  0  0  0  0  0  0  0  0  0  0
    6.9172    6.4178    2.1109 H   0  0  0  0  0  0  0  0  0  0  0  0
  1  2  1  0  0  0  0
  1 24  1  0  0  0  0
  2  3  1  0  0  0  0
  2 25  1  0  0  0  0
  2 26  1  0  0  0  0
  3  4  1  6  0  0  0
  3  5  1  0  0  0  0
  3 13  1  0  0  0  0
  5  6  1  0  0  0  0
  6  9  1  0  0  0  0
  6  8  1  0  0  0  0
  6  7  1  6  0  0  0
  8 27  1  0  0  0  0
  9 10  1  1  0  0  0
  9 11  1  0  0  0  0
  9 17  1  0  0  0  0
 11 13  1  0  0  0  0
 11 16  1  0  0  0  0
 11 12  1  1  0  0  0
 13 14  1  1  0  0  0
 13 15  1  0  0  0  0
 15 28  1  0  0  0  0
 16 29  1  0  0  0  0
 17 18  1  0  0  0  0
 17 30  1  0  0  0  0
 18 19  2  0  0  0  0
 18 20  1  0  0  0  0
 20 21  1  0  0  0  0
 20 23  1  0  0  0  0
 21 22  2  0  0  0  0
 23 31  1  0  0  0  0
 23 32  1  0  0  0  0
 23 33  1  0  0  0  0
M  END
$$$$
