SU0
 OpenBabel04121316193D

 43 45  0  0  0  0  0  0  0  0999 V2000
    0.9668   -0.1293   -0.0320 C   0  0  0  0  0  0  0  0  0  0  0  0
    2.3927   -0.2092   -0.1154 O   0  0  0  0  0  0  0  0  0  0  0  0
    2.9447    0.8703    0.5107 C   0  0  0  0  0  0  0  0  0  0  0  0
    2.6355    2.1670    0.1059 C   0  0  0  0  0  0  0  0  0  0  0  0
    2.9898    3.2363    0.9101 C   0  0  0  0  0  0  0  0  0  0  0  0
    3.9185    3.0402    1.9311 C   0  0  0  0  0  0  0  0  0  0  0  0
    4.3335    1.7335    2.2252 C   0  0  0  0  0  0  0  0  0  0  0  0
    3.7989    0.6385    1.5736 C   0  0  0  0  0  0  0  0  0  0  0  0
    5.3191    1.4308    3.1775 O   0  0  0  0  0  0  0  0  0  0  0  0
    5.9780    2.4521    3.8038 C   0  0  0  0  0  0  0  0  0  0  0  0
    6.8915    2.2865    4.6052 O   0  0  0  0  0  0  0  0  0  0  0  0
    5.5226    3.7957    3.4789 C   0  0  0  0  0  0  0  0  0  0  0  0
    4.5368    4.1583    2.6353 C   0  0  0  0  0  0  0  0  0  0  0  0
    4.0724    5.5853    2.3093 C   0  0  0  0  0  0  0  0  0  0  0  0
    4.8020    6.6105    3.1470 C   0  0  0  0  0  0  0  0  0  0  0  0
    5.5553    6.2532    4.0488 O   0  0  0  0  0  0  0  0  0  0  0  0
    4.5734    7.9393    2.9578 N   0  0  0  0  0  0  0  0  0  0  0  0
    5.2682    8.8999    3.7399 C   0  0  0  0  0  0  0  0  0  0  0  0
    4.8141   10.2073    3.7197 C   0  0  0  0  0  0  0  0  0  0  0  0
    5.5557   11.1966    4.3678 C   0  0  0  0  0  0  0  0  0  0  0  0
    6.6731   10.8556    5.1420 C   0  0  0  0  0  0  0  0  0  0  0  0
    7.0467    9.5373    5.2996 C   0  0  0  0  0  0  0  0  0  0  0  0
    6.3984    8.5919    4.5321 C   0  0  0  0  0  0  0  0  0  0  0  0
    7.6573   12.1438    5.8334 S   0  0  0  0  0  0  0  0  0  0  0  0
    8.2842   12.8249    4.7332 O   0  0  0  0  0  0  0  0  0  0  0  0
    6.8408   12.8046    6.8302 O   0  0  0  0  0  0  0  0  0  0  0  0
    8.8679   11.3261    6.6537 N   0  0  0  0  0  0  0  0  0  0  0  0
    0.5573   -1.0185   -0.5116 H   0  0  0  0  0  0  0  0  0  0  0  0
    0.5742    0.7455   -0.5626 H   0  0  0  0  0  0  0  0  0  0  0  0
    0.6346   -0.1090    1.0138 H   0  0  0  0  0  0  0  0  0  0  0  0
    2.1015    2.3465   -0.8215 H   0  0  0  0  0  0  0  0  0  0  0  0
    2.5528    4.2059    0.6940 H   0  0  0  0  0  0  0  0  0  0  0  0
    4.0595   -0.3647    1.8910 H   0  0  0  0  0  0  0  0  0  0  0  0
    6.1451    4.4537    4.0589 H   0  0  0  0  0  0  0  0  0  0  0  0
    3.0006    5.6931    2.5258 H   0  0  0  0  0  0  0  0  0  0  0  0
    4.2338    5.8084    1.2456 H   0  0  0  0  0  0  0  0  0  0  0  0
    3.8182    8.2445    2.3564 H   0  0  0  0  0  0  0  0  0  0  0  0
    3.8982   10.4670    3.1998 H   0  0  0  0  0  0  0  0  0  0  0  0
    5.2643   12.2366    4.2613 H   0  0  0  0  0  0  0  0  0  0  0  0
    7.8476    9.2008    5.9487 H   0  0  0  0  0  0  0  0  0  0  0  0
    6.8628    7.6124    4.5916 H   0  0  0  0  0  0  0  0  0  0  0  0
    9.5470   10.8677    6.0490 H   0  0  0  0  0  0  0  0  0  0  0  0
    8.5593   10.8484    7.4963 H   0  0  0  0  0  0  0  0  0  0  0  0
  1  2  1  0  0  0  0
  1 28  1  0  0  0  0
  1 29  1  0  0  0  0
  1 30  1  0  0  0  0
  2  3  1  0  0  0  0
  3  4  2  0  0  0  0
  3  8  1  0  0  0  0
  4  5  1  0  0  0  0
  4 31  1  0  0  0  0
  5  6  2  0  0  0  0
  5 32  1  0  0  0  0
  6  7  1  0  0  0  0
  6 13  1  0  0  0  0
  7  8  2  0  0  0  0
  7  9  1  0  0  0  0
  8 33  1  0  0  0  0
  9 10  1  0  0  0  0
 10 11  2  0  0  0  0
 10 12  1  0  0  0  0
 12 13  2  0  0  0  0
 12 34  1  0  0  0  0
 13 14  1  0  0  0  0
 14 15  1  0  0  0  0
 14 35  1  0  0  0  0
 14 36  1  0  0  0  0
 15 16  2  0  0  0  0
 15 17  1  0  0  0  0
 17 18  1  0  0  0  0
 17 37  1  0  0  0  0
 18 19  2  0  0  0  0
 18 23  1  0  0  0  0
 19 20  1  0  0  0  0
 19 38  1  0  0  0  0
 20 21  2  0  0  0  0
 20 39  1  0  0  0  0
 21 22  1  0  0  0  0
 21 24  1  0  0  0  0
 22 23  2  0  0  0  0
 22 40  1  0  0  0  0
 23 41  1  0  0  0  0
 24 25  2  0  0  0  0
 24 26  2  0  0  0  0
 24 27  1  0  0  0  0
 27 42  1  0  0  0  0
 27 43  1  0  0  0  0
M  END
$$$$
