SU9
 OpenBabel04121316193D

 29 31  0  0  0  0  0  0  0  0999 V2000
    1.0324    0.0496    0.0550 C   0  0  0  0  0  0  0  0  0  0  0  0
    2.4555    0.0410   -0.0188 O   0  0  0  0  0  0  0  0  0  0  0  0
    3.0058   -0.7310    0.9656 C   0  0  0  0  0  0  0  0  0  0  0  0
    2.8261   -2.1225    1.0415 C   0  0  0  0  0  0  0  0  0  0  0  0
    3.4355   -2.8792    2.0578 C   0  0  0  0  0  0  0  0  0  0  0  0
    4.2266   -2.2039    2.9621 C   0  0  0  0  0  0  0  0  0  0  0  0
    4.4290   -0.8289    2.8530 C   0  0  0  0  0  0  0  0  0  0  0  0
    3.8341   -0.0778    1.8587 C   0  0  0  0  0  0  0  0  0  0  0  0
    5.3170   -0.4338    3.9422 C   0  0  0  0  0  0  0  0  0  0  0  0
    5.6432    0.8570    4.0967 C   0  0  0  0  0  0  0  0  0  0  0  0
    6.4068    1.3732    5.1528 C   0  0  0  0  0  0  0  0  0  0  0  0
    6.9317    0.9020    6.3336 C   0  0  0  0  0  0  0  0  0  0  0  0
    7.5694    1.8913    7.0263 N   0  0  0  0  0  0  0  0  0  0  0  0
    7.4232    2.9667    6.2940 C   0  0  0  0  0  0  0  0  0  0  0  0
    6.7414    2.7063    5.1418 N   0  0  0  0  0  0  0  0  0  0  0  0
    6.5070    3.3875    4.4324 H   0  0  0  0  0  0  0  0  0  0  0  0
    5.6484   -1.7018    4.6921 C   0  0  0  0  0  0  0  0  0  0  0  0
    6.3962   -1.8848    5.6344 O   0  0  0  0  0  0  0  0  0  0  0  0
    4.9328   -2.7028    4.0534 N   0  0  0  0  0  0  0  0  0  0  0  0
    0.6638    0.7082   -0.7368 H   0  0  0  0  0  0  0  0  0  0  0  0
    0.6861    0.4483    1.0159 H   0  0  0  0  0  0  0  0  0  0  0  0
    0.6222   -0.9486   -0.1181 H   0  0  0  0  0  0  0  0  0  0  0  0
    2.2217   -2.6207    0.2902 H   0  0  0  0  0  0  0  0  0  0  0  0
    3.2893   -3.9518    2.1077 H   0  0  0  0  0  0  0  0  0  0  0  0
    3.9896    0.9893    1.7702 H   0  0  0  0  0  0  0  0  0  0  0  0
    5.2663    1.5804    3.3761 H   0  0  0  0  0  0  0  0  0  0  0  0
    6.8665   -0.0920    6.7451 H   0  0  0  0  0  0  0  0  0  0  0  0
    7.7808    3.9502    6.5556 H   0  0  0  0  0  0  0  0  0  0  0  0
    4.9920   -3.6582    4.3730 H   0  0  0  0  0  0  0  0  0  0  0  0
  1  2  1  0  0  0  0
  1 20  1  0  0  0  0
  1 21  1  0  0  0  0
  1 22  1  0  0  0  0
  2  3  1  0  0  0  0
  3  4  2  0  0  0  0
  3  8  1  0  0  0  0
  4  5  1  0  0  0  0
  4 23  1  0  0  0  0
  5  6  2  0  0  0  0
  5 24  1  0  0  0  0
  6  7  1  0  0  0  0
  6 19  1  0  0  0  0
  7  8  2  0  0  0  0
  7  9  1  0  0  0  0
  8 25  1  0  0  0  0
  9 10  2  0  0  0  0
  9 17  1  0  0  0  0
 10 11  1  0  0  0  0
 10 26  1  0  0  0  0
 11 12  2  0  0  0  0
 11 15  1  0  0  0  0
 12 13  1  0  0  0  0
 12 27  1  0  0  0  0
 13 14  2  0  0  0  0
 14 15  1  0  0  0  0
 14 28  1  0  0  0  0
 15 16  1  0  0  0  0
 17 18  2  0  0  0  0
 17 19  1  0  0  0  0
 19 29  1  0  0  0  0
M  END
$$$$
