SUG
 OpenBabel04121316193D

 37 36  0  0  1  0  0  0  0  0999 V2000
    1.1519   -0.0589    0.0006 N   0  0  0  0  0  0  0  0  0  0  0  0
    2.4873   -0.1314    0.0464 C   0  0  0  0  0  0  0  0  0  0  0  0
    3.1183   -0.9860    0.7682 N   0  0  0  0  0  0  0  0  0  0  0  0
    3.1350    0.7504   -0.7382 N   0  0  0  0  0  0  0  0  0  0  0  0
    4.5860    0.7719   -0.7495 C   0  0  0  0  0  0  0  0  0  0  0  0
    5.0836    1.8863   -1.6413 C   0  0  0  0  0  0  0  0  0  0  0  0
    6.6105    1.9763   -1.6774 C   0  0  0  0  0  0  0  0  0  0  0  0
    7.1123    3.1131   -2.5813 C   0  0  1  0  0  0  0  0  0  0  0  0
    6.7365    2.9863   -3.6045 H   0  0  0  0  0  0  0  0  0  0  0  0
    6.6765    4.5112   -2.0478 C   0  0  0  0  0  0  0  0  0  0  0  0
    7.4387    5.3257   -1.5352 O   0  0  0  0  0  0  0  0  0  0  0  0
    5.3570    4.7945   -2.1626 O   0  0  0  0  0  0  0  0  0  0  0  0
    8.5784    3.0747   -2.6727 N   0  0  0  0  0  0  0  0  0  0  0  0
    9.2170    3.9782   -3.4963 C   0  0  0  0  0  0  0  0  0  0  0  0
    8.5983    4.7199   -4.2547 O   0  0  0  0  0  0  0  0  0  0  0  0
   10.7232    3.9816   -3.3987 C   0  0  0  0  0  0  0  0  0  0  0  0
   11.3066    5.0786   -4.2928 C   0  0  0  0  0  0  0  0  0  0  0  0
   12.8082    5.0434   -4.2618 C   0  0  0  0  0  0  0  0  0  0  0  0
   13.4688    4.2458   -3.6028 O   0  0  0  0  0  0  0  0  0  0  0  0
   13.3905    5.9766   -5.0439 O   0  0  0  0  0  0  0  0  0  0  0  0
    0.5912   -0.6968    0.5457 H   0  0  0  0  0  0  0  0  0  0  0  0
    0.6599    0.6180   -0.5603 H   0  0  0  0  0  0  0  0  0  0  0  0
    2.4559   -1.5668    1.2756 H   0  0  0  0  0  0  0  0  0  0  0  0
    2.6224    1.4561   -1.2447 H   0  0  0  0  0  0  0  0  0  0  0  0
    4.9693   -0.1909   -1.1003 H   0  0  0  0  0  0  0  0  0  0  0  0
    4.9575    0.9492    0.2672 H   0  0  0  0  0  0  0  0  0  0  0  0
    4.6665    2.7982   -1.2108 H   0  0  0  0  0  0  0  0  0  0  0  0
    4.6893    1.7757   -2.6591 H   0  0  0  0  0  0  0  0  0  0  0  0
    7.0185    1.0175   -2.0276 H   0  0  0  0  0  0  0  0  0  0  0  0
    6.9922    2.1186   -0.6583 H   0  0  0  0  0  0  0  0  0  0  0  0
    4.8058    4.1288   -2.6102 H   0  0  0  0  0  0  0  0  0  0  0  0
    9.1188    2.4976   -2.0377 H   0  0  0  0  0  0  0  0  0  0  0  0
   11.0897    2.9977   -3.7134 H   0  0  0  0  0  0  0  0  0  0  0  0
   11.0290    4.1402   -2.3567 H   0  0  0  0  0  0  0  0  0  0  0  0
   10.9635    6.0633   -3.9527 H   0  0  0  0  0  0  0  0  0  0  0  0
   10.9736    4.9311   -5.3272 H   0  0  0  0  0  0  0  0  0  0  0  0
   12.7674    6.5592   -5.5197 H   0  0  0  0  0  0  0  0  0  0  0  0
  1  2  1  0  0  0  0
  1 21  1  0  0  0  0
  1 22  1  0  0  0  0
  2  3  2  0  0  0  0
  2  4  1  0  0  0  0
  3 23  1  0  0  0  0
  4  5  1  0  0  0  0
  4 24  1  0  0  0  0
  5  6  1  0  0  0  0
  5 25  1  0  0  0  0
  5 26  1  0  0  0  0
  6  7  1  0  0  0  0
  6 27  1  0  0  0  0
  6 28  1  0  0  0  0
  7  8  1  0  0  0  0
  7 29  1  0  0  0  0
  7 30  1  0  0  0  0
  8  9  1  6  0  0  0
  8 10  1  0  0  0  0
  8 13  1  0  0  0  0
 10 11  2  0  0  0  0
 10 12  1  0  0  0  0
 12 31  1  0  0  0  0
 13 14  1  0  0  0  0
 13 32  1  0  0  0  0
 14 15  2  0  0  0  0
 14 16  1  0  0  0  0
 16 17  1  0  0  0  0
 16 33  1  0  0  0  0
 16 34  1  0  0  0  0
 17 18  1  0  0  0  0
 17 35  1  0  0  0  0
 17 36  1  0  0  0  0
 18 19  2  0  0  0  0
 18 20  1  0  0  0  0
 20 37  1  0  0  0  0
M  END
$$$$
