SUO
 OpenBabel04121316193D

 32 31  0  0  1  0  0  0  0  0999 V2000
    0.9994    0.0326   -0.1268 N   0  0  0  0  0  0  0  0  0  0  0  0
    2.4547    0.0190   -0.1850 C   0  0  0  0  0  0  0  0  0  0  0  0
    2.9645    0.9630    0.8862 C   0  0  0  0  0  0  0  0  0  0  0  0
    4.4878    1.0088    0.9796 C   0  0  0  0  0  0  0  0  0  0  0  0
    4.9798    1.9685    2.0756 C   0  0  1  0  0  0  0  0  0  0  0  0
    4.6032    2.9843    1.8997 H   0  0  0  0  0  0  0  0  0  0  0  0
    4.5431    1.5040    3.4983 C   0  0  0  0  0  0  0  0  0  0  0  0
    5.3082    1.0343    4.3353 O   0  0  0  0  0  0  0  0  0  0  0  0
    3.2255    1.6346    3.7805 O   0  0  0  0  0  0  0  0  0  0  0  0
    6.4471    2.0612    2.0342 N   0  0  0  0  0  0  0  0  0  0  0  0
    7.0850    2.9256    2.8990 C   0  0  0  0  0  0  0  0  0  0  0  0
    6.4674    3.7194    3.6036 O   0  0  0  0  0  0  0  0  0  0  0  0
    8.5911    2.8274    2.9072 C   0  0  0  0  0  0  0  0  0  0  0  0
    9.1743    3.7725    3.9607 C   0  0  0  0  0  0  0  0  0  0  0  0
   10.6762    3.7397    3.9263 C   0  0  0  0  0  0  0  0  0  0  0  0
   11.3360    3.0444    3.1608 O   0  0  0  0  0  0  0  0  0  0  0  0
   11.2586    4.5654    4.8215 O   0  0  0  0  0  0  0  0  0  0  0  0
    0.6211   -0.6042   -0.8256 H   0  0  0  0  0  0  0  0  0  0  0  0
    0.6403    0.9593   -0.3522 H   0  0  0  0  0  0  0  0  0  0  0  0
    2.8070    0.3169   -1.1755 H   0  0  0  0  0  0  0  0  0  0  0  0
    2.8129   -0.9937    0.0276 H   0  0  0  0  0  0  0  0  0  0  0  0
    2.5552    0.5770    1.8220 H   0  0  0  0  0  0  0  0  0  0  0  0
    2.5751    1.9783    0.7320 H   0  0  0  0  0  0  0  0  0  0  0  0
    4.8967    1.3161    0.0071 H   0  0  0  0  0  0  0  0  0  0  0  0
    4.8706   -0.0008    1.1735 H   0  0  0  0  0  0  0  0  0  0  0  0
    2.6570    2.0167    3.0876 H   0  0  0  0  0  0  0  0  0  0  0  0
    6.9877    1.3964    1.4926 H   0  0  0  0  0  0  0  0  0  0  0  0
    8.9577    3.0953    1.9095 H   0  0  0  0  0  0  0  0  0  0  0  0
    8.8969    1.7941    3.1148 H   0  0  0  0  0  0  0  0  0  0  0  0
    8.8312    3.4794    4.9604 H   0  0  0  0  0  0  0  0  0  0  0  0
    8.8414    4.7988    3.7642 H   0  0  0  0  0  0  0  0  0  0  0  0
   10.6356    5.0677    5.3815 H   0  0  0  0  0  0  0  0  0  0  0  0
  1  2  1  0  0  0  0
  1 18  1  0  0  0  0
  1 19  1  0  0  0  0
  2  3  1  0  0  0  0
  2 20  1  0  0  0  0
  2 21  1  0  0  0  0
  3  4  1  0  0  0  0
  3 22  1  0  0  0  0
  3 23  1  0  0  0  0
  4  5  1  0  0  0  0
  4 24  1  0  0  0  0
  4 25  1  0  0  0  0
  5  6  1  6  0  0  0
  5  7  1  0  0  0  0
  5 10  1  0  0  0  0
  7  8  2  0  0  0  0
  7  9  1  0  0  0  0
  9 26  1  0  0  0  0
 10 11  1  0  0  0  0
 10 27  1  0  0  0  0
 11 12  2  0  0  0  0
 11 13  1  0  0  0  0
 13 14  1  0  0  0  0
 13 28  1  0  0  0  0
 13 29  1  0  0  0  0
 14 15  1  0  0  0  0
 14 30  1  0  0  0  0
 14 31  1  0  0  0  0
 15 16  2  0  0  0  0
 15 17  1  0  0  0  0
 17 32  1  0  0  0  0
M  END
$$$$
