SVR
 OpenBabel04121316193D

126133  0  0  0  0  0  0  0  0999 V2000
    0.8802    0.2316   -0.2046 O   0  0  0  0  0  0  0  0  0  0  0  0
    2.0836    0.0345   -0.0460 C   0  0  0  0  0  0  0  0  0  0  0  0
    2.6368   -1.1475    0.3593 N   0  0  0  0  0  0  0  0  0  0  0  0
    1.9821   -2.3305    0.6132 C   0  0  0  0  0  0  0  0  0  0  0  0
    2.6865   -3.5141    0.5503 C   0  0  0  0  0  0  0  0  0  0  0  0
    2.0908   -4.7526    0.7445 C   0  0  0  0  0  0  0  0  0  0  0  0
    0.7325   -4.7612    0.9188 C   0  0  0  0  0  0  0  0  0  0  0  0
    0.0522   -3.5378    1.0478 C   0  0  0  0  0  0  0  0  0  0  0  0
    0.6916   -2.3315    0.9938 C   0  0  0  0  0  0  0  0  0  0  0  0
   -1.3815   -3.5599    1.1928 C   0  0  0  0  0  0  0  0  0  0  0  0
   -1.8350   -4.6735    1.1786 O   0  0  0  0  0  0  0  0  0  0  0  0
   -2.0562   -2.3547    1.2896 N   0  0  0  0  0  0  0  0  0  0  0  0
   -3.4484   -2.2447    1.3806 C   0  0  0  0  0  0  0  0  0  0  0  0
   -4.2364   -3.3819    1.4802 C   0  0  0  0  0  0  0  0  0  0  0  0
   -5.6070   -3.3382    1.3176 C   0  0  0  0  0  0  0  0  0  0  0  0
   -6.2151   -2.0943    1.3071 C   0  0  0  0  0  0  0  0  0  0  0  0
   -5.4539   -0.9345    1.4012 C   0  0  0  0  0  0  0  0  0  0  0  0
   -4.0587   -0.9922    1.3442 C   0  0  0  0  0  0  0  0  0  0  0  0
   -3.2705    0.2734    1.2078 C   0  0  0  0  0  0  0  0  0  0  0  0
   -6.4731   -4.5357    1.1536 C   0  0  0  0  0  0  0  0  0  0  0  0
   -7.6801   -4.3358    1.0704 O   0  0  0  0  0  0  0  0  0  0  0  0
   -5.8423   -5.7619    1.0829 N   0  0  0  0  0  0  0  0  0  0  0  0
   -6.4163   -7.0517    0.9771 C   0  0  0  0  0  0  0  0  0  0  0  0
   -7.7744   -7.1044    0.6682 C   0  0  0  0  0  0  0  0  0  0  0  0
   -8.4468   -8.2934    0.5287 C   0  0  0  0  0  0  0  0  0  0  0  0
   -7.7557   -9.4826    0.6837 C   0  0  0  0  0  0  0  0  0  0  0  0
   -6.3685   -9.5112    0.9867 C   0  0  0  0  0  0  0  0  0  0  0  0
   -5.6540   -8.2831    1.1578 C   0  0  0  0  0  0  0  0  0  0  0  0
   -4.2580   -8.4427    1.5128 C   0  0  0  0  0  0  0  0  0  0  0  0
   -3.6010   -9.6645    1.6255 C   0  0  0  0  0  0  0  0  0  0  0  0
   -4.3292  -10.8099    1.4349 C   0  0  0  0  0  0  0  0  0  0  0  0
   -5.6825  -10.7410    1.1320 C   0  0  0  0  0  0  0  0  0  0  0  0
   -3.5026  -12.3606    1.6053 S   0  0  0  0  0  0  0  0  0  0  0  0
   -2.5947  -12.4471    0.4823 O   0  0  0  0  0  0  0  0  0  0  0  0
   -3.0581  -12.4378    2.9761 O   0  0  0  0  0  0  0  0  0  0  0  0
   -4.6508  -13.4701    1.3713 O   0  0  0  0  0  0  0  0  0  0  0  0
   -3.2239   -7.0474    1.7180 S   0  0  0  0  0  0  0  0  0  0  0  0
   -3.2381   -6.4985    0.3782 O   0  0  0  0  0  0  0  0  0  0  0  0
   -3.7141   -6.3436    2.8812 O   0  0  0  0  0  0  0  0  0  0  0  0
   -1.7281   -7.5610    2.0138 O   0  0  0  0  0  0  0  0  0  0  0  0
   -8.6980  -10.9814    0.4852 S   0  0  0  0  0  0  0  0  0  0  0  0
   -8.2040  -11.6123   -0.7206 O   0  0  0  0  0  0  0  0  0  0  0  0
   -8.6961  -11.6554    1.7626 O   0  0  0  0  0  0  0  0  0  0  0  0
  -10.2100  -10.5086    0.1706 O   0  0  0  0  0  0  0  0  0  0  0  0
    2.9493    1.0639   -0.2905 N   0  0  0  0  0  0  0  0  0  0  0  0
    4.3505    1.0888   -0.3798 C   0  0  0  0  0  0  0  0  0  0  0  0
    5.0167    2.3092   -0.4310 C   0  0  0  0  0  0  0  0  0  0  0  0
    6.4148    2.3353   -0.5050 C   0  0  0  0  0  0  0  0  0  0  0  0
    7.1365    1.1483   -0.6442 C   0  0  0  0  0  0  0  0  0  0  0  0
    6.4696   -0.0741   -0.6211 C   0  0  0  0  0  0  0  0  0  0  0  0
    5.1047   -0.0734   -0.4701 C   0  0  0  0  0  0  0  0  0  0  0  0
    7.1947   -1.3508   -0.7879 C   0  0  0  0  0  0  0  0  0  0  0  0
    8.3998   -1.2126   -0.9394 O   0  0  0  0  0  0  0  0  0  0  0  0
    6.5129   -2.5759   -0.7294 N   0  0  0  0  0  0  0  0  0  0  0  0
    7.1034   -3.8480   -0.9601 C   0  0  0  0  0  0  0  0  0  0  0  0
    8.3018   -3.9463   -1.6283 C   0  0  0  0  0  0  0  0  0  0  0  0
    8.7908   -5.1694   -2.0746 C   0  0  0  0  0  0  0  0  0  0  0  0
    8.1677   -6.3420   -1.6791 C   0  0  0  0  0  0  0  0  0  0  0  0
    7.0620   -6.2846   -0.8729 C   0  0  0  0  0  0  0  0  0  0  0  0
    6.4861   -5.0484   -0.5902 C   0  0  0  0  0  0  0  0  0  0  0  0
    5.1674   -5.1108    0.0523 C   0  0  0  0  0  0  0  0  0  0  0  0
    9.9258   -5.3213   -3.0073 C   0  0  0  0  0  0  0  0  0  0  0  0
   10.1807   -6.4609   -3.3799 O   0  0  0  0  0  0  0  0  0  0  0  0
   10.5570   -4.1661   -3.4021 N   0  0  0  0  0  0  0  0  0  0  0  0
   11.6445   -4.0109   -4.2815 C   0  0  0  0  0  0  0  0  0  0  0  0
   12.2328   -5.1846   -4.7502 C   0  0  0  0  0  0  0  0  0  0  0  0
   13.3109   -5.1769   -5.5947 C   0  0  0  0  0  0  0  0  0  0  0  0
   13.8374   -3.9643   -5.9962 C   0  0  0  0  0  0  0  0  0  0  0  0
   13.2874   -2.7260   -5.5648 C   0  0  0  0  0  0  0  0  0  0  0  0
   12.1582   -2.7108   -4.6804 C   0  0  0  0  0  0  0  0  0  0  0  0
   11.6851   -1.3901   -4.3048 C   0  0  0  0  0  0  0  0  0  0  0  0
   12.2664   -0.2016   -4.7442 C   0  0  0  0  0  0  0  0  0  0  0  0
   13.3474   -0.2726   -5.5904 C   0  0  0  0  0  0  0  0  0  0  0  0
   13.8487   -1.5025   -5.9939 C   0  0  0  0  0  0  0  0  0  0  0  0
   14.0778    1.2367   -6.1513 S   0  0  0  0  0  0  0  0  0  0  0  0
   13.0892    1.8499   -7.0115 O   0  0  0  0  0  0  0  0  0  0  0  0
   14.6118    1.8941   -4.9831 O   0  0  0  0  0  0  0  0  0  0  0  0
   15.3061    0.7814   -7.0943 O   0  0  0  0  0  0  0  0  0  0  0  0
   10.3424   -1.1721   -3.1824 S   0  0  0  0  0  0  0  0  0  0  0  0
    9.1756   -1.6721   -3.8794 O   0  0  0  0  0  0  0  0  0  0  0  0
   10.8237   -1.7529   -1.9505 O   0  0  0  0  0  0  0  0  0  0  0  0
   10.1057    0.4061   -2.9853 O   0  0  0  0  0  0  0  0  0  0  0  0
   15.2444   -4.0418   -7.0862 S   0  0  0  0  0  0  0  0  0  0  0  0
   14.7945   -3.5228   -8.3604 O   0  0  0  0  0  0  0  0  0  0  0  0
   16.3642   -3.4729   -6.3735 O   0  0  0  0  0  0  0  0  0  0  0  0
   15.5390   -5.6149   -7.3077 O   0  0  0  0  0  0  0  0  0  0  0  0
    3.5493   -1.1344    0.7690 H   0  0  0  0  0  0  0  0  0  0  0  0
    3.7165   -3.3972    0.3005 H   0  0  0  0  0  0  0  0  0  0  0  0
    2.6339   -5.6921    0.7238 H   0  0  0  0  0  0  0  0  0  0  0  0
    0.2028   -5.7074    0.9644 H   0  0  0  0  0  0  0  0  0  0  0  0
    0.2372   -1.3904    1.2469 H   0  0  0  0  0  0  0  0  0  0  0  0
   -1.5595   -1.4867    1.1742 H   0  0  0  0  0  0  0  0  0  0  0  0
   -3.7572   -4.3109    1.6950 H   0  0  0  0  0  0  0  0  0  0  0  0
   -7.2953   -2.0340    1.2318 H   0  0  0  0  0  0  0  0  0  0  0  0
   -5.9728    0.0133    1.4820 H   0  0  0  0  0  0  0  0  0  0  0  0
   -3.9282    1.1463    1.2079 H   0  0  0  0  0  0  0  0  0  0  0  0
   -2.7259    0.2660    0.2568 H   0  0  0  0  0  0  0  0  0  0  0  0
   -2.5617    0.3752    2.0349 H   0  0  0  0  0  0  0  0  0  0  0  0
   -4.8445   -5.6919    1.0720 H   0  0  0  0  0  0  0  0  0  0  0  0
   -8.3611   -6.2102    0.5071 H   0  0  0  0  0  0  0  0  0  0  0  0
   -9.5066   -8.2379    0.3080 H   0  0  0  0  0  0  0  0  0  0  0  0
   -2.5410   -9.7253    1.8608 H   0  0  0  0  0  0  0  0  0  0  0  0
   -6.2129  -11.6818    1.0252 H   0  0  0  0  0  0  0  0  0  0  0  0
   -4.8927  -13.5170    0.4236 H   0  0  0  0  0  0  0  0  0  0  0  0
   -1.2626   -7.6155    1.1560 H   0  0  0  0  0  0  0  0  0  0  0  0
  -10.2709  -10.1694   -0.7454 H   0  0  0  0  0  0  0  0  0  0  0  0
    2.4470    1.9208   -0.4877 H   0  0  0  0  0  0  0  0  0  0  0  0
    4.4694    3.2477   -0.4013 H   0  0  0  0  0  0  0  0  0  0  0  0
    6.9510    3.2789   -0.4542 H   0  0  0  0  0  0  0  0  0  0  0  0
    8.2165    1.1733   -0.7782 H   0  0  0  0  0  0  0  0  0  0  0  0
    4.6552   -1.0361   -0.5155 H   0  0  0  0  0  0  0  0  0  0  0  0
    5.5323   -2.6157   -0.5143 H   0  0  0  0  0  0  0  0  0  0  0  0
    8.8170   -3.0399   -1.8424 H   0  0  0  0  0  0  0  0  0  0  0  0
    8.5402   -7.3043   -2.0087 H   0  0  0  0  0  0  0  0  0  0  0  0
    6.6201   -7.2065   -0.5103 H   0  0  0  0  0  0  0  0  0  0  0  0
    4.8519   -6.1164    0.3379 H   0  0  0  0  0  0  0  0  0  0  0  0
    4.4749   -4.7812   -0.7288 H   0  0  0  0  0  0  0  0  0  0  0  0
    5.1842   -4.4984    0.9584 H   0  0  0  0  0  0  0  0  0  0  0  0
   10.1935   -3.3510   -2.9617 H   0  0  0  0  0  0  0  0  0  0  0  0
   11.8882   -6.1642   -4.4511 H   0  0  0  0  0  0  0  0  0  0  0  0
   13.7107   -6.1399   -5.8901 H   0  0  0  0  0  0  0  0  0  0  0  0
   11.9018    0.7689   -4.4165 H   0  0  0  0  0  0  0  0  0  0  0  0
   14.7148   -1.4947   -6.6485 H   0  0  0  0  0  0  0  0  0  0  0  0
   14.9746    0.4383   -7.9496 H   0  0  0  0  0  0  0  0  0  0  0  0
    9.4760    0.7028   -3.6737 H   0  0  0  0  0  0  0  0  0  0  0  0
   14.8657   -6.0023   -7.9033 H   0  0  0  0  0  0  0  0  0  0  0  0
  1  2  2  0  0  0  0
  2  3  1  0  0  0  0
  2 45  1  0  0  0  0
  3  4  1  0  0  0  0
  3 87  1  0  0  0  0
  4  5  2  0  0  0  0
  4  9  1  0  0  0  0
  5  6  1  0  0  0  0
  5 88  1  0  0  0  0
  6  7  2  0  0  0  0
  6 89  1  0  0  0  0
  7  8  1  0  0  0  0
  7 90  1  0  0  0  0
  8  9  2  0  0  0  0
  8 10  1  0  0  0  0
  9 91  1  0  0  0  0
 10 11  2  0  0  0  0
 10 12  1  0  0  0  0
 12 13  1  0  0  0  0
 12 92  1  0  0  0  0
 13 14  2  0  0  0  0
 13 18  1  0  0  0  0
 14 15  1  0  0  0  0
 14 93  1  0  0  0  0
 15 16  2  0  0  0  0
 15 20  1  0  0  0  0
 16 17  1  0  0  0  0
 16 94  1  0  0  0  0
 17 18  2  0  0  0  0
 17 95  1  0  0  0  0
 18 19  1  0  0  0  0
 19 96  1  0  0  0  0
 19 97  1  0  0  0  0
 19 98  1  0  0  0  0
 20 21  2  0  0  0  0
 20 22  1  0  0  0  0
 22 23  1  0  0  0  0
 22 99  1  0  0  0  0
 23 24  2  0  0  0  0
 23 28  1  0  0  0  0
 24 25  1  0  0  0  0
 24100  1  0  0  0  0
 25 26  2  0  0  0  0
 25101  1  0  0  0  0
 26 27  1  0  0  0  0
 26 41  1  0  0  0  0
 27 28  2  0  0  0  0
 27 32  1  0  0  0  0
 28 29  1  0  0  0  0
 29 30  2  0  0  0  0
 29 37  1  0  0  0  0
 30 31  1  0  0  0  0
 30102  1  0  0  0  0
 31 32  2  0  0  0  0
 31 33  1  0  0  0  0
 32103  1  0  0  0  0
 33 34  2  0  0  0  0
 33 35  2  0  0  0  0
 33 36  1  0  0  0  0
 36104  1  0  0  0  0
 37 38  2  0  0  0  0
 37 39  2  0  0  0  0
 37 40  1  0  0  0  0
 40105  1  0  0  0  0
 41 42  2  0  0  0  0
 41 43  2  0  0  0  0
 41 44  1  0  0  0  0
 44106  1  0  0  0  0
 45 46  1  0  0  0  0
 45107  1  0  0  0  0
 46 47  2  0  0  0  0
 46 51  1  0  0  0  0
 47 48  1  0  0  0  0
 47108  1  0  0  0  0
 48 49  2  0  0  0  0
 48109  1  0  0  0  0
 49 50  1  0  0  0  0
 49110  1  0  0  0  0
 50 51  2  0  0  0  0
 50 52  1  0  0  0  0
 51111  1  0  0  0  0
 52 53  2  0  0  0  0
 52 54  1  0  0  0  0
 54 55  1  0  0  0  0
 54112  1  0  0  0  0
 55 56  2  0  0  0  0
 55 60  1  0  0  0  0
 56 57  1  0  0  0  0
 56113  1  0  0  0  0
 57 58  2  0  0  0  0
 57 62  1  0  0  0  0
 58 59  1  0  0  0  0
 58114  1  0  0  0  0
 59 60  2  0  0  0  0
 59115  1  0  0  0  0
 60 61  1  0  0  0  0
 61116  1  0  0  0  0
 61117  1  0  0  0  0
 61118  1  0  0  0  0
 62 63  2  0  0  0  0
 62 64  1  0  0  0  0
 64 65  1  0  0  0  0
 64119  1  0  0  0  0
 65 66  2  0  0  0  0
 65 70  1  0  0  0  0
 66 67  1  0  0  0  0
 66120  1  0  0  0  0
 67 68  2  0  0  0  0
 67121  1  0  0  0  0
 68 69  1  0  0  0  0
 68 83  1  0  0  0  0
 69 70  2  0  0  0  0
 69 74  1  0  0  0  0
 70 71  1  0  0  0  0
 71 72  2  0  0  0  0
 71 79  1  0  0  0  0
 72 73  1  0  0  0  0
 72122  1  0  0  0  0
 73 74  2  0  0  0  0
 73 75  1  0  0  0  0
 74123  1  0  0  0  0
 75 76  2  0  0  0  0
 75 77  2  0  0  0  0
 75 78  1  0  0  0  0
 78124  1  0  0  0  0
 79 80  2  0  0  0  0
 79 81  2  0  0  0  0
 79 82  1  0  0  0  0
 82125  1  0  0  0  0
 83 84  2  0  0  0  0
 83 85  2  0  0  0  0
 83 86  1  0  0  0  0
 86126  1  0  0  0  0
M  END
$$$$
