SWA
 OpenBabel04121316193D

 27 28  0  0  1  0  0  0  0  0999 V2000
    0.8139   -0.0266    0.2037 O   0  0  0  0  0  0  0  0  0  0  0  0
    2.2308   -0.0720    0.1182 C   0  0  2  0  0  0  0  0  0  0  0  0
    2.5050   -0.7094   -0.7306 H   0  0  0  0  0  0  0  0  0  0  0  0
    2.8874   -0.6262    1.3958 C   0  0  0  0  0  0  0  0  0  0  0  0
    3.9851    0.2845    1.6633 N   0  0  3  0  0  0  0  0  0  0  0  0
    4.2758    1.0988    0.5059 C   0  0  1  0  0  0  0  0  0  0  0  0
    4.8777    0.5581   -0.2398 H   0  0  0  0  0  0  0  0  0  0  0  0
    2.8697    1.3134   -0.0880 C   0  0  2  0  0  0  0  0  0  0  0  0
    2.8916    1.5722   -1.1512 H   0  0  0  0  0  0  0  0  0  0  0  0
    2.1202    2.3305    0.5893 O   0  0  0  0  0  0  0  0  0  0  0  0
    5.0062    2.3710    0.9328 C   0  0  2  0  0  0  0  0  0  0  0  0
    4.4100    2.9618    1.6406 H   0  0  0  0  0  0  0  0  0  0  0  0
    5.2810    3.2014   -0.1921 O   0  0  0  0  0  0  0  0  0  0  0  0
    6.3172    1.9949    1.6228 C   0  0  0  0  0  0  0  0  0  0  0  0
    6.1427    0.9709    2.7524 C   0  0  0  0  0  0  0  0  0  0  0  0
    5.0156   -0.0692    2.6028 C   0  0  0  0  0  0  0  0  0  0  0  0
    0.6113    0.7080    0.8163 H   0  0  0  0  0  0  0  0  0  0  0  0
    3.2057   -1.6607    1.2174 H   0  0  0  0  0  0  0  0  0  0  0  0
    2.1926   -0.6213    2.2407 H   0  0  0  0  0  0  0  0  0  0  0  0
    2.6278    3.1611    0.5272 H   0  0  0  0  0  0  0  0  0  0  0  0
    4.6357    3.0021   -0.9015 H   0  0  0  0  0  0  0  0  0  0  0  0
    6.7875    2.9001    2.0302 H   0  0  0  0  0  0  0  0  0  0  0  0
    7.0287    1.6161    0.8789 H   0  0  0  0  0  0  0  0  0  0  0  0
    5.9794    1.5194    3.6888 H   0  0  0  0  0  0  0  0  0  0  0  0
    7.0951    0.4398    2.8842 H   0  0  0  0  0  0  0  0  0  0  0  0
    4.5308   -0.1559    3.5843 H   0  0  0  0  0  0  0  0  0  0  0  0
    5.4529   -1.0531    2.3972 H   0  0  0  0  0  0  0  0  0  0  0  0
  1  2  1  0  0  0  0
  1 17  1  0  0  0  0
  2  4  1  0  0  0  0
  2  8  1  0  0  0  0
  2  3  1  6  0  0  0
  4  5  1  0  0  0  0
  4 18  1  0  0  0  0
  4 19  1  0  0  0  0
  5  6  1  0  0  0  0
  5 16  1  0  0  0  0
  6  8  1  0  0  0  0
  6 11  1  0  0  0  0
  6  7  1  6  0  0  0
  8 10  1  0  0  0  0
  8  9  1  6  0  0  0
 10 20  1  0  0  0  0
 11 14  1  0  0  0  0
 11 12  1  1  0  0  0
 11 13  1  0  0  0  0
 13 21  1  0  0  0  0
 14 15  1  0  0  0  0
 14 22  1  0  0  0  0
 14 23  1  0  0  0  0
 15 16  1  0  0  0  0
 15 24  1  0  0  0  0
 15 25  1  0  0  0  0
 16 26  1  0  0  0  0
 16 27  1  0  0  0  0
M  END
$$$$
