SX2
 OpenBabel04121316193D

 24 24  0  0  0  0  0  0  0  0999 V2000
    1.0446   -0.1209    0.0448 O   0  0  0  0  0  0  0  0  0  0  0  0
    2.2746   -0.0928    0.1027 C   0  0  0  0  0  0  0  0  0  0  0  0
    2.9930    0.2311    1.2450 N   0  0  0  0  0  0  0  0  0  0  0  0
    2.2994    0.6633    2.3806 C   0  0  0  0  0  0  0  0  0  0  0  0
    1.5667   -0.2796    3.0860 C   0  0  0  0  0  0  0  0  0  0  0  0
    0.7767    0.1388    4.1485 C   0  0  0  0  0  0  0  0  0  0  0  0
    0.7816    1.4805    4.4977 C   0  0  0  0  0  0  0  0  0  0  0  0
    1.6409    2.3338    3.8170 C   0  0  0  0  0  0  0  0  0  0  0  0
    2.4254    1.9483    2.7714 N   0  0  0  0  0  0  0  0  0  0  0  0
   -0.3489    2.1021    5.8712 Br  0  0  0  0  0  0  0  0  0  0  0  0
    3.0830   -0.4560   -1.1321 C   0  0  0  0  0  0  0  0  0  0  0  0
    4.5967   -0.4001   -0.9805 C   0  0  0  0  0  0  0  0  0  0  0  0
    5.2834   -0.8308   -2.2479 C   0  0  0  0  0  0  0  0  0  0  0  0
    4.7053   -1.1784   -3.2731 O   0  0  0  0  0  0  0  0  0  0  0  0
    6.6292   -0.8008   -2.1618 O   0  0  0  0  0  0  0  0  0  0  0  0
    3.8887    0.6758    1.1324 H   0  0  0  0  0  0  0  0  0  0  0  0
    1.6320   -1.3284    2.8209 H   0  0  0  0  0  0  0  0  0  0  0  0
    0.1653   -0.5847    4.6771 H   0  0  0  0  0  0  0  0  0  0  0  0
    1.7299    3.3790    4.1041 H   0  0  0  0  0  0  0  0  0  0  0  0
    2.7667    0.2053   -1.9500 H   0  0  0  0  0  0  0  0  0  0  0  0
    2.7815   -1.4744   -1.4132 H   0  0  0  0  0  0  0  0  0  0  0  0
    4.9108   -1.0674   -0.1702 H   0  0  0  0  0  0  0  0  0  0  0  0
    4.9081    0.6246   -0.7496 H   0  0  0  0  0  0  0  0  0  0  0  0
    6.9894   -0.5071   -1.3037 H   0  0  0  0  0  0  0  0  0  0  0  0
  1  2  2  0  0  0  0
  2  3  1  0  0  0  0
  2 11  1  0  0  0  0
  3  4  1  0  0  0  0
  3 16  1  0  0  0  0
  4  5  2  0  0  0  0
  4  9  1  0  0  0  0
  5  6  1  0  0  0  0
  5 17  1  0  0  0  0
  6  7  2  0  0  0  0
  6 18  1  0  0  0  0
  7  8  1  0  0  0  0
  7 10  1  0  0  0  0
  8  9  2  0  0  0  0
  8 19  1  0  0  0  0
 11 12  1  0  0  0  0
 11 20  1  0  0  0  0
 11 21  1  0  0  0  0
 12 13  1  0  0  0  0
 12 22  1  0  0  0  0
 12 23  1  0  0  0  0
 13 14  2  0  0  0  0
 13 15  1  0  0  0  0
 15 24  1  0  0  0  0
M  END
$$$$
