SX4
 OpenBabel04121316193D

 41 43  0  0  1  0  0  0  0  0999 V2000
    1.0264    0.0696    0.6868 Br  0  0  0  0  0  0  0  0  0  0  0  0
    2.9249    0.0218    0.6943 C   0  0  0  0  0  0  0  0  0  0  0  0
    3.6560    1.1893    0.5410 C   0  0  0  0  0  0  0  0  0  0  0  0
    5.0491    1.1204    0.4206 C   0  0  0  0  0  0  0  0  0  0  0  0
    5.7015   -0.1196    0.2723 C   0  0  0  0  0  0  0  0  0  0  0  0
    4.9454   -1.3111    0.4204 C   0  0  0  0  0  0  0  0  0  0  0  0
    3.5744   -1.2091    0.7020 C   0  0  0  0  0  0  0  0  0  0  0  0
    5.5712   -2.6607    0.1639 C   0  0  0  0  0  0  0  0  0  0  0  0
    6.7830   -2.7882    0.2871 O   0  0  0  0  0  0  0  0  0  0  0  0
    4.7930   -3.7623   -0.2143 N   0  0  0  0  0  0  0  0  0  0  0  0
    5.1725   -5.0543    0.3318 C   0  0  0  0  0  0  0  0  0  0  0  0
    4.5387   -6.0724   -0.5863 C   0  0  0  0  0  0  0  0  0  0  0  0
    3.2770   -5.3863   -1.0899 C   0  0  0  0  0  0  0  0  0  0  0  0
    3.5235   -3.8598   -0.9594 C   0  0  2  0  0  0  0  0  0  0  0  0
    2.7065   -3.5058   -0.3320 H   0  0  0  0  0  0  0  0  0  0  0  0
    3.4390   -3.2009   -2.3650 C   0  0  0  0  0  0  0  0  0  0  0  0
    3.6289   -1.7059   -2.5230 C   0  0  0  0  0  0  0  0  0  0  0  0
    2.5197   -0.8415   -2.4324 C   0  0  0  0  0  0  0  0  0  0  0  0
    2.6737    0.5517   -2.4936 C   0  0  0  0  0  0  0  0  0  0  0  0
    3.9473    1.1043   -2.5483 C   0  0  0  0  0  0  0  0  0  0  0  0
    5.0511    0.2633   -2.6563 C   0  0  0  0  0  0  0  0  0  0  0  0
    4.8898   -1.1251   -2.7302 C   0  0  0  0  0  0  0  0  0  0  0  0
    6.3080   -2.0690   -3.0138 Cl  0  0  0  0  0  0  0  0  0  0  0  0
    7.0854   -0.1112    0.0212 N   0  0  0  0  0  0  0  0  0  0  0  0
    3.1484    2.1382    0.3843 H   0  0  0  0  0  0  0  0  0  0  0  0
    5.6022    2.0437    0.2647 H   0  0  0  0  0  0  0  0  0  0  0  0
    2.9708   -2.0895    0.8412 H   0  0  0  0  0  0  0  0  0  0  0  0
    4.7236   -5.1117    1.3323 H   0  0  0  0  0  0  0  0  0  0  0  0
    6.2532   -5.1834    0.4438 H   0  0  0  0  0  0  0  0  0  0  0  0
    4.3208   -7.0155   -0.0738 H   0  0  0  0  0  0  0  0  0  0  0  0
    5.2062   -6.2912   -1.4266 H   0  0  0  0  0  0  0  0  0  0  0  0
    2.4211   -5.6771   -0.4687 H   0  0  0  0  0  0  0  0  0  0  0  0
    3.0464   -5.6962   -2.1147 H   0  0  0  0  0  0  0  0  0  0  0  0
    2.4342   -3.4255   -2.7511 H   0  0  0  0  0  0  0  0  0  0  0  0
    4.1221   -3.7159   -3.0458 H   0  0  0  0  0  0  0  0  0  0  0  0
    1.5260   -1.2400   -2.2337 H   0  0  0  0  0  0  0  0  0  0  0  0
    1.8147    1.2065   -2.3581 H   0  0  0  0  0  0  0  0  0  0  0  0
    4.0922    2.1697   -2.3788 H   0  0  0  0  0  0  0  0  0  0  0  0
    6.0486    0.6825   -2.5358 H   0  0  0  0  0  0  0  0  0  0  0  0
    7.4711    0.7078   -0.4325 H   0  0  0  0  0  0  0  0  0  0  0  0
    7.4126   -0.9936   -0.3927 H   0  0  0  0  0  0  0  0  0  0  0  0
  1  2  1  0  0  0  0
  2  3  2  0  0  0  0
  2  7  1  0  0  0  0
  3  4  1  0  0  0  0
  3 25  1  0  0  0  0
  4  5  2  0  0  0  0
  4 26  1  0  0  0  0
  5  6  1  0  0  0  0
  5 24  1  0  0  0  0
  6  7  2  0  0  0  0
  6  8  1  0  0  0  0
  7 27  1  0  0  0  0
  8  9  2  0  0  0  0
  8 10  1  0  0  0  0
 10 11  1  0  0  0  0
 10 14  1  0  0  0  0
 11 12  1  0  0  0  0
 11 28  1  0  0  0  0
 11 29  1  0  0  0  0
 12 13  1  0  0  0  0
 12 30  1  0  0  0  0
 12 31  1  0  0  0  0
 13 14  1  0  0  0  0
 13 32  1  0  0  0  0
 13 33  1  0  0  0  0
 14 15  1  1  0  0  0
 14 16  1  0  0  0  0
 16 17  1  0  0  0  0
 16 34  1  0  0  0  0
 16 35  1  0  0  0  0
 17 18  2  0  0  0  0
 17 22  1  0  0  0  0
 18 19  1  0  0  0  0
 18 36  1  0  0  0  0
 19 20  2  0  0  0  0
 19 37  1  0  0  0  0
 20 21  1  0  0  0  0
 20 38  1  0  0  0  0
 21 22  2  0  0  0  0
 21 39  1  0  0  0  0
 22 23  1  0  0  0  0
 24 40  1  0  0  0  0
 24 41  1  0  0  0  0
M  END
$$$$
