SX7
 OpenBabel04121316193D

 50 53  0  0  0  0  0  0  0  0999 V2000
    0.9504    0.0895   -0.6092 C   0  0  0  0  0  0  0  0  0  0  0  0
    2.4713   -0.0014   -0.4186 C   0  0  0  0  0  0  0  0  0  0  0  0
    2.9272   -1.3437   -0.6652 N   0  0  0  0  0  0  0  0  0  0  0  0
    3.7926   -1.5394   -1.6703 N   0  0  0  0  0  0  0  0  0  0  0  0
    3.8172   -2.8634   -1.7885 C   0  0  0  0  0  0  0  0  0  0  0  0
    3.0156   -3.5011   -0.8168 C   0  0  0  0  0  0  0  0  0  0  0  0
    2.5269   -2.4871   -0.0106 C   0  0  0  0  0  0  0  0  0  0  0  0
    1.6361   -2.6198    1.2108 C   0  0  0  0  0  0  0  0  0  0  0  0
    1.1375   -3.8304    1.6486 C   0  0  0  0  0  0  0  0  0  0  0  0
    0.2129   -3.5858    2.6435 N   0  0  0  0  0  0  0  0  0  0  0  0
   -0.3067   -4.2889    3.1467 H   0  0  0  0  0  0  0  0  0  0  0  0
    0.0593   -2.2343    2.8253 C   0  0  0  0  0  0  0  0  0  0  0  0
    1.0397   -1.6225    2.0650 C   0  0  0  0  0  0  0  0  0  0  0  0
    1.1065   -0.2318    2.2401 C   0  0  0  0  0  0  0  0  0  0  0  0
    0.0936    0.5352    2.7682 C   0  0  0  0  0  0  0  0  0  0  0  0
   -0.7964   -0.2328    3.5158 C   0  0  0  0  0  0  0  0  0  0  0  0
   -0.8417   -1.6100    3.6188 N   0  0  0  0  0  0  0  0  0  0  0  0
    0.0768    2.0123    2.4950 C   0  0  0  0  0  0  0  0  0  0  0  0
    1.1396    2.7691    1.9669 C   0  0  0  0  0  0  0  0  0  0  0  0
    1.0689    4.1643    1.8442 C   0  0  0  0  0  0  0  0  0  0  0  0
    0.0248    4.8615    2.4454 C   0  0  0  0  0  0  0  0  0  0  0  0
   -1.0994    4.1179    2.8561 C   0  0  0  0  0  0  0  0  0  0  0  0
   -1.0924    2.7408    2.6191 C   0  0  0  0  0  0  0  0  0  0  0  0
   -2.2110    4.7957    3.6271 C   0  0  0  0  0  0  0  0  0  0  0  0
   -2.1271    6.0029    3.7901 O   0  0  0  0  0  0  0  0  0  0  0  0
   -3.2621    4.0771    4.2370 N   0  0  0  0  0  0  0  0  0  0  0  0
   -3.5094    2.6497    4.2770 C   0  0  0  0  0  0  0  0  0  0  0  0
   -4.2824    4.8491    4.9246 C   0  0  0  0  0  0  0  0  0  0  0  0
    0.0214    6.2632    2.3647 N   0  0  0  0  0  0  0  0  0  0  0  0
    0.5330    1.0114   -0.2010 H   0  0  0  0  0  0  0  0  0  0  0  0
    0.3825   -0.7376   -0.1676 H   0  0  0  0  0  0  0  0  0  0  0  0
    0.6917    0.0267   -1.6654 H   0  0  0  0  0  0  0  0  0  0  0  0
    2.9353    0.1990    0.5449 H   0  0  0  0  0  0  0  0  0  0  0  0
    2.9717    0.7311   -1.0527 H   0  0  0  0  0  0  0  0  0  0  0  0
    4.4095   -3.2931   -2.5845 H   0  0  0  0  0  0  0  0  0  0  0  0
    2.8348   -4.5606   -0.7288 H   0  0  0  0  0  0  0  0  0  0  0  0
    1.3289   -4.8401    1.3105 H   0  0  0  0  0  0  0  0  0  0  0  0
    1.9068    0.3334    1.8459 H   0  0  0  0  0  0  0  0  0  0  0  0
   -1.5359    0.2517    4.1469 H   0  0  0  0  0  0  0  0  0  0  0  0
    2.0461    2.3142    1.5800 H   0  0  0  0  0  0  0  0  0  0  0  0
    1.8597    4.7005    1.3245 H   0  0  0  0  0  0  0  0  0  0  0  0
   -2.0182    2.2082    2.4466 H   0  0  0  0  0  0  0  0  0  0  0  0
   -2.6289    2.0559    4.1158 H   0  0  0  0  0  0  0  0  0  0  0  0
   -4.2845    2.4061    3.5440 H   0  0  0  0  0  0  0  0  0  0  0  0
   -3.8087    2.3492    5.2810 H   0  0  0  0  0  0  0  0  0  0  0  0
   -4.0691    5.9178    4.9629 H   0  0  0  0  0  0  0  0  0  0  0  0
   -4.3550    4.4729    5.9501 H   0  0  0  0  0  0  0  0  0  0  0  0
   -5.2346    4.6919    4.4097 H   0  0  0  0  0  0  0  0  0  0  0  0
    0.9229    6.7227    2.3469 H   0  0  0  0  0  0  0  0  0  0  0  0
   -0.6182    6.6667    3.0651 H   0  0  0  0  0  0  0  0  0  0  0  0
  1  2  1  0  0  0  0
  1 30  1  0  0  0  0
  1 31  1  0  0  0  0
  1 32  1  0  0  0  0
  2  3  1  0  0  0  0
  2 33  1  0  0  0  0
  2 34  1  0  0  0  0
  3  4  1  0  0  0  0
  3  7  1  0  0  0  0
  4  5  2  0  0  0  0
  5  6  1  0  0  0  0
  5 35  1  0  0  0  0
  6  7  2  0  0  0  0
  6 36  1  0  0  0  0
  7  8  1  0  0  0  0
  8  9  2  0  0  0  0
  8 13  1  0  0  0  0
  9 10  1  0  0  0  0
  9 37  1  0  0  0  0
 10 11  1  0  0  0  0
 10 12  1  0  0  0  0
 12 13  2  0  0  0  0
 12 17  1  0  0  0  0
 13 14  1  0  0  0  0
 14 15  2  0  0  0  0
 14 38  1  0  0  0  0
 15 16  1  0  0  0  0
 15 18  1  0  0  0  0
 16 17  2  0  0  0  0
 16 39  1  0  0  0  0
 18 19  2  0  0  0  0
 18 23  1  0  0  0  0
 19 20  1  0  0  0  0
 19 40  1  0  0  0  0
 20 21  2  0  0  0  0
 20 41  1  0  0  0  0
 21 22  1  0  0  0  0
 21 29  1  0  0  0  0
 22 23  2  0  0  0  0
 22 24  1  0  0  0  0
 23 42  1  0  0  0  0
 24 25  2  0  0  0  0
 24 26  1  0  0  0  0
 26 27  1  0  0  0  0
 26 28  1  0  0  0  0
 27 43  1  0  0  0  0
 27 44  1  0  0  0  0
 27 45  1  0  0  0  0
 28 46  1  0  0  0  0
 28 47  1  0  0  0  0
 28 48  1  0  0  0  0
 29 49  1  0  0  0  0
 29 50  1  0  0  0  0
M  END
$$$$
