SY2
 OpenBabel04121316193D

 76 76  0  0  1  0  0  0  0  0999 V2000
    6.7709    1.1733    2.6340 O   0  0  0  0  0  0  0  0  0  0  0  0
    6.4223    2.1239    3.3248 C   0  0  0  0  0  0  0  0  0  0  0  0
    6.2330    3.3291    2.7560 N   0  0  0  0  0  0  0  0  0  0  0  0
    6.3641    3.4021    1.3000 C   0  0  2  0  0  0  0  0  0  0  0  0
    5.7839    2.5919    0.8308 H   0  0  0  0  0  0  0  0  0  0  0  0
    7.7787    3.1906    0.8527 C   0  0  0  0  0  0  0  0  0  0  0  0
    8.5800    4.0941    0.5962 O   0  0  0  0  0  0  0  0  0  0  0  0
    8.1513    1.9054    0.8196 O   0  0  0  0  0  0  0  0  0  0  0  0
    5.9573    4.7598    0.7390 C   0  0  0  0  0  0  0  0  0  0  0  0
    4.4472    4.8415    0.8178 C   0  0  0  0  0  0  0  0  0  0  0  0
    6.6303    5.9242    1.4866 C   0  0  0  0  0  0  0  0  0  0  0  0
    6.4012    2.0999    4.6804 N   0  0  0  0  0  0  0  0  0  0  0  0
    6.7817    0.8549    5.3647 C   0  0  2  0  0  0  0  0  0  0  0  0
    7.2022    1.1533    6.3357 H   0  0  0  0  0  0  0  0  0  0  0  0
    7.9190    0.1339    4.6090 C   0  0  0  0  0  0  0  0  0  0  0  0
    7.9355   -1.0642    4.3312 O   0  0  0  0  0  0  0  0  0  0  0  0
    9.0020    0.8787    4.2691 N   0  0  0  0  0  0  0  0  0  0  0  0
    9.3889    2.2012    4.7339 C   0  0  1  0  0  0  0  0  0  0  0  0
    8.5064    2.7570    5.0496 H   0  0  0  0  0  0  0  0  0  0  0  0
   10.3068    2.1534    5.9442 C   0  0  0  0  0  0  0  0  0  0  0  0
   10.0880    0.9376    6.8470 C   0  0  0  0  0  0  0  0  0  0  0  0
   11.3687    0.1261    6.9941 C   0  0  0  0  0  0  0  0  0  0  0  0
   11.7328   -0.5993    5.7056 C   0  0  0  0  0  0  0  0  0  0  0  0
   12.9444   -0.1174    5.0679 N   0  0  0  0  0  0  0  0  0  0  0  0
   13.2562   -0.6697    3.8428 C   0  0  0  0  0  0  0  0  0  0  0  0
   14.3090   -1.2141    3.5562 O   0  0  0  0  0  0  0  0  0  0  0  0
   12.1911   -0.4543    2.8534 C   0  0  0  0  0  0  0  0  0  0  0  0
   11.6974    0.7944    2.8207 C   0  0  0  0  0  0  0  0  0  0  0  0
   10.6773    1.2997    1.8616 C   0  0  1  0  0  0  0  0  0  0  0  0
    9.8586    0.5744    1.7650 H   0  0  0  0  0  0  0  0  0  0  0  0
   10.1910    2.5750    2.3949 N   0  0  0  0  0  0  0  0  0  0  0  0
    9.9800    3.0757    3.6350 C   0  0  0  0  0  0  0  0  0  0  0  0
   10.2282    4.2653    3.8452 O   0  0  0  0  0  0  0  0  0  0  0  0
   11.3667    1.5695    0.5068 C   0  0  0  0  0  0  0  0  0  0  0  0
   10.4550    2.1011   -0.5855 C   0  0  0  0  0  0  0  0  0  0  0  0
   12.0094    0.3258   -0.0788 C   0  0  0  0  0  0  0  0  0  0  0  0
    5.5992   -0.0795    5.5939 C   0  0  0  0  0  0  0  0  0  0  0  0
    4.6152    0.5870    6.5488 C   0  0  0  0  0  0  0  0  0  0  0  0
    4.9106   -0.4497    4.2796 C   0  0  0  0  0  0  0  0  0  0  0  0
    5.5446    3.9164    3.2002 H   0  0  0  0  0  0  0  0  0  0  0  0
    7.7685    1.4103    1.5884 H   0  0  0  0  0  0  0  0  0  0  0  0
    6.2514    4.8098   -0.3216 H   0  0  0  0  0  0  0  0  0  0  0  0
    4.1118    4.7718    1.8561 H   0  0  0  0  0  0  0  0  0  0  0  0
    3.9975    4.0091    0.2639 H   0  0  0  0  0  0  0  0  0  0  0  0
    4.0964    5.7811    0.3941 H   0  0  0  0  0  0  0  0  0  0  0  0
    6.4108    5.8908    2.5567 H   0  0  0  0  0  0  0  0  0  0  0  0
    6.2966    6.8796    1.0829 H   0  0  0  0  0  0  0  0  0  0  0  0
    7.7220    5.9274    1.4045 H   0  0  0  0  0  0  0  0  0  0  0  0
    5.9146    2.8197    5.1953 H   0  0  0  0  0  0  0  0  0  0  0  0
    9.6558    0.3262    3.7465 H   0  0  0  0  0  0  0  0  0  0  0  0
   10.1475    3.0694    6.5295 H   0  0  0  0  0  0  0  0  0  0  0  0
   11.3472    2.2160    5.6121 H   0  0  0  0  0  0  0  0  0  0  0  0
    9.3285    0.2417    6.4918 H   0  0  0  0  0  0  0  0  0  0  0  0
    9.7013    1.2668    7.8152 H   0  0  0  0  0  0  0  0  0  0  0  0
   11.1768   -0.6354    7.7540 H   0  0  0  0  0  0  0  0  0  0  0  0
   12.1755    0.7747    7.3440 H   0  0  0  0  0  0  0  0  0  0  0  0
   10.9147   -0.5422    4.9903 H   0  0  0  0  0  0  0  0  0  0  0  0
   11.8562   -1.6726    5.8751 H   0  0  0  0  0  0  0  0  0  0  0  0
   13.7490    0.0871    5.6445 H   0  0  0  0  0  0  0  0  0  0  0  0
   11.9608   -1.2317    2.1393 H   0  0  0  0  0  0  0  0  0  0  0  0
   12.0528    1.5171    3.5528 H   0  0  0  0  0  0  0  0  0  0  0  0
    9.9075    3.2474    1.6899 H   0  0  0  0  0  0  0  0  0  0  0  0
   12.1321    2.3346    0.6899 H   0  0  0  0  0  0  0  0  0  0  0  0
    9.6269    1.4156   -0.7929 H   0  0  0  0  0  0  0  0  0  0  0  0
   10.9850    2.2698   -1.5204 H   0  0  0  0  0  0  0  0  0  0  0  0
   10.1013    3.0827   -0.3197 H   0  0  0  0  0  0  0  0  0  0  0  0
   11.2610   -0.4682   -0.1868 H   0  0  0  0  0  0  0  0  0  0  0  0
   12.8359   -0.0303    0.5324 H   0  0  0  0  0  0  0  0  0  0  0  0
   12.4388    0.5537   -1.0538 H   0  0  0  0  0  0  0  0  0  0  0  0
    5.9689   -0.9998    6.0666 H   0  0  0  0  0  0  0  0  0  0  0  0
    4.2261    1.5194    6.1266 H   0  0  0  0  0  0  0  0  0  0  0  0
    5.1020    0.8284    7.5006 H   0  0  0  0  0  0  0  0  0  0  0  0
    3.7708   -0.0748    6.7495 H   0  0  0  0  0  0  0  0  0  0  0  0
    4.5112    0.4379    3.7799 H   0  0  0  0  0  0  0  0  0  0  0  0
    4.0807   -1.1338    4.4514 H   0  0  0  0  0  0  0  0  0  0  0  0
    5.6009   -0.9373    3.5831 H   0  0  0  0  0  0  0  0  0  0  0  0
  1  2  2  0  0  0  0
  2  3  1  0  0  0  0
  2 12  1  0  0  0  0
  3 40  1  0  0  0  0
  4  6  1  0  0  0  0
  4  9  1  0  0  0  0
  4  5  1  6  0  0  0
  4  3  1  0  0  0  0
  6  7  2  0  0  0  0
  6  8  1  0  0  0  0
  8 41  1  0  0  0  0
  9 10  1  0  0  0  0
  9 11  1  0  0  0  0
  9 42  1  0  0  0  0
 10 43  1  0  0  0  0
 10 44  1  0  0  0  0
 10 45  1  0  0  0  0
 11 46  1  0  0  0  0
 11 47  1  0  0  0  0
 11 48  1  0  0  0  0
 12 49  1  0  0  0  0
 13 15  1  0  0  0  0
 13 37  1  0  0  0  0
 13 14  1  1  0  0  0
 13 12  1  0  0  0  0
 15 16  2  0  0  0  0
 15 17  1  0  0  0  0
 17 50  1  0  0  0  0
 18 20  1  0  0  0  0
 18 32  1  0  0  0  0
 18 19  1  1  0  0  0
 18 17  1  0  0  0  0
 20 21  1  0  0  0  0
 20 51  1  0  0  0  0
 20 52  1  0  0  0  0
 21 22  1  0  0  0  0
 21 53  1  0  0  0  0
 21 54  1  0  0  0  0
 22 23  1  0  0  0  0
 22 55  1  0  0  0  0
 22 56  1  0  0  0  0
 23 24  1  0  0  0  0
 23 57  1  0  0  0  0
 23 58  1  0  0  0  0
 24 25  1  0  0  0  0
 24 59  1  0  0  0  0
 25 26  2  0  0  0  0
 25 27  1  0  0  0  0
 27 28  2  0  0  0  0
 27 60  1  0  0  0  0
 28 29  1  0  0  0  0
 28 61  1  0  0  0  0
 29 31  1  0  0  0  0
 29 34  1  0  0  0  0
 29 30  1  6  0  0  0
 31 32  1  0  0  0  0
 31 62  1  0  0  0  0
 32 33  2  0  0  0  0
 34 35  1  0  0  0  0
 34 36  1  0  0  0  0
 34 63  1  0  0  0  0
 35 64  1  0  0  0  0
 35 65  1  0  0  0  0
 35 66  1  0  0  0  0
 36 67  1  0  0  0  0
 36 68  1  0  0  0  0
 36 69  1  0  0  0  0
 37 38  1  0  0  0  0
 37 39  1  0  0  0  0
 37 70  1  0  0  0  0
 38 71  1  0  0  0  0
 38 72  1  0  0  0  0
 38 73  1  0  0  0  0
 39 74  1  0  0  0  0
 39 75  1  0  0  0  0
 39 76  1  0  0  0  0
M  END
$$$$
