T04
 OpenBabel04121316193D

 55 57  0  0  1  0  0  0  0  0999 V2000
    4.1913    5.4224    0.2612 O   0  0  0  0  0  0  0  0  0  0  0  0
    4.0837    4.5065    1.2373 C   0  0  0  0  0  0  0  0  0  0  0  0
    3.2512    4.6418    2.1212 O   0  0  0  0  0  0  0  0  0  0  0  0
    5.0973    3.3967    1.1078 C   0  0  0  0  0  0  0  0  0  0  0  0
    5.0104    2.5057    2.3514 C   0  0  0  0  0  0  0  0  0  0  0  0
    5.4512    1.0482    2.1747 C   0  0  2  0  0  0  0  0  0  0  0  0
    4.9492    0.5971    1.3078 H   0  0  0  0  0  0  0  0  0  0  0  0
    5.0759    0.1700    3.4079 C   0  0  0  0  0  0  0  0  0  0  0  0
    5.8541   -0.5628    4.0059 O   0  0  0  0  0  0  0  0  0  0  0  0
    3.7622    0.1827    3.7403 O   0  0  0  0  0  0  0  0  0  0  0  0
    6.8829    0.9421    1.9245 N   0  0  0  0  0  0  0  0  0  0  0  0
    7.7647    1.3547    2.9029 C   0  0  0  0  0  0  0  0  0  0  0  0
    7.4530    1.9599    3.9213 O   0  0  0  0  0  0  0  0  0  0  0  0
    9.1773    1.1762    2.6147 C   0  0  0  0  0  0  0  0  0  0  0  0
    9.9257    2.3365    2.5357 C   0  0  0  0  0  0  0  0  0  0  0  0
   11.2465    2.2937    2.0863 C   0  0  0  0  0  0  0  0  0  0  0  0
   12.0114    3.5374    1.7360 C   0  0  0  0  0  0  0  0  0  0  0  0
   11.2972    4.7292    2.1482 N   0  0  0  0  0  0  0  0  0  0  0  0
   11.6760    5.9788    1.7292 C   0  0  0  0  0  0  0  0  0  0  0  0
   11.1147    7.1026    2.3467 C   0  0  0  0  0  0  0  0  0  0  0  0
   11.4237    8.3971    1.9141 C   0  0  0  0  0  0  0  0  0  0  0  0
   12.4038    8.5776    0.9401 C   0  0  0  0  0  0  0  0  0  0  0  0
   13.1030    7.4336    0.5493 C   0  0  0  0  0  0  0  0  0  0  0  0
   12.6795    6.1597    0.8176 C   0  0  0  0  0  0  0  0  0  0  0  0
   12.7086    9.9097    0.3624 C   0  0  0  0  0  0  0  0  0  0  0  0
   13.5395   10.1503   -0.6732 C   0  0  0  0  0  0  0  0  0  0  0  0
   14.4755    9.0177   -1.6023 S   0  0  0  0  0  0  0  0  0  0  0  0
   15.8501   10.0489   -1.4640 C   0  0  0  0  0  0  0  0  0  0  0  0
   17.4203    9.5723   -1.2915 S   0  0  0  0  0  0  0  0  0  0  0  0
   15.3684   11.3199   -1.4909 N   0  0  0  0  0  0  0  0  0  0  0  0
   14.0508   11.4776   -1.1143 C   0  0  0  0  0  0  0  0  0  0  0  0
   13.4093   12.5235   -1.1432 O   0  0  0  0  0  0  0  0  0  0  0  0
   11.8492    1.0435    1.8985 C   0  0  0  0  0  0  0  0  0  0  0  0
   11.1307   -0.1265    2.1491 C   0  0  0  0  0  0  0  0  0  0  0  0
    9.7729   -0.0544    2.4380 C   0  0  0  0  0  0  0  0  0  0  0  0
    9.0601   -1.1804    2.5464 F   0  0  0  0  0  0  0  0  0  0  0  0
    3.6019    6.1501    0.5560 H   0  0  0  0  0  0  0  0  0  0  0  0
    6.0904    3.8602    1.0523 H   0  0  0  0  0  0  0  0  0  0  0  0
    4.9107    2.8428    0.1821 H   0  0  0  0  0  0  0  0  0  0  0  0
    3.9914    2.5093    2.7406 H   0  0  0  0  0  0  0  0  0  0  0  0
    5.6018    3.0008    3.1264 H   0  0  0  0  0  0  0  0  0  0  0  0
    3.1786    0.7533    3.2108 H   0  0  0  0  0  0  0  0  0  0  0  0
    7.2226    0.4314    1.1172 H   0  0  0  0  0  0  0  0  0  0  0  0
    9.4211    3.2533    2.8208 H   0  0  0  0  0  0  0  0  0  0  0  0
   12.1973    3.5020    0.6518 H   0  0  0  0  0  0  0  0  0  0  0  0
   12.9792    3.5254    2.2508 H   0  0  0  0  0  0  0  0  0  0  0  0
   10.2976    4.6923    2.2702 H   0  0  0  0  0  0  0  0  0  0  0  0
   10.4354    6.9578    3.1837 H   0  0  0  0  0  0  0  0  0  0  0  0
   10.9016    9.2341    2.3693 H   0  0  0  0  0  0  0  0  0  0  0  0
   14.0311    7.4328    0.0123 H   0  0  0  0  0  0  0  0  0  0  0  0
   13.1803    5.3493    0.3008 H   0  0  0  0  0  0  0  0  0  0  0  0
   12.2037   10.7446    0.8533 H   0  0  0  0  0  0  0  0  0  0  0  0
   15.9418   12.0898   -1.7916 H   0  0  0  0  0  0  0  0  0  0  0  0
   12.8823    0.9799    1.5607 H   0  0  0  0  0  0  0  0  0  0  0  0
   11.6186   -1.0929    2.1048 H   0  0  0  0  0  0  0  0  0  0  0  0
  1  2  1  0  0  0  0
  1 37  1  0  0  0  0
  2  3  2  0  0  0  0
  2  4  1  0  0  0  0
  4  5  1  0  0  0  0
  4 38  1  0  0  0  0
  4 39  1  0  0  0  0
  5 40  1  0  0  0  0
  5 41  1  0  0  0  0
  6  8  1  0  0  0  0
  6 11  1  0  0  0  0
  6  7  1  6  0  0  0
  6  5  1  0  0  0  0
  8  9  2  0  0  0  0
  8 10  1  0  0  0  0
 10 42  1  0  0  0  0
 11 12  1  0  0  0  0
 11 43  1  0  0  0  0
 12 13  2  0  0  0  0
 12 14  1  0  0  0  0
 14 15  2  0  0  0  0
 14 35  1  0  0  0  0
 15 16  1  0  0  0  0
 15 44  1  0  0  0  0
 16 17  1  0  0  0  0
 16 33  2  0  0  0  0
 17 18  1  0  0  0  0
 17 45  1  0  0  0  0
 17 46  1  0  0  0  0
 18 19  1  0  0  0  0
 18 47  1  0  0  0  0
 19 20  2  0  0  0  0
 19 24  1  0  0  0  0
 20 21  1  0  0  0  0
 20 48  1  0  0  0  0
 21 22  2  0  0  0  0
 21 49  1  0  0  0  0
 22 23  1  0  0  0  0
 22 25  1  0  0  0  0
 23 24  2  0  0  0  0
 23 50  1  0  0  0  0
 24 51  1  0  0  0  0
 25 26  2  0  0  0  0
 25 52  1  0  0  0  0
 26 27  1  0  0  0  0
 26 31  1  0  0  0  0
 27 28  1  0  0  0  0
 28 29  2  0  0  0  0
 28 30  1  0  0  0  0
 30 31  1  0  0  0  0
 30 53  1  0  0  0  0
 31 32  2  0  0  0  0
 33 34  1  0  0  0  0
 33 54  1  0  0  0  0
 34 35  2  0  0  0  0
 34 55  1  0  0  0  0
 35 36  1  0  0  0  0
M  END
$$$$
