T3Q
 OpenBabel04121316193D

 62 64  0  0  1  0  0  0  0  0999 V2000
   -1.0879   -1.2214   -3.8554 O   0  0  0  0  0  0  0  0  0  0  0  0
   -1.3244    0.0217   -3.3745 C   0  0  1  0  0  0  0  0  0  0  0  0
   -0.3979    0.5542   -3.5851 H   0  0  0  0  0  0  0  0  0  0  0  0
   -2.5128    0.6987   -3.9691 C   0  0  0  0  0  0  0  0  0  0  0  0
   -2.5669    1.8461   -2.9751 C   0  0  1  0  0  0  0  0  0  0  0  0
   -3.5301    2.3627   -3.0025 H   0  0  0  0  0  0  0  0  0  0  0  0
   -2.3868    1.1913   -1.6910 O   0  0  0  0  0  0  0  0  0  0  0  0
   -1.6605   -0.0425   -1.9164 C   0  0  2  0  0  0  0  0  0  0  0  0
   -2.3283   -0.8769   -1.6557 H   0  0  0  0  0  0  0  0  0  0  0  0
   -0.3507   -0.2349   -1.1590 C   0  0  0  0  0  0  0  0  0  0  0  0
    0.3174   -1.5182   -1.3963 O   0  0  0  0  0  0  0  0  0  0  0  0
    1.8454   -1.5559   -0.5859 P   0  0  1  0  0  0  0  0  0  0  0  0
    1.3926   -0.7029    0.5974 O   0  0  0  0  0  0  0  0  0  0  0  0
    1.4950   -3.0840   -0.3788 O   0  0  0  0  0  0  0  0  0  0  0  0
    0.1516   -3.8036   -0.9586 P   0  0  2  0  0  0  0  0  0  0  0  0
    0.9523   -4.5564   -2.0435 O   0  0  0  0  0  0  0  0  0  0  0  0
   -0.7866   -3.2179   -2.2191 O   0  0  0  0  0  0  0  0  0  0  0  0
   -0.3710   -3.5294   -3.6445 C   0  0  1  0  0  0  0  0  0  0  0  0
    0.4075   -2.7944   -3.9106 H   0  0  0  0  0  0  0  0  0  0  0  0
    0.1993   -4.8534   -3.9506 O   0  0  0  0  0  0  0  0  0  0  0  0
   -0.5314   -5.8700   -3.2402 C   0  0  2  0  0  0  0  0  0  0  0  0
   -0.9134   -5.5493   -2.2599 H   0  0  0  0  0  0  0  0  0  0  0  0
    0.3292   -7.0804   -2.9161 C   0  0  0  0  0  0  0  0  0  0  0  0
   -1.7589   -6.0746   -4.0489 C   0  0  2  0  0  0  0  0  0  0  0  0
   -1.4501   -6.4119   -5.0422 H   0  0  0  0  0  0  0  0  0  0  0  0
   -2.4696   -4.7117   -4.1364 C   0  0  1  0  0  0  0  0  0  0  0  0
   -2.8349   -4.4015   -3.1432 H   0  0  0  0  0  0  0  0  0  0  0  0
   -1.5541   -3.6118   -4.6628 C   0  0  1  0  0  0  0  0  0  0  0  0
   -1.1053   -3.8656   -5.6319 H   0  0  0  0  0  0  0  0  0  0  0  0
   -2.4114   -2.4971   -4.9463 O   0  0  0  0  0  0  0  0  0  0  0  0
   -3.6363   -4.8376   -5.0061 N   0  0  0  0  0  0  0  0  0  0  0  0
   -2.6144   -7.0133   -3.4143 O   0  0  0  0  0  0  0  0  0  0  0  0
   -0.7454   -2.9604    0.2568 O   0  0  0  0  0  0  0  0  0  0  0  0
    3.3733   -1.5936    0.2246 O   0  0  0  0  0  0  0  0  0  0  0  0
   -1.4865    2.8320   -3.2522 N   0  0  0  0  0  0  0  0  0  0  0  0
   -1.4403    3.4002   -4.5211 C   0  0  0  0  0  0  0  0  0  0  0  0
   -0.3587    4.0347   -4.9865 C   0  0  0  0  0  0  0  0  0  0  0  0
   -0.1880    4.5406   -6.3781 C   0  0  0  0  0  0  0  0  0  0  0  0
    0.7918    4.2313   -4.0720 C   0  0  0  0  0  0  0  0  0  0  0  0
    1.8395    4.7181   -4.4340 O   0  0  0  0  0  0  0  0  0  0  0  0
    0.5774    3.8262   -2.7879 N   0  0  0  0  0  0  0  0  0  0  0  0
    1.3316    3.9488   -2.1329 H   0  0  0  0  0  0  0  0  0  0  0  0
   -0.4579    3.0616   -2.3418 C   0  0  0  0  0  0  0  0  0  0  0  0
   -0.3626    2.6190   -1.2066 O   0  0  0  0  0  0  0  0  0  0  0  0
   -1.3244   -1.2646   -4.8027 H   0  0  0  0  0  0  0  0  0  0  0  0
   -3.4096    0.0643   -3.9239 H   0  0  0  0  0  0  0  0  0  0  0  0
   -2.3450    0.9384   -5.0223 H   0  0  0  0  0  0  0  0  0  0  0  0
   -0.5777   -0.1015   -0.0977 H   0  0  0  0  0  0  0  0  0  0  0  0
    0.3815    0.5142   -1.4660 H   0  0  0  0  0  0  0  0  0  0  0  0
    1.1351   -6.8438   -2.2035 H   0  0  0  0  0  0  0  0  0  0  0  0
    0.8138   -7.4604   -3.8119 H   0  0  0  0  0  0  0  0  0  0  0  0
   -0.2789   -7.8452   -2.4290 H   0  0  0  0  0  0  0  0  0  0  0  0
   -2.7371   -2.2404   -4.0590 H   0  0  0  0  0  0  0  0  0  0  0  0
   -4.1177   -5.6890   -4.7299 H   0  0  0  0  0  0  0  0  0  0  0  0
   -3.2575   -5.0053   -5.9402 H   0  0  0  0  0  0  0  0  0  0  0  0
   -2.7861   -6.6771   -2.5156 H   0  0  0  0  0  0  0  0  0  0  0  0
   -1.6934   -2.9961    0.0451 H   0  0  0  0  0  0  0  0  0  0  0  0
    3.7309   -0.6888    0.2246 H   0  0  0  0  0  0  0  0  0  0  0  0
   -2.3122    3.2539   -5.1564 H   0  0  0  0  0  0  0  0  0  0  0  0
   -1.0745    4.3515   -6.9909 H   0  0  0  0  0  0  0  0  0  0  0  0
    0.6599    4.0395   -6.8591 H   0  0  0  0  0  0  0  0  0  0  0  0
    0.0034    5.6175   -6.3718 H   0  0  0  0  0  0  0  0  0  0  0  0
  1  2  1  0  0  0  0
  1 45  1  0  0  0  0
  2  3  1  6  0  0  0
  2  4  1  0  0  0  0
  2  8  1  0  0  0  0
  4  5  1  0  0  0  0
  4 46  1  0  0  0  0
  4 47  1  0  0  0  0
  5  6  1  6  0  0  0
  5  7  1  0  0  0  0
  5 35  1  0  0  0  0
  7  8  1  0  0  0  0
  8  9  1  1  0  0  0
  8 10  1  0  0  0  0
 10 11  1  0  0  0  0
 10 48  1  0  0  0  0
 10 49  1  0  0  0  0
 12 11  1  6  0  0  0
 12 13  2  0  0  0  0
 12 14  1  0  0  0  0
 12 34  1  0  0  0  0
 15 17  1  6  0  0  0
 15 33  1  0  0  0  0
 15 16  2  0  0  0  0
 15 14  1  0  0  0  0
 17 18  1  0  0  0  0
 18 19  1  6  0  0  0
 18 20  1  0  0  0  0
 18 28  1  0  0  0  0
 20 21  1  0  0  0  0
 21 22  1  1  0  0  0
 21 23  1  0  0  0  0
 21 24  1  0  0  0  0
 23 50  1  0  0  0  0
 23 51  1  0  0  0  0
 23 52  1  0  0  0  0
 24 26  1  0  0  0  0
 24 32  1  0  0  0  0
 24 25  1  6  0  0  0
 26 27  1  1  0  0  0
 26 28  1  0  0  0  0
 26 31  1  0  0  0  0
 28 30  1  0  0  0  0
 28 29  1  6  0  0  0
 30 53  1  0  0  0  0
 31 54  1  0  0  0  0
 31 55  1  0  0  0  0
 32 56  1  0  0  0  0
 33 57  1  0  0  0  0
 34 58  1  0  0  0  0
 35 36  1  0  0  0  0
 35 43  1  0  0  0  0
 36 37  2  0  0  0  0
 36 59  1  0  0  0  0
 37 38  1  0  0  0  0
 37 39  1  0  0  0  0
 38 60  1  0  0  0  0
 38 61  1  0  0  0  0
 38 62  1  0  0  0  0
 39 40  2  0  0  0  0
 39 41  1  0  0  0  0
 41 42  1  0  0  0  0
 41 43  1  0  0  0  0
 43 44  2  0  0  0  0
M  END
$$$$
