T3S
 OpenBabel04121316193D

 45 47  0  0  1  0  0  0  0  0999 V2000
    1.0102    0.0412    0.0133 O   0  0  0  0  0  0  0  0  0  0  0  0
    2.4261    0.0060   -0.0055 C   0  0  1  0  0  0  0  0  0  0  0  0
    2.7897    0.1322   -1.0291 H   0  0  0  0  0  0  0  0  0  0  0  0
    3.0119    1.1039    0.8399 C   0  0  0  0  0  0  0  0  0  0  0  0
    4.4020    0.5559    1.1475 C   0  0  1  0  0  0  0  0  0  0  0  0
    4.7972    0.9915    2.0726 H   0  0  0  0  0  0  0  0  0  0  0  0
    4.1837   -0.8501    1.3463 O   0  0  0  0  0  0  0  0  0  0  0  0
    2.9843   -1.2581    0.6338 C   0  0  2  0  0  0  0  0  0  0  0  0
    2.2946   -1.6777    1.3756 H   0  0  0  0  0  0  0  0  0  0  0  0
    3.2975   -2.3548   -0.4077 C   0  0  0  0  0  0  0  0  0  0  0  0
    2.1332   -2.7915   -1.2096 N   0  0  0  0  0  0  0  0  0  0  0  0
    2.1152   -2.1633   -2.5471 C   0  0  0  0  0  0  0  0  0  0  0  0
    3.2468   -2.6389   -3.4627 C   0  0  0  0  0  0  0  0  0  0  0  0
    3.1868   -4.1503   -3.6089 C   0  0  0  0  0  0  0  0  0  0  0  0
    3.2130   -4.8100   -2.2331 C   0  0  0  0  0  0  0  0  0  0  0  0
    2.0939   -4.2567   -1.3453 C   0  0  0  0  0  0  0  0  0  0  0  0
    5.3961    0.8255    0.0748 N   0  0  0  0  0  0  0  0  0  0  0  0
    5.6237    2.1492   -0.2911 C   0  0  0  0  0  0  0  0  0  0  0  0
    6.2750    2.4818   -1.4149 C   0  0  0  0  0  0  0  0  0  0  0  0
    6.3857    3.8600   -1.9749 C   0  0  0  0  0  0  0  0  0  0  0  0
    6.8892    1.3971   -2.2058 C   0  0  0  0  0  0  0  0  0  0  0  0
    7.4103    1.5978   -3.3017 O   0  0  0  0  0  0  0  0  0  0  0  0
    6.8535    0.1690   -1.6335 N   0  0  0  0  0  0  0  0  0  0  0  0
    7.2877   -0.5918   -2.1314 H   0  0  0  0  0  0  0  0  0  0  0  0
    6.0870   -0.2014   -0.5636 C   0  0  0  0  0  0  0  0  0  0  0  0
    6.0665   -1.3956   -0.2893 O   0  0  0  0  0  0  0  0  0  0  0  0
    0.7185    0.7924   -0.5263 H   0  0  0  0  0  0  0  0  0  0  0  0
    2.4194    1.2104    1.7562 H   0  0  0  0  0  0  0  0  0  0  0  0
    2.9891    2.0676    0.3237 H   0  0  0  0  0  0  0  0  0  0  0  0
    3.7702   -3.1945    0.1204 H   0  0  0  0  0  0  0  0  0  0  0  0
    4.0718   -1.9883   -1.0769 H   0  0  0  0  0  0  0  0  0  0  0  0
    2.1514   -1.0744   -2.4831 H   0  0  0  0  0  0  0  0  0  0  0  0
    1.1493   -2.3770   -3.0232 H   0  0  0  0  0  0  0  0  0  0  0  0
    4.2279   -2.3531   -3.0651 H   0  0  0  0  0  0  0  0  0  0  0  0
    3.1665   -2.1530   -4.4400 H   0  0  0  0  0  0  0  0  0  0  0  0
    4.0248   -4.5005   -4.2181 H   0  0  0  0  0  0  0  0  0  0  0  0
    2.2601   -4.4222   -4.1285 H   0  0  0  0  0  0  0  0  0  0  0  0
    4.1874   -4.6330   -1.7609 H   0  0  0  0  0  0  0  0  0  0  0  0
    3.1042   -5.8941   -2.3388 H   0  0  0  0  0  0  0  0  0  0  0  0
    2.1270   -4.7287   -0.3555 H   0  0  0  0  0  0  0  0  0  0  0  0
    1.1219   -4.5413   -1.7702 H   0  0  0  0  0  0  0  0  0  0  0  0
    5.1974    2.9190    0.3485 H   0  0  0  0  0  0  0  0  0  0  0  0
    5.9054    4.6022   -1.3310 H   0  0  0  0  0  0  0  0  0  0  0  0
    5.8879    3.9009   -2.9515 H   0  0  0  0  0  0  0  0  0  0  0  0
    7.4331    4.1448   -2.1111 H   0  0  0  0  0  0  0  0  0  0  0  0
  1  2  1  0  0  0  0
  1 27  1  0  0  0  0
  2  3  1  6  0  0  0
  2  4  1  0  0  0  0
  2  8  1  0  0  0  0
  4  5  1  0  0  0  0
  4 28  1  0  0  0  0
  4 29  1  0  0  0  0
  5  6  1  1  0  0  0
  5  7  1  0  0  0  0
  5 17  1  0  0  0  0
  7  8  1  0  0  0  0
  8  9  1  1  0  0  0
  8 10  1  0  0  0  0
 10 11  1  0  0  0  0
 10 30  1  0  0  0  0
 10 31  1  0  0  0  0
 11 12  1  0  0  0  0
 11 16  1  0  0  0  0
 12 13  1  0  0  0  0
 12 32  1  0  0  0  0
 12 33  1  0  0  0  0
 13 14  1  0  0  0  0
 13 34  1  0  0  0  0
 13 35  1  0  0  0  0
 14 15  1  0  0  0  0
 14 36  1  0  0  0  0
 14 37  1  0  0  0  0
 15 16  1  0  0  0  0
 15 38  1  0  0  0  0
 15 39  1  0  0  0  0
 16 40  1  0  0  0  0
 16 41  1  0  0  0  0
 17 18  1  0  0  0  0
 17 25  1  0  0  0  0
 18 19  2  0  0  0  0
 18 42  1  0  0  0  0
 19 20  1  0  0  0  0
 19 21  1  0  0  0  0
 20 43  1  0  0  0  0
 20 44  1  0  0  0  0
 20 45  1  0  0  0  0
 21 22  2  0  0  0  0
 21 23  1  0  0  0  0
 23 24  1  0  0  0  0
 23 25  1  0  0  0  0
 25 26  2  0  0  0  0
M  END
$$$$
