T4B
 OpenBabel04121316193D

 62 66  0  0  0  0  0  0  0  0999 V2000
    1.3182    0.0257   -0.4208 C   0  0  0  0  0  0  0  0  0  0  0  0
    2.8164    0.2156   -0.1282 C   0  0  0  0  0  0  0  0  0  0  0  0
    3.2458    1.0387    1.1216 C   0  0  0  0  0  0  0  0  0  0  0  0
    3.3019    2.4312    1.4231 C   0  0  0  0  0  0  0  0  0  0  0  0
    2.9163    3.5364    0.4732 C   0  0  0  0  0  0  0  0  0  0  0  0
    2.2171    3.3358   -0.7354 C   0  0  0  0  0  0  0  0  0  0  0  0
    1.8536    4.3829   -1.5986 C   0  0  0  0  0  0  0  0  0  0  0  0
    2.0443    5.6937   -1.2079 C   0  0  0  0  0  0  0  0  0  0  0  0
    2.5840    5.9374    0.0444 C   0  0  0  0  0  0  0  0  0  0  0  0
    3.1091    4.8824    0.8159 C   0  0  0  0  0  0  0  0  0  0  0  0
    3.6467    2.4852    2.8721 C   0  0  0  0  0  0  0  0  0  0  0  0
    4.0434    1.2709    3.2749 N   0  0  0  0  0  0  0  0  0  0  0  0
    3.7884    0.4084    2.2603 N   0  0  0  0  0  0  0  0  0  0  0  0
    3.9760   -0.9852    2.5256 C   0  0  0  0  0  0  0  0  0  0  0  0
    5.3149   -1.3968    2.7246 C   0  0  0  0  0  0  0  0  0  0  0  0
    5.6504   -2.7511    2.7055 C   0  0  0  0  0  0  0  0  0  0  0  0
    4.6455   -3.7004    2.6327 C   0  0  0  0  0  0  0  0  0  0  0  0
    3.3074   -3.2889    2.6401 C   0  0  0  0  0  0  0  0  0  0  0  0
    2.9106   -1.9249    2.5581 C   0  0  0  0  0  0  0  0  0  0  0  0
    1.4439   -1.5809    2.4866 C   0  0  0  0  0  0  0  0  0  0  0  0
    0.4978   -2.5351    2.0586 C   0  0  0  0  0  0  0  0  0  0  0  0
   -0.8104   -2.1741    1.7197 C   0  0  0  0  0  0  0  0  0  0  0  0
   -1.1746   -0.8332    1.6922 C   0  0  0  0  0  0  0  0  0  0  0  0
   -0.3071    0.1320    2.1852 C   0  0  0  0  0  0  0  0  0  0  0  0
    0.9420   -0.2685    2.6830 C   0  0  0  0  0  0  0  0  0  0  0  0
   -0.7465    1.4175    2.0125 O   0  0  0  0  0  0  0  0  0  0  0  0
    0.2250    2.4535    1.9618 C   0  0  0  0  0  0  0  0  0  0  0  0
   -0.3758    3.7631    1.4618 C   0  0  0  0  0  0  0  0  0  0  0  0
   -1.3878    3.8357    0.7515 O   0  0  0  0  0  0  0  0  0  0  0  0
    0.2691    4.8951    1.7934 O   0  0  0  0  0  0  0  0  0  0  0  0
    3.6488    3.6021    3.8942 C   0  0  0  0  0  0  0  0  0  0  0  0
    2.6419    4.5701    3.9805 C   0  0  0  0  0  0  0  0  0  0  0  0
    2.8033    5.7945    4.6461 C   0  0  0  0  0  0  0  0  0  0  0  0
    3.8501    5.9386    5.5324 C   0  0  0  0  0  0  0  0  0  0  0  0
    4.6946    4.8504    5.7331 C   0  0  0  0  0  0  0  0  0  0  0  0
    4.6353    3.7221    4.8813 C   0  0  0  0  0  0  0  0  0  0  0  0
    1.0980   -0.3804   -1.4128 H   0  0  0  0  0  0  0  0  0  0  0  0
    0.6893    0.9072   -0.3004 H   0  0  0  0  0  0  0  0  0  0  0  0
    0.9306   -0.7515    0.2117 H   0  0  0  0  0  0  0  0  0  0  0  0
    3.2689    0.6512   -1.0217 H   0  0  0  0  0  0  0  0  0  0  0  0
    3.2211   -0.8009   -0.0572 H   0  0  0  0  0  0  0  0  0  0  0  0
    1.8455    2.3730   -1.0456 H   0  0  0  0  0  0  0  0  0  0  0  0
    1.3697    4.1647   -2.5493 H   0  0  0  0  0  0  0  0  0  0  0  0
    1.7367    6.5130   -1.8519 H   0  0  0  0  0  0  0  0  0  0  0  0
    2.5515    6.9475    0.4488 H   0  0  0  0  0  0  0  0  0  0  0  0
    3.5739    5.1655    1.7509 H   0  0  0  0  0  0  0  0  0  0  0  0
    6.1097   -0.6636    2.8497 H   0  0  0  0  0  0  0  0  0  0  0  0
    6.6906   -3.0669    2.7424 H   0  0  0  0  0  0  0  0  0  0  0  0
    4.8899   -4.7613    2.6027 H   0  0  0  0  0  0  0  0  0  0  0  0
    2.5723   -4.0873    2.7128 H   0  0  0  0  0  0  0  0  0  0  0  0
    0.7719   -3.5718    1.8834 H   0  0  0  0  0  0  0  0  0  0  0  0
   -1.5110   -2.9313    1.3844 H   0  0  0  0  0  0  0  0  0  0  0  0
   -2.0959   -0.5246    1.2060 H   0  0  0  0  0  0  0  0  0  0  0  0
    1.5801    0.4908    3.1051 H   0  0  0  0  0  0  0  0  0  0  0  0
    0.9663    2.1807    1.2316 H   0  0  0  0  0  0  0  0  0  0  0  0
    0.6859    2.5700    2.9436 H   0  0  0  0  0  0  0  0  0  0  0  0
    1.2136    4.7588    1.9661 H   0  0  0  0  0  0  0  0  0  0  0  0
    1.6619    4.3741    3.5971 H   0  0  0  0  0  0  0  0  0  0  0  0
    2.0867    6.6031    4.5053 H   0  0  0  0  0  0  0  0  0  0  0  0
    3.9615    6.8576    6.1041 H   0  0  0  0  0  0  0  0  0  0  0  0
    5.4148    4.8888    6.5469 H   0  0  0  0  0  0  0  0  0  0  0  0
    5.3661    2.9302    5.0223 H   0  0  0  0  0  0  0  0  0  0  0  0
  1  2  1  0  0  0  0
  1 37  1  0  0  0  0
  1 38  1  0  0  0  0
  1 39  1  0  0  0  0
  2  3  1  0  0  0  0
  2 40  1  0  0  0  0
  2 41  1  0  0  0  0
  3  4  2  0  0  0  0
  3 13  1  0  0  0  0
  4  5  1  0  0  0  0
  4 11  1  0  0  0  0
  5  6  2  0  0  0  0
  5 10  1  0  0  0  0
  6  7  1  0  0  0  0
  6 42  1  0  0  0  0
  7  8  2  0  0  0  0
  7 43  1  0  0  0  0
  8  9  1  0  0  0  0
  8 44  1  0  0  0  0
  9 10  2  0  0  0  0
  9 45  1  0  0  0  0
 10 46  1  0  0  0  0
 11 12  2  0  0  0  0
 11 31  1  0  0  0  0
 12 13  1  0  0  0  0
 13 14  1  0  0  0  0
 14 15  2  0  0  0  0
 14 19  1  0  0  0  0
 15 16  1  0  0  0  0
 15 47  1  0  0  0  0
 16 17  2  0  0  0  0
 16 48  1  0  0  0  0
 17 18  1  0  0  0  0
 17 49  1  0  0  0  0
 18 19  2  0  0  0  0
 18 50  1  0  0  0  0
 19 20  1  0  0  0  0
 20 21  2  0  0  0  0
 20 25  1  0  0  0  0
 21 22  1  0  0  0  0
 21 51  1  0  0  0  0
 22 23  2  0  0  0  0
 22 52  1  0  0  0  0
 23 24  1  0  0  0  0
 23 53  1  0  0  0  0
 24 25  2  0  0  0  0
 24 26  1  0  0  0  0
 25 54  1  0  0  0  0
 26 27  1  0  0  0  0
 27 28  1  0  0  0  0
 27 55  1  0  0  0  0
 27 56  1  0  0  0  0
 28 29  2  0  0  0  0
 28 30  1  0  0  0  0
 30 57  1  0  0  0  0
 31 32  2  0  0  0  0
 31 36  1  0  0  0  0
 32 33  1  0  0  0  0
 32 58  1  0  0  0  0
 33 34  2  0  0  0  0
 33 59  1  0  0  0  0
 34 35  1  0  0  0  0
 34 60  1  0  0  0  0
 35 36  2  0  0  0  0
 35 61  1  0  0  0  0
 36 62  1  0  0  0  0
M  END
$$$$
