T50
 OpenBabel04121316193D

 41 44  0  0  0  0  0  0  0  0999 V2000
    1.4339   -0.2571   -1.7826 F   0  0  0  0  0  0  0  0  0  0  0  0
    2.6589   -0.2760   -1.2351 C   0  0  0  0  0  0  0  0  0  0  0  0
    3.3618    0.9265   -1.1612 C   0  0  0  0  0  0  0  0  0  0  0  0
    4.5812    0.9803   -0.4837 C   0  0  0  0  0  0  0  0  0  0  0  0
    5.1761   -0.2059   -0.0867 C   0  0  0  0  0  0  0  0  0  0  0  0
    4.4445   -1.3921   -0.1510 C   0  0  0  0  0  0  0  0  0  0  0  0
    3.0961   -1.3890   -0.5382 C   0  0  0  0  0  0  0  0  0  0  0  0
    2.1823   -2.4700   -0.0047 C   0  0  0  0  0  0  0  0  0  0  0  0
    0.7494   -2.1633    0.2320 N   0  0  0  0  0  0  0  0  0  0  0  0
    0.0897   -0.9755    0.5592 C   0  0  0  0  0  0  0  0  0  0  0  0
   -1.2172   -1.1454    0.4214 N   0  0  0  0  0  0  0  0  0  0  0  0
   -1.4282   -2.4784    0.2440 C   0  0  0  0  0  0  0  0  0  0  0  0
   -0.2208   -3.1647    0.2117 C   0  0  0  0  0  0  0  0  0  0  0  0
   -0.1641   -4.5629    0.1663 C   0  0  0  0  0  0  0  0  0  0  0  0
   -1.3837   -5.2506    0.1458 C   0  0  0  0  0  0  0  0  0  0  0  0
   -2.6028   -4.5693    0.1237 C   0  0  0  0  0  0  0  0  0  0  0  0
   -2.6546   -3.1660    0.1550 C   0  0  0  0  0  0  0  0  0  0  0  0
   -3.9673   -2.4422    0.1378 C   0  0  0  0  0  0  0  0  0  0  0  0
    0.6616    0.3363    0.8917 C   0  0  0  0  0  0  0  0  0  0  0  0
    0.1462    1.4984    0.2925 C   0  0  0  0  0  0  0  0  0  0  0  0
   -0.9484    1.4491   -0.4861 F   0  0  0  0  0  0  0  0  0  0  0  0
    0.8228    2.7194    0.3554 C   0  0  0  0  0  0  0  0  0  0  0  0
    1.9920    2.8298    1.1054 C   0  0  0  0  0  0  0  0  0  0  0  0
    2.4830    1.7053    1.7656 C   0  0  0  0  0  0  0  0  0  0  0  0
    1.8217    0.4768    1.6620 C   0  0  0  0  0  0  0  0  0  0  0  0
    2.4450   -0.6037    2.1537 F   0  0  0  0  0  0  0  0  0  0  0  0
    5.0215   -2.5272    0.2570 F   0  0  0  0  0  0  0  0  0  0  0  0
    2.8630    1.8404   -1.4688 H   0  0  0  0  0  0  0  0  0  0  0  0
    5.0192    1.9394   -0.2149 H   0  0  0  0  0  0  0  0  0  0  0  0
    6.1685   -0.2044    0.3571 H   0  0  0  0  0  0  0  0  0  0  0  0
    2.5378   -2.7946    0.9847 H   0  0  0  0  0  0  0  0  0  0  0  0
    2.2283   -3.3318   -0.6777 H   0  0  0  0  0  0  0  0  0  0  0  0
    0.7746   -5.1058    0.1833 H   0  0  0  0  0  0  0  0  0  0  0  0
   -1.3862   -6.3385    0.1489 H   0  0  0  0  0  0  0  0  0  0  0  0
   -3.5289   -5.1408    0.1040 H   0  0  0  0  0  0  0  0  0  0  0  0
   -4.8118   -3.1382    0.1220 H   0  0  0  0  0  0  0  0  0  0  0  0
   -4.0357   -1.8070   -0.7519 H   0  0  0  0  0  0  0  0  0  0  0  0
   -4.0604   -1.8150    1.0298 H   0  0  0  0  0  0  0  0  0  0  0  0
    0.4824    3.5429   -0.2668 H   0  0  0  0  0  0  0  0  0  0  0  0
    2.5656    3.7529    1.0939 H   0  0  0  0  0  0  0  0  0  0  0  0
    3.4697    1.7268    2.2236 H   0  0  0  0  0  0  0  0  0  0  0  0
  1  2  1  0  0  0  0
  2  3  2  0  0  0  0
  2  7  1  0  0  0  0
  3  4  1  0  0  0  0
  3 28  1  0  0  0  0
  4  5  2  0  0  0  0
  4 29  1  0  0  0  0
  5  6  1  0  0  0  0
  5 30  1  0  0  0  0
  6  7  2  0  0  0  0
  6 27  1  0  0  0  0
  7  8  1  0  0  0  0
  8  9  1  0  0  0  0
  8 31  1  0  0  0  0
  8 32  1  0  0  0  0
  9 10  1  0  0  0  0
  9 13  1  0  0  0  0
 10 11  2  0  0  0  0
 10 19  1  0  0  0  0
 11 12  1  0  0  0  0
 12 13  2  0  0  0  0
 12 17  1  0  0  0  0
 13 14  1  0  0  0  0
 14 15  2  0  0  0  0
 14 33  1  0  0  0  0
 15 16  1  0  0  0  0
 15 34  1  0  0  0  0
 16 17  2  0  0  0  0
 16 35  1  0  0  0  0
 17 18  1  0  0  0  0
 18 36  1  0  0  0  0
 18 37  1  0  0  0  0
 18 38  1  0  0  0  0
 19 20  2  0  0  0  0
 19 25  1  0  0  0  0
 20 21  1  0  0  0  0
 20 22  1  0  0  0  0
 22 23  2  0  0  0  0
 22 39  1  0  0  0  0
 23 24  1  0  0  0  0
 23 40  1  0  0  0  0
 24 25  2  0  0  0  0
 24 41  1  0  0  0  0
 25 26  1  0  0  0  0
M  END
$$$$
