T5A
 OpenBabel04121316193D

 85 89  0  0  1  0  0  0  0  0999 V2000
   -2.7560   -2.3505    0.9336 O   0  0  0  0  0  0  0  0  0  0  0  0
   -2.7651   -1.5619   -0.2281 C   0  0  1  0  0  0  0  0  0  0  0  0
   -3.1404   -2.1417   -1.0945 H   0  0  0  0  0  0  0  0  0  0  0  0
   -3.3949   -0.2044   -0.3562 C   0  0  0  0  0  0  0  0  0  0  0  0
   -2.6256    0.5672   -1.4525 C   0  0  1  0  0  0  0  0  0  0  0  0
   -2.7684    1.6536   -1.4453 H   0  0  0  0  0  0  0  0  0  0  0  0
   -1.3761    0.3546   -0.8197 O   0  0  0  0  0  0  0  0  0  0  0  0
   -1.3751   -1.1009   -0.1270 C   0  0  2  0  0  0  0  0  0  0  0  0
   -0.7233   -1.0190    0.7180 H   0  0  0  0  0  0  0  0  0  0  0  0
   -0.7499   -2.1769   -0.9311 C   0  0  0  0  0  0  0  0  0  0  0  0
    0.1993   -3.7937   -0.7933 O   0  0  0  0  0  0  0  0  0  0  0  0
    0.9245   -4.5700   -2.7010 P   0  0  2  0  0  0  0  0  0  0  0  0
   -0.2390   -4.3137   -3.6834 O   0  0  0  0  0  0  0  0  0  0  0  0
    0.5362   -6.2558   -2.6808 O   0  0  0  0  0  0  0  0  0  0  0  0
   -0.8223   -6.5469   -3.7117 P   0  0  1  0  0  0  0  0  0  0  0  0
   -1.1461   -7.8622   -2.9907 O   0  0  0  0  0  0  0  0  0  0  0  0
   -1.6325   -5.3257   -2.9012 O   0  0  0  0  0  0  0  0  0  0  0  0
   -0.4446   -3.9071   -2.4008 P   0  0  2  0  0  0  0  0  0  0  0  0
   -1.6709   -2.9915   -2.1944 O   0  0  0  0  0  0  0  0  0  0  0  0
    0.6013   -2.5427   -3.2269 O   0  0  0  0  0  0  0  0  0  0  0  0
    1.3861   -1.7774   -1.8802 P   0  0  2  0  0  0  0  0  0  0  0  0
    2.5555   -2.7457   -2.1625 O   0  0  0  0  0  0  0  0  0  0  0  0
    1.3384   -2.3143   -0.2363 O   0  0  0  0  0  0  0  0  0  0  0  0
    2.5576   -3.5160    0.0135 P   0  0  1  0  0  0  0  0  0  0  0  0
    3.7048   -2.4868   -0.1708 O   0  0  0  0  0  0  0  0  0  0  0  0
    2.3158   -3.4028    1.6776 O   0  0  0  0  0  0  0  0  0  0  0  0
    1.5313   -2.2861    2.1151 C   0  0  0  0  0  0  0  0  0  0  0  0
    1.4852   -2.0184    3.6018 C   0  0  1  0  0  0  0  0  0  0  0  0
    0.9643   -2.8556    4.0794 H   0  0  0  0  0  0  0  0  0  0  0  0
    2.7934   -1.8734    4.1765 O   0  0  0  0  0  0  0  0  0  0  0  0
    2.5838   -1.1637    5.4099 C   0  0  2  0  0  0  0  0  0  0  0  0
    2.2199   -1.8675    6.1675 H   0  0  0  0  0  0  0  0  0  0  0  0
    1.5082   -0.1071    5.0857 C   0  0  1  0  0  0  0  0  0  0  0  0
    1.9549    0.8468    4.7840 H   0  0  0  0  0  0  0  0  0  0  0  0
    0.7734   -0.6828    3.8706 C   0  0  2  0  0  0  0  0  0  0  0  0
    0.8953    0.0107    3.0269 H   0  0  0  0  0  0  0  0  0  0  0  0
   -0.6261   -0.8433    4.0513 O   0  0  0  0  0  0  0  0  0  0  0  0
    0.6166    0.1783    6.1584 O   0  0  0  0  0  0  0  0  0  0  0  0
    3.8503   -0.6184    5.8681 N   0  0  0  0  0  0  0  0  0  0  0  0
    4.5435    0.4123    5.2829 C   0  0  0  0  0  0  0  0  0  0  0  0
    5.6480    0.7083    5.9313 N   0  0  0  0  0  0  0  0  0  0  0  0
    5.6912   -0.1896    6.9753 C   0  0  0  0  0  0  0  0  0  0  0  0
    4.5663   -1.0040    6.9775 C   0  0  0  0  0  0  0  0  0  0  0  0
    4.2723   -1.9561    7.8813 N   0  0  0  0  0  0  0  0  0  0  0  0
    5.2568   -2.0656    8.8051 C   0  0  0  0  0  0  0  0  0  0  0  0
    6.4021   -1.3540    8.9119 N   0  0  0  0  0  0  0  0  0  0  0  0
    6.6401   -0.3923    7.9936 C   0  0  0  0  0  0  0  0  0  0  0  0
    7.7927    0.3560    8.0933 N   0  0  0  0  0  0  0  0  0  0  0  0
    3.7768   -4.7177    0.2633 O   0  0  0  0  0  0  0  0  0  0  0  0
    0.0760   -0.6927   -1.5639 O   0  0  0  0  0  0  0  0  0  0  0  0
    0.9292   -4.9328   -2.6320 O   0  0  0  0  0  0  0  0  0  0  0  0
   -2.1807   -6.8381   -4.7427 O   0  0  0  0  0  0  0  0  0  0  0  0
    2.2281   -4.8572   -1.6004 O   0  0  0  0  0  0  0  0  0  0  0  0
   -2.9018    0.1928   -2.9206 N   0  0  0  0  0  0  0  0  0  0  0  0
   -4.2369    0.3896   -3.2126 C   0  0  0  0  0  0  0  0  0  0  0  0
   -4.8491   -0.0894   -4.3037 C   0  0  0  0  0  0  0  0  0  0  0  0
   -6.3216   -0.0891   -4.4475 C   0  0  0  0  0  0  0  0  0  0  0  0
   -4.0290   -0.7057   -5.3461 C   0  0  0  0  0  0  0  0  0  0  0  0
   -4.5377   -1.2155   -6.3549 O   0  0  0  0  0  0  0  0  0  0  0  0
   -2.6914   -0.5980   -5.1510 N   0  0  0  0  0  0  0  0  0  0  0  0
   -2.1059   -0.9231   -5.9101 H   0  0  0  0  0  0  0  0  0  0  0  0
   -2.0240   -0.1196   -4.0061 C   0  0  0  0  0  0  0  0  0  0  0  0
   -0.8310   -0.0039   -4.0603 O   0  0  0  0  0  0  0  0  0  0  0  0
   -3.3055   -3.1297    0.7921 H   0  0  0  0  0  0  0  0  0  0  0  0
   -3.1455    0.2731    0.5985 H   0  0  0  0  0  0  0  0  0  0  0  0
   -4.4506   -0.3009   -0.5195 H   0  0  0  0  0  0  0  0  0  0  0  0
   -0.5222   -1.9401   -2.2157 H   0  0  0  0  0  0  0  0  0  0  0  0
   -1.3233   -1.4768   -2.0360 H   0  0  0  0  0  0  0  0  0  0  0  0
    0.5041   -2.5106    1.8097 H   0  0  0  0  0  0  0  0  0  0  0  0
    1.8806   -1.3640    1.6240 H   0  0  0  0  0  0  0  0  0  0  0  0
   -0.9523   -0.0140    4.4503 H   0  0  0  0  0  0  0  0  0  0  0  0
    1.1507    0.4578    6.9241 H   0  0  0  0  0  0  0  0  0  0  0  0
    4.2002    0.9220    4.3927 H   0  0  0  0  0  0  0  0  0  0  0  0
    5.1139   -2.8276    9.5678 H   0  0  0  0  0  0  0  0  0  0  0  0
    8.4612    0.1293    8.8112 H   0  0  0  0  0  0  0  0  0  0  0  0
    7.9872    1.0378    7.3732 H   0  0  0  0  0  0  0  0  0  0  0  0
    4.2031   -4.8712   -0.5906 H   0  0  0  0  0  0  0  0  0  0  0  0
    0.3361    0.1845   -1.2085 H   0  0  0  0  0  0  0  0  0  0  0  0
    2.3751   -4.4827   -2.6779 H   0  0  0  0  0  0  0  0  0  0  0  0
   -2.1747   -7.7898   -4.9516 H   0  0  0  0  0  0  0  0  0  0  0  0
    2.5413   -5.7932   -1.7928 H   0  0  0  0  0  0  0  0  0  0  0  0
   -4.8083    0.9237   -2.4647 H   0  0  0  0  0  0  0  0  0  0  0  0
   -6.8018    0.3807   -3.5825 H   0  0  0  0  0  0  0  0  0  0  0  0
   -6.6741   -1.1249   -4.4957 H   0  0  0  0  0  0  0  0  0  0  0  0
   -6.6233    0.4440   -5.3504 H   0  0  0  0  0  0  0  0  0  0  0  0
  1  2  1  0  0  0  0
  1 64  1  0  0  0  0
  2  3  1  6  0  0  0
  2  4  1  0  0  0  0
  2  8  1  0  0  0  0
  4  5  1  0  0  0  0
  4 65  1  0  0  0  0
  4 66  1  0  0  0  0
  5  6  1  1  0  0  0
  5  7  1  0  0  0  0
  5 54  1  0  0  0  0
  7  8  1  0  0  0  0
  8  9  1  1  0  0  0
  8 10  1  0  0  0  0
 10 11  1  0  0  0  0
 10 67  1  0  0  0  0
 10 68  1  0  0  0  0
 12 14  1  1  0  0  0
 12 53  1  0  0  0  0
 12 13  2  0  0  0  0
 12 11  1  0  0  0  0
 15 14  1  6  0  0  0
 15 16  2  0  0  0  0
 15 17  1  0  0  0  0
 15 52  1  0  0  0  0
 18 20  1  6  0  0  0
 18 51  1  0  0  0  0
 18 19  2  0  0  0  0
 18 17  1  0  0  0  0
 21 23  1  1  0  0  0
 21 50  1  0  0  0  0
 21 22  2  0  0  0  0
 21 20  1  0  0  0  0
 24 23  1  6  0  0  0
 24 25  2  0  0  0  0
 24 26  1  0  0  0  0
 24 49  1  0  0  0  0
 26 27  1  0  0  0  0
 27 28  1  0  0  0  0
 27 69  1  0  0  0  0
 27 70  1  0  0  0  0
 28 29  1  1  0  0  0
 28 30  1  0  0  0  0
 28 35  1  0  0  0  0
 30 31  1  0  0  0  0
 31 33  1  0  0  0  0
 31 39  1  0  0  0  0
 31 32  1  1  0  0  0
 33 34  1  6  0  0  0
 33 35  1  0  0  0  0
 33 38  1  0  0  0  0
 35 36  1  6  0  0  0
 35 37  1  0  0  0  0
 37 71  1  0  0  0  0
 38 72  1  0  0  0  0
 39 40  1  0  0  0  0
 39 43  1  0  0  0  0
 40 41  2  0  0  0  0
 40 73  1  0  0  0  0
 41 42  1  0  0  0  0
 42 43  2  0  0  0  0
 42 47  1  0  0  0  0
 43 44  1  0  0  0  0
 44 45  2  0  0  0  0
 45 46  1  0  0  0  0
 45 74  1  0  0  0  0
 46 47  2  0  0  0  0
 47 48  1  0  0  0  0
 48 75  1  0  0  0  0
 48 76  1  0  0  0  0
 49 77  1  0  0  0  0
 50 78  1  0  0  0  0
 51 79  1  0  0  0  0
 52 80  1  0  0  0  0
 53 81  1  0  0  0  0
 54 55  1  0  0  0  0
 54 62  1  0  0  0  0
 55 56  2  0  0  0  0
 55 82  1  0  0  0  0
 56 57  1  0  0  0  0
 56 58  1  0  0  0  0
 57 83  1  0  0  0  0
 57 84  1  0  0  0  0
 57 85  1  0  0  0  0
 58 59  2  0  0  0  0
 58 60  1  0  0  0  0
 60 61  1  0  0  0  0
 60 62  1  0  0  0  0
 62 63  2  0  0  0  0
M  END
$$$$
