TA9
 OpenBabel04121316193D

 50 53  0  0  1  0  0  0  0  0999 V2000
    3.1993    0.3555    1.1917 O   0  0  0  0  0  0  0  0  0  0  0  0
    2.5829   -0.0088   -0.0421 C   0  0  2  0  0  0  0  0  0  0  0  0
    1.4928    0.0251    0.1004 H   0  0  0  0  0  0  0  0  0  0  0  0
    3.0175   -1.4359   -0.4583 C   0  0  1  0  0  0  0  0  0  0  0  0
    4.1147   -1.4849   -0.4143 H   0  0  0  0  0  0  0  0  0  0  0  0
    2.4814   -2.4975    0.5206 C   0  0  0  0  0  0  0  0  0  0  0  0
    2.9764   -2.3057    1.8641 N   0  0  0  0  0  0  0  0  0  0  0  0
    2.4861   -3.0797    2.8850 C   0  0  0  0  0  0  0  0  0  0  0  0
    1.8008   -4.0819    2.7174 O   0  0  0  0  0  0  0  0  0  0  0  0
    2.9003   -2.6979    4.2477 C   0  0  0  0  0  0  0  0  0  0  0  0
    3.3065   -3.7252    5.1080 C   0  0  0  0  0  0  0  0  0  0  0  0
    3.6854   -3.4441    6.4300 C   0  0  0  0  0  0  0  0  0  0  0  0
    3.6809   -2.1311    6.9151 C   0  0  0  0  0  0  0  0  0  0  0  0
    3.2958   -1.1088    6.0638 C   0  0  0  0  0  0  0  0  0  0  0  0
    2.8994   -1.4064    4.7474 C   0  0  0  0  0  0  0  0  0  0  0  0
    2.4184   -0.1376    4.1691 C   0  0  0  0  0  0  0  0  0  0  0  0
    1.7428   -0.0187    3.1664 O   0  0  0  0  0  0  0  0  0  0  0  0
    2.7162    0.9375    5.1273 C   0  0  0  0  0  0  0  0  0  0  0  0
    3.1811    0.3169    6.2940 C   0  0  0  0  0  0  0  0  0  0  0  0
    3.4191    1.0845    7.4183 C   0  0  0  0  0  0  0  0  0  0  0  0
    3.2090    2.4687    7.3378 C   0  0  0  0  0  0  0  0  0  0  0  0
    2.7738    3.0742    6.1430 C   0  0  0  0  0  0  0  0  0  0  0  0
    2.5179    2.3016    5.0109 C   0  0  0  0  0  0  0  0  0  0  0  0
    2.5766   -1.7762   -1.8173 N   0  0  0  0  0  0  0  0  0  0  0  0
    3.0516   -0.7954   -2.8018 C   0  0  2  0  0  0  0  0  0  0  0  0
    4.1505   -0.8036   -2.7966 H   0  0  0  0  0  0  0  0  0  0  0  0
    2.5459    0.6257   -2.4792 C   0  0  2  0  0  0  0  0  0  0  0  0
    2.9276    1.3450   -3.2111 H   0  0  0  0  0  0  0  0  0  0  0  0
    3.0165    1.0271   -1.0844 C   0  0  1  0  0  0  0  0  0  0  0  0
    4.1095    1.1088   -1.0627 H   0  0  0  0  0  0  0  0  0  0  0  0
    2.5105    2.3232   -0.7468 O   0  0  0  0  0  0  0  0  0  0  0  0
    1.1111    0.7018   -2.5453 O   0  0  0  0  0  0  0  0  0  0  0  0
    2.5731   -1.2464   -4.1733 C   0  0  0  0  0  0  0  0  0  0  0  0
    4.1603    0.3752    1.0852 H   0  0  0  0  0  0  0  0  0  0  0  0
    2.7935   -3.5002    0.2025 H   0  0  0  0  0  0  0  0  0  0  0  0
    1.3842   -2.4883    0.5449 H   0  0  0  0  0  0  0  0  0  0  0  0
    3.2724   -1.3608    2.0966 H   0  0  0  0  0  0  0  0  0  0  0  0
    3.3170   -4.7546    4.7498 H   0  0  0  0  0  0  0  0  0  0  0  0
    3.9735   -4.2637    7.0847 H   0  0  0  0  0  0  0  0  0  0  0  0
    3.9557   -1.9314    7.9452 H   0  0  0  0  0  0  0  0  0  0  0  0
    3.7451    0.6335    8.3490 H   0  0  0  0  0  0  0  0  0  0  0  0
    3.3819    3.0876    8.2161 H   0  0  0  0  0  0  0  0  0  0  0  0
    2.6200    4.1513    6.1104 H   0  0  0  0  0  0  0  0  0  0  0  0
    2.1676    2.7448    4.0839 H   0  0  0  0  0  0  0  0  0  0  0  0
    1.5601   -1.8570   -1.8538 H   0  0  0  0  0  0  0  0  0  0  0  0
    1.5373    2.2565   -0.7642 H   0  0  0  0  0  0  0  0  0  0  0  0
    0.7360    0.0269   -1.9562 H   0  0  0  0  0  0  0  0  0  0  0  0
    1.4796   -1.2707   -4.2269 H   0  0  0  0  0  0  0  0  0  0  0  0
    2.9452   -2.2498   -4.4059 H   0  0  0  0  0  0  0  0  0  0  0  0
    2.9387   -0.5605   -4.9431 H   0  0  0  0  0  0  0  0  0  0  0  0
  1 34  1  0  0  0  0
  2  4  1  0  0  0  0
  2 29  1  0  0  0  0
  2  3  1  1  0  0  0
  2  1  1  0  0  0  0
  4  5  1  1  0  0  0
  4  6  1  0  0  0  0
  4 24  1  0  0  0  0
  6  7  1  0  0  0  0
  6 35  1  0  0  0  0
  6 36  1  0  0  0  0
  7  8  1  0  0  0  0
  7 37  1  0  0  0  0
  8  9  2  0  0  0  0
  8 10  1  0  0  0  0
 10 11  2  0  0  0  0
 10 15  1  0  0  0  0
 11 12  1  0  0  0  0
 11 38  1  0  0  0  0
 12 13  2  0  0  0  0
 12 39  1  0  0  0  0
 13 14  1  0  0  0  0
 13 40  1  0  0  0  0
 14 15  2  0  0  0  0
 14 19  1  0  0  0  0
 15 16  1  0  0  0  0
 16 17  2  0  0  0  0
 16 18  1  0  0  0  0
 18 19  2  0  0  0  0
 18 23  1  0  0  0  0
 19 20  1  0  0  0  0
 20 21  2  0  0  0  0
 20 41  1  0  0  0  0
 21 22  1  0  0  0  0
 21 42  1  0  0  0  0
 22 23  2  0  0  0  0
 22 43  1  0  0  0  0
 23 44  1  0  0  0  0
 24 25  1  0  0  0  0
 24 45  1  0  0  0  0
 25 27  1  0  0  0  0
 25 33  1  0  0  0  0
 25 26  1  1  0  0  0
 27 29  1  0  0  0  0
 27 32  1  0  0  0  0
 27 28  1  6  0  0  0
 29 31  1  0  0  0  0
 29 30  1  6  0  0  0
 31 46  1  0  0  0  0
 32 47  1  0  0  0  0
 33 48  1  0  0  0  0
 33 49  1  0  0  0  0
 33 50  1  0  0  0  0
M  END
$$$$
