TAD
 OpenBabel04121316193D

 70 74  0  0  1  0  0  0  0  0999 V2000
    1.3638    3.0958    9.5336 O   0  0  0  0  0  0  0  0  0  0  0  0
    2.5631    3.1292    8.7413 C   0  0  2  0  0  0  0  0  0  0  0  0
    3.0515    4.0760    8.9812 H   0  0  0  0  0  0  0  0  0  0  0  0
    2.2496    3.0804    7.2620 C   0  0  2  0  0  0  0  0  0  0  0  0
    3.1080    3.4886    6.7174 H   0  0  0  0  0  0  0  0  0  0  0  0
    1.0827    3.8062    6.9063 O   0  0  0  0  0  0  0  0  0  0  0  0
    2.1196    1.5927    7.0210 C   0  0  2  0  0  0  0  0  0  0  0  0
    1.1478    1.2167    7.3734 H   0  0  0  0  0  0  0  0  0  0  0  0
    3.1083    0.9597    7.8579 O   0  0  0  0  0  0  0  0  0  0  0  0
    3.4305    1.8707    8.9424 C   0  0  1  0  0  0  0  0  0  0  0  0
    3.1918    1.3575    9.8827 H   0  0  0  0  0  0  0  0  0  0  0  0
    4.9021    2.1920    8.9397 C   0  0  0  0  0  0  0  0  0  0  0  0
    5.4460    3.4157   10.0324 S   0  0  0  0  0  0  0  0  0  0  0  0
    7.0001    3.3024    9.3662 C   0  0  0  0  0  0  0  0  0  0  0  0
    7.0863    2.2585    8.4626 C   0  0  0  0  0  0  0  0  0  0  0  0
    5.8593    1.6208    8.2354 N   0  0  0  0  0  0  0  0  0  0  0  0
    8.3307    1.8310    7.8012 C   0  0  0  0  0  0  0  0  0  0  0  0
    8.4318    0.8850    7.0359 O   0  0  0  0  0  0  0  0  0  0  0  0
    9.4538    2.5600    8.1231 N   0  0  0  0  0  0  0  0  0  0  0  0
    2.2463    1.2213    5.5473 C   0  0  0  0  0  0  0  0  0  0  0  0
    3.0526    2.1486    4.7887 O   0  0  0  0  0  0  0  0  0  0  0  0
    3.3902    1.5897    3.2819 P   0  0  2  0  0  0  0  0  0  0  0  0
    4.8207    1.1152    3.6183 O   0  0  0  0  0  0  0  0  0  0  0  0
    4.0160    3.0245    2.0922 C   0  0  0  0  0  0  0  0  0  0  0  0
    5.8737    2.4989    2.0936 P   0  0  2  0  0  0  0  0  0  0  0  0
    5.9922    3.0139    3.5447 O   0  0  0  0  0  0  0  0  0  0  0  0
    6.6752    3.8466    1.4796 O   0  0  0  0  0  0  0  0  0  0  0  0
    7.3556    4.6164    2.5140 C   0  0  0  0  0  0  0  0  0  0  0  0
    8.3480    5.6594    2.0519 C   0  0  1  0  0  0  0  0  0  0  0  0
    9.3158    5.4476    2.5333 H   0  0  0  0  0  0  0  0  0  0  0  0
    8.5318    5.6385    0.6361 O   0  0  0  0  0  0  0  0  0  0  0  0
    9.0239    6.9416    0.3050 C   0  0  2  0  0  0  0  0  0  0  0  0
   10.1111    6.9337    0.4444 H   0  0  0  0  0  0  0  0  0  0  0  0
    8.3261    7.9261    1.2535 C   0  0  1  0  0  0  0  0  0  0  0  0
    7.4207    8.3387    0.7942 H   0  0  0  0  0  0  0  0  0  0  0  0
    7.9042    7.0705    2.4451 C   0  0  2  0  0  0  0  0  0  0  0  0
    6.8165    7.1292    2.5683 H   0  0  0  0  0  0  0  0  0  0  0  0
    8.4778    7.4748    3.6862 O   0  0  0  0  0  0  0  0  0  0  0  0
    9.1460    9.0236    1.6474 O   0  0  0  0  0  0  0  0  0  0  0  0
    8.7595    7.2151   -1.0934 N   0  0  0  0  0  0  0  0  0  0  0  0
    7.7882    6.6489   -1.8768 C   0  0  0  0  0  0  0  0  0  0  0  0
    7.8185    7.1095   -3.1101 N   0  0  0  0  0  0  0  0  0  0  0  0
    8.8595    8.0144   -3.1236 C   0  0  0  0  0  0  0  0  0  0  0  0
    9.4442    8.1129   -1.8704 C   0  0  0  0  0  0  0  0  0  0  0  0
   10.4595    8.9177   -1.5088 N   0  0  0  0  0  0  0  0  0  0  0  0
   10.8995    9.6313   -2.5732 C   0  0  0  0  0  0  0  0  0  0  0  0
   10.4345    9.6303   -3.8428 N   0  0  0  0  0  0  0  0  0  0  0  0
    9.3940    8.8207   -4.1432 C   0  0  0  0  0  0  0  0  0  0  0  0
    8.8994    8.8205   -5.4278 N   0  0  0  0  0  0  0  0  0  0  0  0
    5.7409    1.9220    0.4681 O   0  0  0  0  0  0  0  0  0  0  0  0
    1.7876    2.1213    2.9050 O   0  0  0  0  0  0  0  0  0  0  0  0
    0.9626    2.2141    9.4637 H   0  0  0  0  0  0  0  0  0  0  0  0
    0.3915    3.5865    7.5545 H   0  0  0  0  0  0  0  0  0  0  0  0
    7.7608    3.9814    9.7113 H   0  0  0  0  0  0  0  0  0  0  0  0
    9.4584    3.3500    8.7446 H   0  0  0  0  0  0  0  0  0  0  0  0
   10.3185    2.2884    7.6802 H   0  0  0  0  0  0  0  0  0  0  0  0
    2.6369    0.2010    5.4392 H   0  0  0  0  0  0  0  0  0  0  0  0
    1.2393    1.2407    5.1137 H   0  0  0  0  0  0  0  0  0  0  0  0
    3.8359    3.9984    2.5428 H   0  0  0  0  0  0  0  0  0  0  0  0
    3.5808    2.8578    1.1062 H   0  0  0  0  0  0  0  0  0  0  0  0
    7.9211    3.9425    3.1796 H   0  0  0  0  0  0  0  0  0  0  0  0
    6.5802    5.1002    3.1223 H   0  0  0  0  0  0  0  0  0  0  0  0
    8.3594    8.4433    3.7386 H   0  0  0  0  0  0  0  0  0  0  0  0
    9.4952    9.4311    0.8302 H   0  0  0  0  0  0  0  0  0  0  0  0
    7.0921    5.9068   -1.5033 H   0  0  0  0  0  0  0  0  0  0  0  0
   11.7393   10.2969   -2.3885 H   0  0  0  0  0  0  0  0  0  0  0  0
    9.3420    9.3992   -6.1226 H   0  0  0  0  0  0  0  0  0  0  0  0
    8.1413    8.1916   -5.6538 H   0  0  0  0  0  0  0  0  0  0  0  0
    6.6333    1.6742    0.1545 H   0  0  0  0  0  0  0  0  0  0  0  0
    1.5630    1.9951    1.9637 H   0  0  0  0  0  0  0  0  0  0  0  0
  1 52  1  0  0  0  0
  2  4  1  0  0  0  0
  2 10  1  0  0  0  0
  2  3  1  1  0  0  0
  2  1  1  0  0  0  0
  4  7  1  0  0  0  0
  4  6  1  0  0  0  0
  4  5  1  6  0  0  0
  6 53  1  0  0  0  0
  7  9  1  0  0  0  0
  7 20  1  0  0  0  0
  7  8  1  1  0  0  0
  9 10  1  0  0  0  0
 10 12  1  0  0  0  0
 10 11  1  1  0  0  0
 12 13  1  0  0  0  0
 12 16  2  0  0  0  0
 13 14  1  0  0  0  0
 14 15  2  0  0  0  0
 14 54  1  0  0  0  0
 15 16  1  0  0  0  0
 15 17  1  0  0  0  0
 17 18  2  0  0  0  0
 17 19  1  0  0  0  0
 19 55  1  0  0  0  0
 19 56  1  0  0  0  0
 20 21  1  0  0  0  0
 20 57  1  0  0  0  0
 20 58  1  0  0  0  0
 22 24  1  6  0  0  0
 22 51  1  0  0  0  0
 22 23  2  0  0  0  0
 22 21  1  0  0  0  0
 24 59  1  0  0  0  0
 24 60  1  0  0  0  0
 25 27  1  6  0  0  0
 25 50  1  0  0  0  0
 25 26  2  0  0  0  0
 25 24  1  0  0  0  0
 27 28  1  0  0  0  0
 28 29  1  0  0  0  0
 28 61  1  0  0  0  0
 28 62  1  0  0  0  0
 29 30  1  1  0  0  0
 29 31  1  0  0  0  0
 29 36  1  0  0  0  0
 31 32  1  0  0  0  0
 32 34  1  0  0  0  0
 32 40  1  0  0  0  0
 32 33  1  1  0  0  0
 34 35  1  6  0  0  0
 34 36  1  0  0  0  0
 34 39  1  0  0  0  0
 36 37  1  1  0  0  0
 36 38  1  0  0  0  0
 38 63  1  0  0  0  0
 39 64  1  0  0  0  0
 40 41  1  0  0  0  0
 40 44  1  0  0  0  0
 41 42  2  0  0  0  0
 41 65  1  0  0  0  0
 42 43  1  0  0  0  0
 43 44  2  0  0  0  0
 43 48  1  0  0  0  0
 44 45  1  0  0  0  0
 45 46  2  0  0  0  0
 46 47  1  0  0  0  0
 46 66  1  0  0  0  0
 47 48  2  0  0  0  0
 48 49  1  0  0  0  0
 49 67  1  0  0  0  0
 49 68  1  0  0  0  0
 50 69  1  0  0  0  0
 51 70  1  0  0  0  0
M  END
$$$$
