TAL
 OpenBabel04121316193D

 36 38  0  0  1  0  0  0  0  0999 V2000
    0.9211   -0.0367    0.0472 C   0  0  0  0  0  0  0  0  0  0  0  0
    2.4421   -0.0804    0.0956 C   0  0  1  0  0  0  0  0  0  0  0  0
    2.8060    0.8594    0.5269 H   0  0  0  0  0  0  0  0  0  0  0  0
    2.9723   -1.2616    0.9410 C   0  0  1  0  0  0  0  0  0  0  0  0
    3.9400   -0.9604    1.3656 H   0  0  0  0  0  0  0  0  0  0  0  0
    2.1094   -1.5824    2.0475 O   0  0  0  0  0  0  0  0  0  0  0  0
    2.3313   -2.9634    2.3711 C   0  0  2  0  0  0  0  0  0  0  0  0
    3.1400   -3.0130    3.1101 H   0  0  0  0  0  0  0  0  0  0  0  0
    2.7142   -3.6684    1.0619 C   0  0  1  0  0  0  0  0  0  0  0  0
    1.8465   -4.1723    0.6183 H   0  0  0  0  0  0  0  0  0  0  0  0
    3.1505   -2.5422    0.1302 C   0  0  2  0  0  0  0  0  0  0  0  0
    2.5060   -2.5481   -0.7555 H   0  0  0  0  0  0  0  0  0  0  0  0
    4.5014   -2.6743   -0.3087 O   0  0  0  0  0  0  0  0  0  0  0  0
    3.7504   -4.6444    1.2050 O   0  0  0  0  0  0  0  0  0  0  0  0
    1.1646   -3.5738    3.0088 N   0  0  0  0  0  0  0  0  0  0  0  0
    1.1327   -4.8799    3.4456 C   0  0  0  0  0  0  0  0  0  0  0  0
   -0.0328   -5.2125    3.9557 N   0  0  0  0  0  0  0  0  0  0  0  0
   -0.7832   -4.0666    3.8841 C   0  0  0  0  0  0  0  0  0  0  0  0
   -0.0611   -3.0302    3.2993 C   0  0  0  0  0  0  0  0  0  0  0  0
   -0.4979   -1.7821    3.0797 N   0  0  0  0  0  0  0  0  0  0  0  0
   -1.7617   -1.6128    3.5103 C   0  0  0  0  0  0  0  0  0  0  0  0
   -2.5751   -2.5246    4.0858 N   0  0  0  0  0  0  0  0  0  0  0  0
   -2.0965   -3.7862    4.2842 C   0  0  0  0  0  0  0  0  0  0  0  0
   -2.9968   -4.7994    4.9147 C   0  0  0  0  0  0  0  0  0  0  0  0
    2.9493   -0.1500   -1.2401 O   0  0  0  0  0  0  0  0  0  0  0  0
    0.5024    0.1294    1.0438 H   0  0  0  0  0  0  0  0  0  0  0  0
    0.5181   -0.9721   -0.3546 H   0  0  0  0  0  0  0  0  0  0  0  0
    0.5753    0.7691   -0.6077 H   0  0  0  0  0  0  0  0  0  0  0  0
    4.5851   -3.5747   -0.6695 H   0  0  0  0  0  0  0  0  0  0  0  0
    3.4480   -5.3517    1.7966 H   0  0  0  0  0  0  0  0  0  0  0  0
    1.9737   -5.5531    3.3665 H   0  0  0  0  0  0  0  0  0  0  0  0
   -2.1809   -0.6209    3.3764 H   0  0  0  0  0  0  0  0  0  0  0  0
   -3.9748   -4.3666    5.1467 H   0  0  0  0  0  0  0  0  0  0  0  0
   -2.5539   -5.1700    5.8442 H   0  0  0  0  0  0  0  0  0  0  0  0
   -3.1461   -5.6428    4.2335 H   0  0  0  0  0  0  0  0  0  0  0  0
    2.5784    0.5859   -1.7544 H   0  0  0  0  0  0  0  0  0  0  0  0
  1  2  1  0  0  0  0
  1 26  1  0  0  0  0
  1 27  1  0  0  0  0
  1 28  1  0  0  0  0
  2  3  1  1  0  0  0
  2  4  1  0  0  0  0
  2 25  1  0  0  0  0
  4  5  1  1  0  0  0
  4  6  1  0  0  0  0
  4 11  1  0  0  0  0
  6  7  1  0  0  0  0
  7  9  1  0  0  0  0
  7 15  1  0  0  0  0
  7  8  1  1  0  0  0
  9 10  1  6  0  0  0
  9 11  1  0  0  0  0
  9 14  1  0  0  0  0
 11 12  1  6  0  0  0
 11 13  1  0  0  0  0
 13 29  1  0  0  0  0
 14 30  1  0  0  0  0
 15 16  1  0  0  0  0
 15 19  1  0  0  0  0
 16 17  2  0  0  0  0
 16 31  1  0  0  0  0
 17 18  1  0  0  0  0
 18 19  2  0  0  0  0
 18 23  1  0  0  0  0
 19 20  1  0  0  0  0
 20 21  2  0  0  0  0
 21 22  1  0  0  0  0
 21 32  1  0  0  0  0
 22 23  2  0  0  0  0
 23 24  1  0  0  0  0
 24 33  1  0  0  0  0
 24 34  1  0  0  0  0
 24 35  1  0  0  0  0
 25 36  1  0  0  0  0
M  END
$$$$
