TAM
 OpenBabel04121316193D

 28 27  0  0  0  0  0  0  0  0999 V2000
    0.8055   -0.0107   -0.3239 O   0  0  0  0  0  0  0  0  0  0  0  0
    2.1984   -0.0216   -0.0640 C   0  0  0  0  0  0  0  0  0  0  0  0
    2.8911   -1.2516   -0.6525 C   0  0  0  0  0  0  0  0  0  0  0  0
    4.4503   -1.2095   -0.6298 C   0  0  0  0  0  0  0  0  0  0  0  0
    5.0161    0.0003   -1.4208 C   0  0  0  0  0  0  0  0  0  0  0  0
    4.5422    0.0980   -2.8721 C   0  0  0  0  0  0  0  0  0  0  0  0
    5.0493    1.2826   -3.4714 O   0  0  0  0  0  0  0  0  0  0  0  0
    5.0421   -1.2497    0.8144 C   0  0  0  0  0  0  0  0  0  0  0  0
    4.7789   -0.0484    1.7221 C   0  0  0  0  0  0  0  0  0  0  0  0
    5.4435   -0.2154    2.9694 O   0  0  0  0  0  0  0  0  0  0  0  0
    4.9500   -2.4406   -1.2857 N   0  0  0  0  0  0  0  0  0  0  0  0
    0.4333    0.6491    0.2922 H   0  0  0  0  0  0  0  0  0  0  0  0
    2.2551   -0.0448    1.0158 H   0  0  0  0  0  0  0  0  0  0  0  0
    2.6207    0.9132   -0.4395 H   0  0  0  0  0  0  0  0  0  0  0  0
    2.5280   -1.3982   -1.6786 H   0  0  0  0  0  0  0  0  0  0  0  0
    2.5363   -2.1411   -0.1139 H   0  0  0  0  0  0  0  0  0  0  0  0
    6.1156   -0.0206   -1.4123 H   0  0  0  0  0  0  0  0  0  0  0  0
    4.7615    0.9400   -0.9183 H   0  0  0  0  0  0  0  0  0  0  0  0
    3.4520    0.1340   -2.9429 H   0  0  0  0  0  0  0  0  0  0  0  0
    4.8956   -0.7497   -3.4663 H   0  0  0  0  0  0  0  0  0  0  0  0
    4.6718    2.0388   -2.9879 H   0  0  0  0  0  0  0  0  0  0  0  0
    6.1344   -1.3702    0.7543 H   0  0  0  0  0  0  0  0  0  0  0  0
    4.6919   -2.1545    1.3310 H   0  0  0  0  0  0  0  0  0  0  0  0
    3.7379    0.0489    1.9995 H   0  0  0  0  0  0  0  0  0  0  0  0
    5.1026    0.8909    1.2718 H   0  0  0  0  0  0  0  0  0  0  0  0
    4.9211   -0.8510    3.4779 H   0  0  0  0  0  0  0  0  0  0  0  0
    4.6230   -2.5130   -2.2486 H   0  0  0  0  0  0  0  0  0  0  0  0
    4.6059   -3.2753   -0.8122 H   0  0  0  0  0  0  0  0  0  0  0  0
  1  2  1  0  0  0  0
  1 12  1  0  0  0  0
  2  3  1  0  0  0  0
  2 13  1  0  0  0  0
  2 14  1  0  0  0  0
  3  4  1  0  0  0  0
  3 15  1  0  0  0  0
  3 16  1  0  0  0  0
  4  5  1  0  0  0  0
  4  8  1  0  0  0  0
  4 11  1  0  0  0  0
  5  6  1  0  0  0  0
  5 17  1  0  0  0  0
  5 18  1  0  0  0  0
  6  7  1  0  0  0  0
  6 19  1  0  0  0  0
  6 20  1  0  0  0  0
  7 21  1  0  0  0  0
  8  9  1  0  0  0  0
  8 22  1  0  0  0  0
  8 23  1  0  0  0  0
  9 10  1  0  0  0  0
  9 24  1  0  0  0  0
  9 25  1  0  0  0  0
 10 26  1  0  0  0  0
 11 27  1  0  0  0  0
 11 28  1  0  0  0  0
M  END
$$$$
