TBE
 OpenBabel04121316193D

 33 33  0  0  1  0  0  0  0  0999 V2000
    8.0241   -1.5572    5.2129 O   0  0  0  0  0  0  0  0  0  0  0  0
    7.6549   -1.2670    4.0788 C   0  0  0  0  0  0  0  0  0  0  0  0
    7.3220    0.1074    3.7114 C   0  0  0  0  0  0  0  0  0  0  0  0
    6.8919    0.3780    2.4819 C   0  0  0  0  0  0  0  0  0  0  0  0
    6.8216   -0.4351    1.3784 N   0  0  0  0  0  0  0  0  0  0  0  0
    6.3103   -0.0408    0.0211 C   0  0  2  0  0  0  0  0  0  0  0  0
    5.2164   -0.1344    0.0674 H   0  0  0  0  0  0  0  0  0  0  0  0
    6.8554   -1.0848   -1.0256 C   0  0  1  0  0  0  0  0  0  0  0  0
    6.1298   -0.7152   -2.7268 S   0  0  0  0  0  0  0  0  0  0  0  0
    6.7710   -1.8104   -3.5486 O   0  0  0  0  0  0  0  0  0  0  0  0
    4.6524   -0.8630   -2.4780 O   0  0  0  0  0  0  0  0  0  0  0  0
    8.4043   -1.0998   -1.2042 C   0  0  0  0  0  0  0  0  0  0  0  0
    8.9886    0.0983   -1.7904 N   0  0  0  0  0  0  0  0  0  0  0  0
   10.2253    0.3851   -2.2854 C   0  0  0  0  0  0  0  0  0  0  0  0
   10.2294    1.7647   -2.3821 C   0  0  0  0  0  0  0  0  0  0  0  0
    9.0324    2.2466   -2.0020 N   0  0  0  0  0  0  0  0  0  0  0  0
    8.2530    1.2022   -1.8637 N   0  0  0  0  0  0  0  0  0  0  0  0
    6.3494   -2.5187   -0.6734 C   0  0  0  0  0  0  0  0  0  0  0  0
    6.5662    1.5096   -0.1128 C   0  0  0  0  0  0  0  0  0  0  0  0
    5.7353    2.3478   -0.4685 O   0  0  0  0  0  0  0  0  0  0  0  0
    7.7627    1.9251    0.4367 O   0  0  0  0  0  0  0  0  0  0  0  0
    7.5361   -2.0308    3.2965 H   0  0  0  0  0  0  0  0  0  0  0  0
    7.4235    0.8933    4.4480 H   0  0  0  0  0  0  0  0  0  0  0  0
    6.6118    1.4180    2.3020 H   0  0  0  0  0  0  0  0  0  0  0  0
    6.9248   -1.4298    1.5225 H   0  0  0  0  0  0  0  0  0  0  0  0
    8.7454   -1.9485   -1.8093 H   0  0  0  0  0  0  0  0  0  0  0  0
    8.8670   -1.2363   -0.2134 H   0  0  0  0  0  0  0  0  0  0  0  0
   10.9316   -0.3697   -2.5773 H   0  0  0  0  0  0  0  0  0  0  0  0
   10.9647    2.4587   -2.7485 H   0  0  0  0  0  0  0  0  0  0  0  0
    5.2537   -2.5647   -0.6254 H   0  0  0  0  0  0  0  0  0  0  0  0
    6.7174   -2.8706    0.2953 H   0  0  0  0  0  0  0  0  0  0  0  0
    6.6783   -3.2728   -1.3978 H   0  0  0  0  0  0  0  0  0  0  0  0
    8.4134    1.2052    0.3171 H   0  0  0  0  0  0  0  0  0  0  0  0
  1  2  2  0  0  0  0
  2  3  1  0  0  0  0
  2 22  1  0  0  0  0
  3  4  2  0  0  0  0
  3 23  1  0  0  0  0
  4  5  1  0  0  0  0
  4 24  1  0  0  0  0
  5 25  1  0  0  0  0
  6  8  1  0  0  0  0
  6 19  1  0  0  0  0
  6  7  1  1  0  0  0
  6  5  1  0  0  0  0
  8  9  1  6  0  0  0
  8 12  1  0  0  0  0
  8 18  1  0  0  0  0
  9 10  2  0  0  0  0
  9 11  2  0  0  0  0
 12 13  1  0  0  0  0
 12 26  1  0  0  0  0
 12 27  1  0  0  0  0
 13 14  1  0  0  0  0
 13 17  1  0  0  0  0
 14 15  2  0  0  0  0
 14 28  1  0  0  0  0
 15 16  1  0  0  0  0
 15 29  1  0  0  0  0
 16 17  2  0  0  0  0
 18 30  1  0  0  0  0
 18 31  1  0  0  0  0
 18 32  1  0  0  0  0
 19 20  2  0  0  0  0
 19 21  1  0  0  0  0
 21 33  1  0  0  0  0
M  END
$$$$
