TBH
 OpenBabel04121316193D

 90 91  0  0  1  0  0  0  0  0999 V2000
    9.5536   -9.9647  -15.5133 C   0  0  0  0  0  0  0  0  0  0  0  0
   10.0451   -8.5416  -15.6925 C   0  0  0  0  0  0  0  0  0  0  0  0
    9.4488   -7.6460  -14.6268 C   0  0  0  0  0  0  0  0  0  0  0  0
    9.8897   -6.2011  -14.8130 C   0  0  0  0  0  0  0  0  0  0  0  0
    9.1790   -5.3505  -13.7781 C   0  0  0  0  0  0  0  0  0  0  0  0
    9.5245   -3.9499  -13.9555 N   0  0  0  0  0  0  0  0  0  0  0  0
    9.1570   -3.0777  -12.8508 C   0  0  1  0  0  0  0  0  0  0  0  0
    8.0803   -2.9727  -12.8880 H   0  0  0  0  0  0  0  0  0  0  0  0
    9.6907   -3.5758  -11.4684 C   0  0  2  0  0  0  0  0  0  0  0  0
    9.7557   -2.7399  -10.7577 H   0  0  0  0  0  0  0  0  0  0  0  0
   11.1286   -4.1661  -11.5223 C   0  0  0  0  0  0  0  0  0  0  0  0
   12.1465   -3.1696  -12.0151 C   0  0  0  0  0  0  0  0  0  0  0  0
   12.1097   -2.6839  -13.3213 C   0  0  0  0  0  0  0  0  0  0  0  0
   12.9197   -1.6735  -13.7613 C   0  0  0  0  0  0  0  0  0  0  0  0
   14.0243   -1.3577  -13.0050 C   0  0  0  0  0  0  0  0  0  0  0  0
   14.1683   -1.8957  -11.7038 C   0  0  0  0  0  0  0  0  0  0  0  0
   13.1493   -2.7089  -11.1800 C   0  0  0  0  0  0  0  0  0  0  0  0
   15.4226   -1.6476  -10.9365 C   0  0  0  0  0  0  0  0  0  0  0  0
   16.3803   -1.0064  -11.3755 O   0  0  0  0  0  0  0  0  0  0  0  0
   15.5055   -2.2090   -9.7160 O   0  0  0  0  0  0  0  0  0  0  0  0
   15.0023   -0.5606  -13.5069 O   0  0  0  0  0  0  0  0  0  0  0  0
   14.8783   -0.1047  -14.8467 C   0  0  0  0  0  0  0  0  0  0  0  0
   16.1537    0.6422  -15.1765 C   0  0  0  0  0  0  0  0  0  0  0  0
   17.1215    0.7575  -14.4401 O   0  0  0  0  0  0  0  0  0  0  0  0
   16.1433    1.2007  -16.4122 O   0  0  0  0  0  0  0  0  0  0  0  0
    8.7089   -4.5411  -10.9461 N   0  0  0  0  0  0  0  0  0  0  0  0
    7.4470   -3.8297  -10.6992 C   0  0  2  0  0  0  0  0  0  0  0  0
    7.6136   -2.7648  -10.7731 H   0  0  0  0  0  0  0  0  0  0  0  0
    6.9266   -4.2263   -9.3002 C   0  0  2  0  0  0  0  0  0  0  0  0
    7.7257   -4.7222   -8.7359 H   0  0  0  0  0  0  0  0  0  0  0  0
    5.7801   -5.2834   -9.4130 C   0  0  0  0  0  0  0  0  0  0  0  0
    6.1329   -6.6412  -10.0130 C   0  0  0  0  0  0  0  0  0  0  0  0
    6.7155   -6.8001  -11.2762 C   0  0  0  0  0  0  0  0  0  0  0  0
    6.8315   -7.9996  -11.9484 C   0  0  0  0  0  0  0  0  0  0  0  0
    6.5333   -9.1487  -11.2715 C   0  0  0  0  0  0  0  0  0  0  0  0
    6.0890   -9.0570   -9.9520 C   0  0  0  0  0  0  0  0  0  0  0  0
    5.8103   -7.8175   -9.3541 C   0  0  0  0  0  0  0  0  0  0  0  0
    6.5572   -3.0839   -8.4465 N   0  0  0  0  0  0  0  0  0  0  0  0
    7.0586   -1.7470   -8.6524 C   0  0  2  0  0  0  0  0  0  0  0  0
    6.8380   -1.1672   -7.7559 H   0  0  0  0  0  0  0  0  0  0  0  0
    6.4814   -1.0627   -9.7669 O   0  0  0  0  0  0  0  0  0  0  0  0
    5.0459   -0.9215   -9.7725 C   0  0  0  0  0  0  0  0  0  0  0  0
    4.3507   -2.2666   -9.9539 C   0  0  0  0  0  0  0  0  0  0  0  0
    4.5377   -0.2336   -8.5044 C   0  0  0  0  0  0  0  0  0  0  0  0
    4.6335   -0.0794  -10.9924 C   0  0  0  0  0  0  0  0  0  0  0  0
    8.4666   -1.7215   -8.7533 O   0  0  0  0  0  0  0  0  0  0  0  0
    6.4673   -4.0430  -11.7230 O   0  0  0  0  0  0  0  0  0  0  0  0
    9.5799   -1.7366  -13.0297 O   0  0  0  0  0  0  0  0  0  0  0  0
    9.9721  -10.6062  -16.2921 H   0  0  0  0  0  0  0  0  0  0  0  0
    8.4611  -10.0097  -15.5774 H   0  0  0  0  0  0  0  0  0  0  0  0
    9.8534  -10.3598  -14.5373 H   0  0  0  0  0  0  0  0  0  0  0  0
    9.7509   -8.1719  -16.6808 H   0  0  0  0  0  0  0  0  0  0  0  0
   11.1383   -8.5116  -15.6360 H   0  0  0  0  0  0  0  0  0  0  0  0
    9.7309   -8.0062  -13.6273 H   0  0  0  0  0  0  0  0  0  0  0  0
    8.3573   -7.6915  -14.6965 H   0  0  0  0  0  0  0  0  0  0  0  0
    9.6338   -5.8494  -15.8162 H   0  0  0  0  0  0  0  0  0  0  0  0
   10.9795   -6.1300  -14.6945 H   0  0  0  0  0  0  0  0  0  0  0  0
    9.4784   -5.7762  -12.8167 H   0  0  0  0  0  0  0  0  0  0  0  0
    8.0986   -5.4721  -13.8574 H   0  0  0  0  0  0  0  0  0  0  0  0
    9.2329   -3.5907  -14.8528 H   0  0  0  0  0  0  0  0  0  0  0  0
   11.2198   -5.0501  -12.1600 H   0  0  0  0  0  0  0  0  0  0  0  0
   11.4124   -4.5376  -10.5265 H   0  0  0  0  0  0  0  0  0  0  0  0
   11.4001   -3.0136  -14.0565 H   0  0  0  0  0  0  0  0  0  0  0  0
   12.6743   -1.2283  -14.7182 H   0  0  0  0  0  0  0  0  0  0  0  0
   13.1142   -3.0401  -10.1513 H   0  0  0  0  0  0  0  0  0  0  0  0
   14.7656   -2.7561   -9.4141 H   0  0  0  0  0  0  0  0  0  0  0  0
   14.0313    0.5881  -14.9191 H   0  0  0  0  0  0  0  0  0  0  0  0
   14.7702   -0.9409  -15.5527 H   0  0  0  0  0  0  0  0  0  0  0  0
   15.3295    1.0548  -16.9260 H   0  0  0  0  0  0  0  0  0  0  0  0
    9.0760   -4.9263  -10.0761 H   0  0  0  0  0  0  0  0  0  0  0  0
    4.9385   -4.8907  -10.0006 H   0  0  0  0  0  0  0  0  0  0  0  0
    5.3612   -5.4320   -8.4086 H   0  0  0  0  0  0  0  0  0  0  0  0
    7.1690   -6.0077  -11.8204 H   0  0  0  0  0  0  0  0  0  0  0  0
    7.1958   -7.9966  -12.9668 H   0  0  0  0  0  0  0  0  0  0  0  0
    6.6841  -10.0980  -11.7688 H   0  0  0  0  0  0  0  0  0  0  0  0
    5.9564   -9.9668   -9.3812 H   0  0  0  0  0  0  0  0  0  0  0  0
    5.3607   -7.7830   -8.3667 H   0  0  0  0  0  0  0  0  0  0  0  0
    6.4796   -3.3290   -7.4715 H   0  0  0  0  0  0  0  0  0  0  0  0
    4.4610   -2.8977   -9.0760 H   0  0  0  0  0  0  0  0  0  0  0  0
    4.7692   -2.7762  -10.8220 H   0  0  0  0  0  0  0  0  0  0  0  0
    3.2740   -2.1850  -10.0907 H   0  0  0  0  0  0  0  0  0  0  0  0
    4.8194   -0.7822   -7.6011 H   0  0  0  0  0  0  0  0  0  0  0  0
    3.4463   -0.1699   -8.5092 H   0  0  0  0  0  0  0  0  0  0  0  0
    4.9554    0.7743   -8.4116 H   0  0  0  0  0  0  0  0  0  0  0  0
    5.0043   -0.5187  -11.9261 H   0  0  0  0  0  0  0  0  0  0  0  0
    5.0203    0.9423  -10.9392 H   0  0  0  0  0  0  0  0  0  0  0  0
    3.5389   -0.0243  -11.0611 H   0  0  0  0  0  0  0  0  0  0  0  0
    8.6884   -0.7760   -8.6761 H   0  0  0  0  0  0  0  0  0  0  0  0
    6.9025   -4.3681  -12.5229 H   0  0  0  0  0  0  0  0  0  0  0  0
    9.2594   -1.4543  -13.8937 H   0  0  0  0  0  0  0  0  0  0  0  0
  1  2  1  0  0  0  0
  1 49  1  0  0  0  0
  1 50  1  0  0  0  0
  1 51  1  0  0  0  0
  2  3  1  0  0  0  0
  2 52  1  0  0  0  0
  2 53  1  0  0  0  0
  3  4  1  0  0  0  0
  3 54  1  0  0  0  0
  3 55  1  0  0  0  0
  4  5  1  0  0  0  0
  4 56  1  0  0  0  0
  4 57  1  0  0  0  0
  5  6  1  0  0  0  0
  5 58  1  0  0  0  0
  5 59  1  0  0  0  0
  6  7  1  0  0  0  0
  6 60  1  0  0  0  0
  7  8  1  1  0  0  0
  7 48  1  0  0  0  0
  9 11  1  0  0  0  0
  9 26  1  0  0  0  0
  9 10  1  1  0  0  0
  9  7  1  0  0  0  0
 11 12  1  0  0  0  0
 11 61  1  0  0  0  0
 11 62  1  0  0  0  0
 12 13  2  0  0  0  0
 12 17  1  0  0  0  0
 13 14  1  0  0  0  0
 13 63  1  0  0  0  0
 14 15  2  0  0  0  0
 14 64  1  0  0  0  0
 15 16  1  0  0  0  0
 15 21  1  0  0  0  0
 16 17  2  0  0  0  0
 16 18  1  0  0  0  0
 17 65  1  0  0  0  0
 18 19  2  0  0  0  0
 18 20  1  0  0  0  0
 20 66  1  0  0  0  0
 21 22  1  0  0  0  0
 22 23  1  0  0  0  0
 22 67  1  0  0  0  0
 22 68  1  0  0  0  0
 23 24  2  0  0  0  0
 23 25  1  0  0  0  0
 25 69  1  0  0  0  0
 26 70  1  0  0  0  0
 27 47  1  0  0  0  0
 27 28  1  1  0  0  0
 27 26  1  0  0  0  0
 29 31  1  0  0  0  0
 29 38  1  0  0  0  0
 29 30  1  1  0  0  0
 29 27  1  0  0  0  0
 31 32  1  0  0  0  0
 31 71  1  0  0  0  0
 31 72  1  0  0  0  0
 32 33  2  0  0  0  0
 32 37  1  0  0  0  0
 33 34  1  0  0  0  0
 33 73  1  0  0  0  0
 34 35  2  0  0  0  0
 34 74  1  0  0  0  0
 35 36  1  0  0  0  0
 35 75  1  0  0  0  0
 36 37  2  0  0  0  0
 36 76  1  0  0  0  0
 37 77  1  0  0  0  0
 38 78  1  0  0  0  0
 39 41  1  0  0  0  0
 39 46  1  0  0  0  0
 39 40  1  1  0  0  0
 39 38  1  0  0  0  0
 41 42  1  0  0  0  0
 42 43  1  0  0  0  0
 42 44  1  0  0  0  0
 42 45  1  0  0  0  0
 43 79  1  0  0  0  0
 43 80  1  0  0  0  0
 43 81  1  0  0  0  0
 44 82  1  0  0  0  0
 44 83  1  0  0  0  0
 44 84  1  0  0  0  0
 45 85  1  0  0  0  0
 45 86  1  0  0  0  0
 45 87  1  0  0  0  0
 46 88  1  0  0  0  0
 47 89  1  0  0  0  0
 48 90  1  0  0  0  0
M  END
$$$$
