TBV
 OpenBabel04121316193D

 93 96  0  0  0  0  0  0  0  0999 V2000
    1.0390    0.0439   -0.0364 C   0  0  0  0  0  0  0  0  0  0  0  0
    2.3779    0.0454    0.0266 C   0  0  0  0  0  0  0  0  0  0  0  0
    3.2404   -1.0065   -0.4272 C   0  0  0  0  0  0  0  0  0  0  0  0
    3.2154   -2.3243   -0.1489 C   0  0  0  0  0  0  0  0  0  0  0  0
    2.0934   -2.9613    0.6118 C   0  0  0  0  0  0  0  0  0  0  0  0
    4.3359   -3.0279   -0.8288 C   0  0  0  0  0  0  0  0  0  0  0  0
    4.4773   -4.3780   -0.9235 C   0  0  0  0  0  0  0  0  0  0  0  0
    5.0701   -5.2107   -1.9693 C   0  0  0  0  0  0  0  0  0  0  0  0
    5.8857   -4.7432   -2.9784 N   0  0  0  0  0  0  0  0  0  0  0  0
    6.2210   -3.7920   -3.0419 H   0  0  0  0  0  0  0  0  0  0  0  0
    5.9250   -5.6551   -4.0196 C   0  0  0  0  0  0  0  0  0  0  0  0
    5.3560   -6.8331   -3.5835 C   0  0  0  0  0  0  0  0  0  0  0  0
    4.7038   -6.5143   -2.3508 C   0  0  0  0  0  0  0  0  0  0  0  0
    3.7078   -7.3314   -1.6066 C   0  0  0  0  0  0  0  0  0  0  0  0
    5.5017   -8.1403   -4.3278 C   0  0  0  0  0  0  0  0  0  0  0  0
    4.7800   -9.2700   -3.6452 C   0  0  0  0  0  0  0  0  0  0  0  0
    4.9975  -10.6096   -4.2463 C   0  0  0  0  0  0  0  0  0  0  0  0
    5.7024  -10.8289   -5.2153 O   0  0  0  0  0  0  0  0  0  0  0  0
    4.3175  -11.5713   -3.5759 O   0  0  0  0  0  0  0  0  0  0  0  0
    6.6712   -5.5125   -5.3015 C   0  0  0  0  0  0  0  0  0  0  0  0
    7.2707   -4.1986   -5.5816 C   0  0  0  0  0  0  0  0  0  0  0  0
    6.5119   -3.1079   -5.3959 N   0  0  0  0  0  0  0  0  0  0  0  0
    5.5925   -3.2606   -5.0616 H   0  0  0  0  0  0  0  0  0  0  0  0
    7.1939   -1.9691   -5.6087 C   0  0  0  0  0  0  0  0  0  0  0  0
    8.4287   -2.3392   -6.0998 C   0  0  0  0  0  0  0  0  0  0  0  0
    8.4642   -3.7598   -6.1008 C   0  0  0  0  0  0  0  0  0  0  0  0
    9.5923   -4.5779   -6.5911 C   0  0  0  0  0  0  0  0  0  0  0  0
    9.3250   -6.0575   -6.4438 C   0  0  0  0  0  0  0  0  0  0  0  0
   10.4301   -6.8881   -6.9622 C   0  0  0  0  0  0  0  0  0  0  0  0
   11.4641   -6.4417   -7.4262 O   0  0  0  0  0  0  0  0  0  0  0  0
   10.1712   -8.2096   -6.8326 O   0  0  0  0  0  0  0  0  0  0  0  0
    9.5077   -1.4340   -6.5655 C   0  0  0  0  0  0  0  0  0  0  0  0
    6.6875   -0.5988   -5.4115 C   0  0  0  0  0  0  0  0  0  0  0  0
    5.2892   -0.3581   -4.9606 C   0  0  0  0  0  0  0  0  0  0  0  0
    4.3303   -1.3081   -4.7831 N   0  0  0  0  0  0  0  0  0  0  0  0
    4.4688   -2.2721   -4.8667 H   0  0  0  0  0  0  0  0  0  0  0  0
    3.1779   -0.8616   -4.2325 C   0  0  0  0  0  0  0  0  0  0  0  0
    3.3619    0.5045   -4.1563 C   0  0  0  0  0  0  0  0  0  0  0  0
    4.6660    0.8333   -4.6596 C   0  0  0  0  0  0  0  0  0  0  0  0
    5.2365    2.1412   -4.7620 C   0  0  0  0  0  0  0  0  0  0  0  0
    6.4402    2.4716   -5.2522 C   0  0  0  0  0  0  0  0  0  0  0  0
    2.4023    1.4325   -3.5434 C   0  0  0  0  0  0  0  0  0  0  0  0
    2.1617   -1.6261   -3.7887 O   0  0  0  0  0  0  0  0  0  0  0  0
    2.0525   -3.0483   -3.9594 C   0  0  0  0  0  0  0  0  0  0  0  0
    2.2933   -3.5987   -5.3472 C   0  0  0  0  0  0  0  0  0  0  0  0
    3.0337   -3.8099   -3.1877 C   0  0  0  0  0  0  0  0  0  0  0  0
    0.7907   -3.5314   -3.2157 C   0  0  0  0  0  0  0  0  0  0  0  0
    4.9182   -2.0444   -1.5975 N   0  0  0  0  0  0  0  0  0  0  0  0
    4.4310   -0.7773   -1.2835 C   0  0  0  0  0  0  0  0  0  0  0  0
    4.8526    0.2728   -1.6491 O   0  0  0  0  0  0  0  0  0  0  0  0
    0.4673    0.8214    0.4604 H   0  0  0  0  0  0  0  0  0  0  0  0
    0.4806   -0.7395   -0.5416 H   0  0  0  0  0  0  0  0  0  0  0  0
    2.9050    0.8628    0.5088 H   0  0  0  0  0  0  0  0  0  0  0  0
    1.5282   -2.2201    1.1880 H   0  0  0  0  0  0  0  0  0  0  0  0
    2.4824   -3.6793    1.3281 H   0  0  0  0  0  0  0  0  0  0  0  0
    1.3563   -3.4556   -0.0346 H   0  0  0  0  0  0  0  0  0  0  0  0
    3.7575   -4.9439   -0.3323 H   0  0  0  0  0  0  0  0  0  0  0  0
    3.6324   -8.3761   -1.8719 H   0  0  0  0  0  0  0  0  0  0  0  0
    2.7008   -6.9342   -1.7669 H   0  0  0  0  0  0  0  0  0  0  0  0
    3.9843   -7.3319   -0.5553 H   0  0  0  0  0  0  0  0  0  0  0  0
    6.5761   -8.3746   -4.3624 H   0  0  0  0  0  0  0  0  0  0  0  0
    5.1763   -8.0534   -5.3739 H   0  0  0  0  0  0  0  0  0  0  0  0
    3.7048   -9.0667   -3.7017 H   0  0  0  0  0  0  0  0  0  0  0  0
    5.1571   -9.3385   -2.6174 H   0  0  0  0  0  0  0  0  0  0  0  0
    3.7999  -11.2522   -2.8083 H   0  0  0  0  0  0  0  0  0  0  0  0
    6.1006   -5.8422   -6.1830 H   0  0  0  0  0  0  0  0  0  0  0  0
    7.4346   -6.2577   -5.1434 H   0  0  0  0  0  0  0  0  0  0  0  0
   10.4826   -4.3003   -6.0183 H   0  0  0  0  0  0  0  0  0  0  0  0
    9.7610   -4.3226   -7.6427 H   0  0  0  0  0  0  0  0  0  0  0  0
    8.4099   -6.3314   -6.9896 H   0  0  0  0  0  0  0  0  0  0  0  0
    9.2576   -6.2914   -5.3747 H   0  0  0  0  0  0  0  0  0  0  0  0
    9.3043   -8.4256   -6.4315 H   0  0  0  0  0  0  0  0  0  0  0  0
    9.2345   -0.3803   -6.4575 H   0  0  0  0  0  0  0  0  0  0  0  0
    9.7071   -1.6256   -7.6236 H   0  0  0  0  0  0  0  0  0  0  0  0
   10.4166   -1.6131   -5.9854 H   0  0  0  0  0  0  0  0  0  0  0  0
    6.7938   -0.1126   -6.3891 H   0  0  0  0  0  0  0  0  0  0  0  0
    7.3847   -0.1219   -4.7042 H   0  0  0  0  0  0  0  0  0  0  0  0
    4.6055    2.9570   -4.4224 H   0  0  0  0  0  0  0  0  0  0  0  0
    7.1641    1.7575   -5.6110 H   0  0  0  0  0  0  0  0  0  0  0  0
    6.7605    3.5005   -5.3268 H   0  0  0  0  0  0  0  0  0  0  0  0
    1.5582    0.8809   -3.1220 H   0  0  0  0  0  0  0  0  0  0  0  0
    2.0440    2.1195   -4.3093 H   0  0  0  0  0  0  0  0  0  0  0  0
    2.8876    1.9856   -2.7343 H   0  0  0  0  0  0  0  0  0  0  0  0
    3.2766   -3.3230   -5.7392 H   0  0  0  0  0  0  0  0  0  0  0  0
    1.5447   -3.2338   -6.0308 H   0  0  0  0  0  0  0  0  0  0  0  0
    2.3289   -4.6963   -5.3232 H   0  0  0  0  0  0  0  0  0  0  0  0
    4.0275   -3.5330   -3.4855 H   0  0  0  0  0  0  0  0  0  0  0  0
    2.9179   -4.8944   -3.2663 H   0  0  0  0  0  0  0  0  0  0  0  0
    2.7861   -3.5715   -2.1754 H   0  0  0  0  0  0  0  0  0  0  0  0
   -0.1195   -3.1996   -3.6904 H   0  0  0  0  0  0  0  0  0  0  0  0
    0.7796   -3.1405   -2.1820 H   0  0  0  0  0  0  0  0  0  0  0  0
    0.7894   -4.6286   -3.1037 H   0  0  0  0  0  0  0  0  0  0  0  0
    4.8961   -2.1380   -2.5994 H   0  0  0  0  0  0  0  0  0  0  0  0
  1  2  2  0  0  0  0
  1 51  1  0  0  0  0
  1 52  1  0  0  0  0
  2  3  1  0  0  0  0
  2 53  1  0  0  0  0
  3  4  2  0  0  0  0
  3 49  1  0  0  0  0
  4  5  1  0  0  0  0
  4  6  1  0  0  0  0
  5 54  1  0  0  0  0
  5 55  1  0  0  0  0
  5 56  1  0  0  0  0
  6  7  2  0  0  0  0
  6 48  1  0  0  0  0
  7  8  1  0  0  0  0
  7 57  1  0  0  0  0
  8  9  1  0  0  0  0
  8 13  2  0  0  0  0
  9 10  1  0  0  0  0
  9 11  1  0  0  0  0
 11 12  2  0  0  0  0
 11 20  1  0  0  0  0
 12 13  1  0  0  0  0
 12 15  1  0  0  0  0
 13 14  1  0  0  0  0
 14 58  1  0  0  0  0
 14 59  1  0  0  0  0
 14 60  1  0  0  0  0
 15 16  1  0  0  0  0
 15 61  1  0  0  0  0
 15 62  1  0  0  0  0
 16 17  1  0  0  0  0
 16 63  1  0  0  0  0
 16 64  1  0  0  0  0
 17 18  2  0  0  0  0
 17 19  1  0  0  0  0
 19 65  1  0  0  0  0
 20 21  1  0  0  0  0
 20 66  1  0  0  0  0
 20 67  1  0  0  0  0
 21 22  1  0  0  0  0
 21 26  2  0  0  0  0
 22 23  1  0  0  0  0
 22 24  1  0  0  0  0
 24 25  2  0  0  0  0
 24 33  1  0  0  0  0
 25 26  1  0  0  0  0
 25 32  1  0  0  0  0
 26 27  1  0  0  0  0
 27 28  1  0  0  0  0
 27 68  1  0  0  0  0
 27 69  1  0  0  0  0
 28 29  1  0  0  0  0
 28 70  1  0  0  0  0
 28 71  1  0  0  0  0
 29 30  2  0  0  0  0
 29 31  1  0  0  0  0
 31 72  1  0  0  0  0
 32 73  1  0  0  0  0
 32 74  1  0  0  0  0
 32 75  1  0  0  0  0
 33 34  1  0  0  0  0
 33 76  1  0  0  0  0
 33 77  1  0  0  0  0
 34 35  1  0  0  0  0
 34 39  2  0  0  0  0
 35 36  1  0  0  0  0
 35 37  1  0  0  0  0
 37 38  2  0  0  0  0
 37 43  1  0  0  0  0
 38 39  1  0  0  0  0
 38 42  1  0  0  0  0
 39 40  1  0  0  0  0
 40 41  2  0  0  0  0
 40 78  1  0  0  0  0
 41 79  1  0  0  0  0
 41 80  1  0  0  0  0
 42 81  1  0  0  0  0
 42 82  1  0  0  0  0
 42 83  1  0  0  0  0
 43 44  1  0  0  0  0
 44 45  1  0  0  0  0
 44 46  1  0  0  0  0
 44 47  1  0  0  0  0
 45 84  1  0  0  0  0
 45 85  1  0  0  0  0
 45 86  1  0  0  0  0
 46 87  1  0  0  0  0
 46 88  1  0  0  0  0
 46 89  1  0  0  0  0
 47 90  1  0  0  0  0
 47 91  1  0  0  0  0
 47 92  1  0  0  0  0
 48 49  1  0  0  0  0
 48 93  1  0  0  0  0
 49 50  2  0  0  0  0
M  END
$$$$
