TBZ
 OpenBabel04121316193D

 70 77  0  0  1  0  0  0  0  0999 V2000
    1.1100    0.0649    0.0288 C   0  0  0  0  0  0  0  0  0  0  0  0
    2.5418    0.0099    0.0663 O   0  0  0  0  0  0  0  0  0  0  0  0
    3.0836    1.0196   -0.6811 C   0  0  0  0  0  0  0  0  0  0  0  0
    2.8671    2.3512   -0.3489 C   0  0  0  0  0  0  0  0  0  0  0  0
    3.2719    3.3524   -1.2280 C   0  0  0  0  0  0  0  0  0  0  0  0
    3.9928    3.0439   -2.3925 C   0  0  0  0  0  0  0  0  0  0  0  0
    4.3582    1.7078   -2.6142 C   0  0  0  0  0  0  0  0  0  0  0  0
    3.8750    0.6926   -1.7786 C   0  0  0  0  0  0  0  0  0  0  0  0
    4.2820    4.0746   -3.3977 C   0  0  0  0  0  0  0  0  0  0  0  0
    4.6908    3.8863   -4.6406 N   0  0  0  0  0  0  0  0  0  0  0  0
    4.6721    5.1242   -5.2412 C   0  0  0  0  0  0  0  0  0  0  0  0
    4.2742    6.1002   -4.3439 C   0  0  0  0  0  0  0  0  0  0  0  0
    4.0607    5.4178   -3.1790 N   0  0  0  0  0  0  0  0  0  0  0  0
    3.7503    5.8299   -2.3172 H   0  0  0  0  0  0  0  0  0  0  0  0
    4.1573    7.4542   -4.6632 C   0  0  0  0  0  0  0  0  0  0  0  0
    4.4681    7.8337   -5.9782 C   0  0  0  0  0  0  0  0  0  0  0  0
    4.8679    6.8591   -6.9099 C   0  0  0  0  0  0  0  0  0  0  0  0
    4.9750    5.5018   -6.5562 C   0  0  0  0  0  0  0  0  0  0  0  0
    4.3990    9.2534   -6.3327 C   0  0  0  0  0  0  0  0  0  0  0  0
    4.6080   10.2762   -5.5228 N   0  0  0  0  0  0  0  0  0  0  0  0
    4.4778   11.4072   -6.2905 C   0  0  0  0  0  0  0  0  0  0  0  0
    4.1378   11.0777   -7.5933 C   0  0  0  0  0  0  0  0  0  0  0  0
    4.0811    9.7083   -7.5915 N   0  0  0  0  0  0  0  0  0  0  0  0
    3.8428    9.1227   -8.3758 H   0  0  0  0  0  0  0  0  0  0  0  0
    3.9298   12.0252   -8.6019 C   0  0  0  0  0  0  0  0  0  0  0  0
    4.0901   13.3848   -8.2686 C   0  0  0  0  0  0  0  0  0  0  0  0
    4.4385   13.7300   -6.9494 C   0  0  0  0  0  0  0  0  0  0  0  0
    4.6349   12.7571   -5.9516 C   0  0  0  0  0  0  0  0  0  0  0  0
    3.9284   14.4468   -9.2786 C   0  0  0  0  0  0  0  0  0  0  0  0
    4.0833   15.7461   -9.0856 N   0  0  0  0  0  0  0  0  0  0  0  0
    3.9047   16.3435  -10.3084 C   0  0  0  0  0  0  0  0  0  0  0  0
    3.6247   15.4054  -11.2862 C   0  0  0  0  0  0  0  0  0  0  0  0
    3.6119   14.2160  -10.6029 N   0  0  0  0  0  0  0  0  0  0  0  0
    3.4313   13.3134  -11.0091 H   0  0  0  0  0  0  0  0  0  0  0  0
    3.4260   15.7328  -12.6385 C   0  0  0  0  0  0  0  0  0  0  0  0
    3.4972   17.0855  -13.0281 C   0  0  0  0  0  0  0  0  0  0  0  0
    3.7640   18.0349  -12.0232 C   0  0  0  0  0  0  0  0  0  0  0  0
    3.9788   17.6889  -10.6749 C   0  0  0  0  0  0  0  0  0  0  0  0
    3.3607   17.4661  -14.3443 N   0  0  0  0  0  0  0  0  0  0  0  0
    3.6618   16.6127  -15.4857 C   0  0  0  0  0  0  0  0  0  0  0  0
    4.2035   17.6366  -16.4837 C   0  0  0  0  0  0  0  0  0  0  0  0
    3.3438   18.8793  -16.2342 C   0  0  1  0  0  0  0  0  0  0  0  0
    2.5411   18.9812  -16.9713 H   0  0  0  0  0  0  0  0  0  0  0  0
    2.7927   18.7281  -14.7958 C   0  0  0  0  0  0  0  0  0  0  0  0
    4.1922   20.1035  -16.3501 N   0  3  0  0  0  0  0  0  0  0  0  0
    4.9458   20.0947  -15.6463 H   0  0  0  0  0  0  0  0  0  0  0  0
    4.6332   20.1831  -17.2754 H   0  0  0  0  0  0  0  0  0  0  0  0
    3.6415   20.9590  -16.1964 H   0  0  0  0  0  0  0  0  0  0  0  0
    0.7227   -0.7464    0.6512 H   0  0  0  0  0  0  0  0  0  0  0  0
    0.7423   -0.0828   -0.9935 H   0  0  0  0  0  0  0  0  0  0  0  0
    0.7175    1.0044    0.4347 H   0  0  0  0  0  0  0  0  0  0  0  0
    2.3522    2.6165    0.5690 H   0  0  0  0  0  0  0  0  0  0  0  0
    2.9694    4.3676   -0.9948 H   0  0  0  0  0  0  0  0  0  0  0  0
    4.9873    1.4470   -3.4638 H   0  0  0  0  0  0  0  0  0  0  0  0
    4.0853   -0.3483   -2.0085 H   0  0  0  0  0  0  0  0  0  0  0  0
    3.8465    8.1879   -3.9250 H   0  0  0  0  0  0  0  0  0  0  0  0
    5.1387    7.1390   -7.9247 H   0  0  0  0  0  0  0  0  0  0  0  0
    5.2961    4.7566   -7.2755 H   0  0  0  0  0  0  0  0  0  0  0  0
    3.6671   11.6956   -9.5980 H   0  0  0  0  0  0  0  0  0  0  0  0
    4.5695   14.7786   -6.6815 H   0  0  0  0  0  0  0  0  0  0  0  0
    4.9113   13.0381   -4.9407 H   0  0  0  0  0  0  0  0  0  0  0  0
    3.2025   14.9490  -13.3536 H   0  0  0  0  0  0  0  0  0  0  0  0
    3.8660   19.0876  -12.2653 H   0  0  0  0  0  0  0  0  0  0  0  0
    4.2142   18.4413   -9.9303 H   0  0  0  0  0  0  0  0  0  0  0  0
    2.7492   16.1423  -15.8712 H   0  0  0  0  0  0  0  0  0  0  0  0
    4.4094   15.8405  -15.2793 H   0  0  0  0  0  0  0  0  0  0  0  0
    4.1407   17.2837  -17.5174 H   0  0  0  0  0  0  0  0  0  0  0  0
    5.2614   17.8336  -16.2629 H   0  0  0  0  0  0  0  0  0  0  0  0
    1.6986   18.6605  -14.8278 H   0  0  0  0  0  0  0  0  0  0  0  0
    3.0649   19.5845  -14.1736 H   0  0  0  0  0  0  0  0  0  0  0  0
  1  2  1  0  0  0  0
  1 49  1  0  0  0  0
  1 50  1  0  0  0  0
  1 51  1  0  0  0  0
  2  3  1  0  0  0  0
  3  4  2  0  0  0  0
  3  8  1  0  0  0  0
  4  5  1  0  0  0  0
  4 52  1  0  0  0  0
  5  6  2  0  0  0  0
  5 53  1  0  0  0  0
  6  7  1  0  0  0  0
  6  9  1  0  0  0  0
  7  8  2  0  0  0  0
  7 54  1  0  0  0  0
  8 55  1  0  0  0  0
  9 10  2  0  0  0  0
  9 13  1  0  0  0  0
 10 11  1  0  0  0  0
 11 12  2  0  0  0  0
 11 18  1  0  0  0  0
 12 13  1  0  0  0  0
 12 15  1  0  0  0  0
 13 14  1  0  0  0  0
 15 16  2  0  0  0  0
 15 56  1  0  0  0  0
 16 17  1  0  0  0  0
 16 19  1  0  0  0  0
 17 18  2  0  0  0  0
 17 57  1  0  0  0  0
 18 58  1  0  0  0  0
 19 20  2  0  0  0  0
 19 23  1  0  0  0  0
 20 21  1  0  0  0  0
 21 22  2  0  0  0  0
 21 28  1  0  0  0  0
 22 23  1  0  0  0  0
 22 25  1  0  0  0  0
 23 24  1  0  0  0  0
 25 26  2  0  0  0  0
 25 59  1  0  0  0  0
 26 27  1  0  0  0  0
 26 29  1  0  0  0  0
 27 28  2  0  0  0  0
 27 60  1  0  0  0  0
 28 61  1  0  0  0  0
 29 30  2  0  0  0  0
 29 33  1  0  0  0  0
 30 31  1  0  0  0  0
 31 32  2  0  0  0  0
 31 38  1  0  0  0  0
 32 33  1  0  0  0  0
 32 35  1  0  0  0  0
 33 34  1  0  0  0  0
 35 36  2  0  0  0  0
 35 62  1  0  0  0  0
 36 37  1  0  0  0  0
 36 39  1  0  0  0  0
 37 38  2  0  0  0  0
 37 63  1  0  0  0  0
 38 64  1  0  0  0  0
 39 40  1  0  0  0  0
 39 44  1  0  0  0  0
 40 41  1  0  0  0  0
 40 65  1  0  0  0  0
 40 66  1  0  0  0  0
 41 42  1  0  0  0  0
 41 67  1  0  0  0  0
 41 68  1  0  0  0  0
 42 43  1  6  0  0  0
 42 44  1  0  0  0  0
 42 45  1  0  0  0  0
 44 69  1  0  0  0  0
 44 70  1  0  0  0  0
 45 46  1  0  0  0  0
 45 47  1  0  0  0  0
 45 48  1  0  0  0  0
M  CHG  1  45   1
M  END
$$$$
