TC7
 OpenBabel04121316193D

 13 13  0  0  0  0  0  0  0  0999 V2000
    0.9873    0.1669    0.1628 Cl  0  0  0  0  0  0  0  0  0  0  0  0
    2.7095    0.1352    0.0594 C   0  0  0  0  0  0  0  0  0  0  0  0
    3.3945    1.3513    0.0169 C   0  0  0  0  0  0  0  0  0  0  0  0
    4.7800    1.3589   -0.1699 C   0  0  0  0  0  0  0  0  0  0  0  0
    5.5559    2.8946   -0.3322 Cl  0  0  0  0  0  0  0  0  0  0  0  0
    5.4837    0.1519   -0.2480 C   0  0  0  0  0  0  0  0  0  0  0  0
    4.8034   -1.0673   -0.1371 C   0  0  0  0  0  0  0  0  0  0  0  0
    3.4133   -1.0684   -0.0176 C   0  0  0  0  0  0  0  0  0  0  0  0
    2.7364   -2.2577    0.0063 O   0  0  0  0  0  0  0  0  0  0  0  0
    7.1899    0.0906   -0.5174 Cl  0  0  0  0  0  0  0  0  0  0  0  0
    2.8486    2.2857    0.1045 H   0  0  0  0  0  0  0  0  0  0  0  0
    5.3603   -1.9978   -0.1621 H   0  0  0  0  0  0  0  0  0  0  0  0
    3.3445   -2.9936   -0.1644 H   0  0  0  0  0  0  0  0  0  0  0  0
  1  2  1  0  0  0  0
  2  3  2  0  0  0  0
  2  8  1  0  0  0  0
  3  4  1  0  0  0  0
  3 11  1  0  0  0  0
  4  5  1  0  0  0  0
  4  6  2  0  0  0  0
  6  7  1  0  0  0  0
  6 10  1  0  0  0  0
  7  8  2  0  0  0  0
  7 12  1  0  0  0  0
  8  9  1  0  0  0  0
  9 13  1  0  0  0  0
M  END
$$$$
