TCL
 OpenBabel04121316193D

 24 25  0  0  0  0  0  0  0  0999 V2000
    0.8211   -0.3169    0.1129 Cl  0  0  0  0  0  0  0  0  0  0  0  0
    2.5324   -0.2574   -0.0008 C   0  0  0  0  0  0  0  0  0  0  0  0
    3.1393    0.9788   -0.1378 C   0  0  0  0  0  0  0  0  0  0  0  0
    4.5153    1.0422   -0.3208 C   0  0  0  0  0  0  0  0  0  0  0  0
    5.3446   -0.0825   -0.3190 C   0  0  0  0  0  0  0  0  0  0  0  0
    4.6951   -1.3264   -0.2069 C   0  0  0  0  0  0  0  0  0  0  0  0
    3.3070   -1.4099   -0.0189 C   0  0  0  0  0  0  0  0  0  0  0  0
    5.3668   -2.5129   -0.3241 O   0  0  0  0  0  0  0  0  0  0  0  0
    6.7324   -0.0951   -0.4177 O   0  0  0  0  0  0  0  0  0  0  0  0
    7.4854    1.0600   -0.5577 C   0  0  0  0  0  0  0  0  0  0  0  0
    7.0753    2.3141   -0.1177 C   0  0  0  0  0  0  0  0  0  0  0  0
    7.6480    3.4855   -0.5935 C   0  0  0  0  0  0  0  0  0  0  0  0
    8.9005    3.4121   -1.1690 C   0  0  0  0  0  0  0  0  0  0  0  0
    9.5120    2.1722   -1.3254 C   0  0  0  0  0  0  0  0  0  0  0  0
    8.7728    0.9955   -1.1088 C   0  0  0  0  0  0  0  0  0  0  0  0
    9.5228   -0.5133   -1.4829 Cl  0  0  0  0  0  0  0  0  0  0  0  0
    9.7130    4.8686   -1.5734 Cl  0  0  0  0  0  0  0  0  0  0  0  0
    2.5707    1.9024   -0.1267 H   0  0  0  0  0  0  0  0  0  0  0  0
    4.8517    2.0546   -0.4845 H   0  0  0  0  0  0  0  0  0  0  0  0
    2.8320   -2.3820    0.0992 H   0  0  0  0  0  0  0  0  0  0  0  0
    6.2731   -2.3165   -0.6232 H   0  0  0  0  0  0  0  0  0  0  0  0
    6.2908    2.4228    0.6218 H   0  0  0  0  0  0  0  0  0  0  0  0
    7.1387    4.4325   -0.4424 H   0  0  0  0  0  0  0  0  0  0  0  0
   10.5577    2.1254   -1.6174 H   0  0  0  0  0  0  0  0  0  0  0  0
  1  2  1  0  0  0  0
  2  3  2  0  0  0  0
  2  7  1  0  0  0  0
  3  4  1  0  0  0  0
  3 18  1  0  0  0  0
  4  5  2  0  0  0  0
  4 19  1  0  0  0  0
  5  6  1  0  0  0  0
  5  9  1  0  0  0  0
  6  7  2  0  0  0  0
  6  8  1  0  0  0  0
  7 20  1  0  0  0  0
  8 21  1  0  0  0  0
  9 10  1  0  0  0  0
 10 11  2  0  0  0  0
 10 15  1  0  0  0  0
 11 12  1  0  0  0  0
 11 22  1  0  0  0  0
 12 13  2  0  0  0  0
 12 23  1  0  0  0  0
 13 14  1  0  0  0  0
 13 17  1  0  0  0  0
 14 15  2  0  0  0  0
 14 24  1  0  0  0  0
 15 16  1  0  0  0  0
M  END
$$$$
