TCO
 OpenBabel04121316193D

 40 40  0  0  1  0  0  0  0  0999 V2000
    1.2703   -1.1828   -2.5776 O   0  0  0  0  0  0  0  0  0  0  0  0
    2.4576   -1.1161   -2.2614 C   0  0  0  0  0  0  0  0  0  0  0  0
    3.0328    0.0024   -1.3868 C   0  0  2  0  0  0  0  0  0  0  0  0
    2.6088   -0.2114   -0.4045 H   0  0  0  0  0  0  0  0  0  0  0  0
    2.5513    1.3620   -1.9854 C   0  0  0  0  0  0  0  0  0  0  0  0
    1.2132    1.6812   -1.2997 C   0  0  0  0  0  0  0  0  0  0  0  0
    1.4477    2.0336    0.1700 C   0  0  0  0  0  0  0  0  0  0  0  0
    2.3731    3.2351    0.2887 C   0  0  0  0  0  0  0  0  0  0  0  0
    3.7047    2.9978   -0.4195 C   0  0  0  0  0  0  0  0  0  0  0  0
    3.4746    2.5948   -1.8673 C   0  0  0  0  0  0  0  0  0  0  0  0
    4.4537   -0.1341   -1.1654 N   0  0  0  0  0  0  0  0  0  0  0  0
    5.2711    0.0304   -2.2287 C   0  0  0  0  0  0  0  0  0  0  0  0
    4.8190    0.1223   -3.3665 O   0  0  0  0  0  0  0  0  0  0  0  0
    6.5727    0.0748   -1.8776 O   0  0  0  0  0  0  0  0  0  0  0  0
    7.4984    0.1880   -2.9849 C   0  0  0  0  0  0  0  0  0  0  0  0
    7.3408   -1.0057   -3.9419 C   0  0  0  0  0  0  0  0  0  0  0  0
    7.3227    1.5320   -3.7086 C   0  0  0  0  0  0  0  0  0  0  0  0
    8.9136    0.1403   -2.3961 C   0  0  0  0  0  0  0  0  0  0  0  0
    3.1571   -1.9046   -2.5736 H   0  0  0  0  0  0  0  0  0  0  0  0
    2.3760    1.2298   -3.0640 H   0  0  0  0  0  0  0  0  0  0  0  0
    0.5333    0.8255   -1.3598 H   0  0  0  0  0  0  0  0  0  0  0  0
    0.7161    2.5088   -1.8183 H   0  0  0  0  0  0  0  0  0  0  0  0
    1.9031    1.2029    0.7203 H   0  0  0  0  0  0  0  0  0  0  0  0
    0.4893    2.2175    0.6593 H   0  0  0  0  0  0  0  0  0  0  0  0
    2.5533    3.4504    1.3449 H   0  0  0  0  0  0  0  0  0  0  0  0
    1.8745    4.1038   -0.1550 H   0  0  0  0  0  0  0  0  0  0  0  0
    4.2686    2.2139    0.0966 H   0  0  0  0  0  0  0  0  0  0  0  0
    4.3184    3.9040   -0.3779 H   0  0  0  0  0  0  0  0  0  0  0  0
    4.4319    2.4543   -2.3786 H   0  0  0  0  0  0  0  0  0  0  0  0
    3.0016    3.4358   -2.3968 H   0  0  0  0  0  0  0  0  0  0  0  0
    4.8522   -0.0526   -0.2367 H   0  0  0  0  0  0  0  0  0  0  0  0
    6.3552   -1.0519   -4.4113 H   0  0  0  0  0  0  0  0  0  0  0  0
    7.4564   -1.9506   -3.3993 H   0  0  0  0  0  0  0  0  0  0  0  0
    8.0667   -0.9591   -4.7559 H   0  0  0  0  0  0  0  0  0  0  0  0
    6.3290    1.6498   -4.1486 H   0  0  0  0  0  0  0  0  0  0  0  0
    8.0447    1.6364   -4.5228 H   0  0  0  0  0  0  0  0  0  0  0  0
    7.4444    2.3682   -3.0107 H   0  0  0  0  0  0  0  0  0  0  0  0
    9.0804   -0.7913   -1.8442 H   0  0  0  0  0  0  0  0  0  0  0  0
    9.0782    0.9603   -1.6887 H   0  0  0  0  0  0  0  0  0  0  0  0
    9.6673    0.2113   -3.1885 H   0  0  0  0  0  0  0  0  0  0  0  0
  1  2  2  0  0  0  0
  2 19  1  0  0  0  0
  3  5  1  0  0  0  0
  3 11  1  0  0  0  0
  3  4  1  1  0  0  0
  3  2  1  0  0  0  0
  5  6  1  0  0  0  0
  5 10  1  0  0  0  0
  5 20  1  0  0  0  0
  6  7  1  0  0  0  0
  6 21  1  0  0  0  0
  6 22  1  0  0  0  0
  7  8  1  0  0  0  0
  7 23  1  0  0  0  0
  7 24  1  0  0  0  0
  8  9  1  0  0  0  0
  8 25  1  0  0  0  0
  8 26  1  0  0  0  0
  9 10  1  0  0  0  0
  9 27  1  0  0  0  0
  9 28  1  0  0  0  0
 10 29  1  0  0  0  0
 10 30  1  0  0  0  0
 11 12  1  0  0  0  0
 11 31  1  0  0  0  0
 12 13  2  0  0  0  0
 12 14  1  0  0  0  0
 14 15  1  0  0  0  0
 15 16  1  0  0  0  0
 15 17  1  0  0  0  0
 15 18  1  0  0  0  0
 16 32  1  0  0  0  0
 16 33  1  0  0  0  0
 16 34  1  0  0  0  0
 17 35  1  0  0  0  0
 17 36  1  0  0  0  0
 17 37  1  0  0  0  0
 18 38  1  0  0  0  0
 18 39  1  0  0  0  0
 18 40  1  0  0  0  0
M  END
$$$$
