TDG
 OpenBabel04121316193D

 45 46  0  0  1  0  0  0  0  0999 V2000
    4.6020   -0.2894    0.8376 O   0  0  0  0  0  0  0  0  0  0  0  0
    5.6311   -1.0081    1.4283 C   0  0  0  0  0  0  0  0  0  0  0  0
    5.0672   -2.3665    1.2573 C   0  0  1  0  0  0  0  0  0  0  0  0
    5.5894   -2.6585    0.3382 H   0  0  0  0  0  0  0  0  0  0  0  0
    5.5442   -3.0688    2.3931 O   0  0  0  0  0  0  0  0  0  0  0  0
    4.6658   -2.9943    3.5379 C   0  0  1  0  0  0  0  0  0  0  0  0
    5.1508   -3.7016    4.2243 H   0  0  0  0  0  0  0  0  0  0  0  0
    4.7619   -1.2515    4.6240 S   0  0  0  0  0  0  0  0  0  0  0  0
    3.9960    0.2858    3.6154 C   0  0  2  0  0  0  0  0  0  0  0  0
    3.4325   -0.3453    2.9796 H   0  0  0  0  0  0  0  0  0  0  0  0
    4.8880    1.0931    2.7270 O   0  0  0  0  0  0  0  0  0  0  0  0
    4.2759    1.9134    1.5907 C   0  0  2  0  0  0  0  0  0  0  0  0
    3.5048    1.3973    0.9855 H   0  0  0  0  0  0  0  0  0  0  0  0
    5.3284    2.2671    0.4665 C   0  0  0  0  0  0  0  0  0  0  0  0
    4.7622    3.0711   -0.5685 O   0  0  0  0  0  0  0  0  0  0  0  0
    3.3953    2.9205    2.2452 C   0  0  1  0  0  0  0  0  0  0  0  0
    2.8663    3.5108    1.4839 H   0  0  0  0  0  0  0  0  0  0  0  0
    2.3598    2.0954    3.1089 C   0  0  1  0  0  0  0  0  0  0  0  0
    1.7872    1.4415    2.4248 H   0  0  0  0  0  0  0  0  0  0  0  0
    2.9451    1.1813    4.2408 C   0  0  1  0  0  0  0  0  0  0  0  0
    3.3832    1.7917    5.0312 H   0  0  0  0  0  0  0  0  0  0  0  0
    1.9201    0.3530    4.8361 O   0  0  0  0  0  0  0  0  0  0  0  0
    1.4042    2.9768    3.6831 O   0  0  0  0  0  0  0  0  0  0  0  0
    4.2159    3.7775    3.0142 O   0  0  0  0  0  0  0  0  0  0  0  0
    3.3047   -3.6663    3.1844 C   0  0  1  0  0  0  0  0  0  0  0  0
    2.7239   -3.8372    4.0936 H   0  0  0  0  0  0  0  0  0  0  0  0
    2.5540   -2.7896    2.2158 C   0  0  2  0  0  0  0  0  0  0  0  0
    1.6549   -3.2721    1.8184 H   0  0  0  0  0  0  0  0  0  0  0  0
    3.4713   -2.5314    0.9820 C   0  0  1  0  0  0  0  0  0  0  0  0
    3.4529   -3.4535    0.3956 H   0  0  0  0  0  0  0  0  0  0  0  0
    2.7953   -1.6104    0.1083 O   0  0  0  0  0  0  0  0  0  0  0  0
    2.0209   -1.6697    2.9342 O   0  0  0  0  0  0  0  0  0  0  0  0
    3.4494   -4.9315    2.5191 O   0  0  0  0  0  0  0  0  0  0  0  0
    4.2104    0.0026    1.6185 H   0  0  0  0  0  0  0  0  0  0  0  0
    5.8294   -0.8074    2.4844 H   0  0  0  0  0  0  0  0  0  0  0  0
    6.5491   -0.6480    0.9894 H   0  0  0  0  0  0  0  0  0  0  0  0
    5.7029    1.3682   -0.0505 H   0  0  0  0  0  0  0  0  0  0  0  0
    6.2339    2.7379    0.8533 H   0  0  0  0  0  0  0  0  0  0  0  0
    4.1302    2.5205   -1.0710 H   0  0  0  0  0  0  0  0  0  0  0  0
    1.3973   -0.0685    4.1258 H   0  0  0  0  0  0  0  0  0  0  0  0
    1.2883    3.7135    3.0615 H   0  0  0  0  0  0  0  0  0  0  0  0
    5.1084    3.7510    2.6134 H   0  0  0  0  0  0  0  0  0  0  0  0
    2.9713   -0.7186    0.4508 H   0  0  0  0  0  0  0  0  0  0  0  0
    2.3023   -1.7649    3.8744 H   0  0  0  0  0  0  0  0  0  0  0  0
    3.9528   -5.5384    3.0832 H   0  0  0  0  0  0  0  0  0  0  0  0
  1  2  1  0  0  0  0
  1 34  1  0  0  0  0
  2  3  1  0  0  0  0
  2 35  1  0  0  0  0
  2 36  1  0  0  0  0
  3  4  1  6  0  0  0
  3  5  1  0  0  0  0
  3 29  1  0  0  0  0
  5  6  1  0  0  0  0
  6 25  1  0  0  0  0
  6  8  1  0  0  0  0
  6  7  1  1  0  0  0
  9 11  1  0  0  0  0
  9 20  1  0  0  0  0
  9 10  1  6  0  0  0
  9  8  1  0  0  0  0
 11 12  1  0  0  0  0
 12 13  1  6  0  0  0
 12 14  1  0  0  0  0
 12 16  1  0  0  0  0
 14 15  1  0  0  0  0
 14 37  1  0  0  0  0
 14 38  1  0  0  0  0
 15 39  1  0  0  0  0
 16 17  1  6  0  0  0
 16 18  1  0  0  0  0
 16 24  1  0  0  0  0
 18 19  1  6  0  0  0
 18 20  1  0  0  0  0
 18 23  1  0  0  0  0
 20 22  1  0  0  0  0
 20 21  1  1  0  0  0
 22 40  1  0  0  0  0
 23 41  1  0  0  0  0
 24 42  1  0  0  0  0
 25 26  1  1  0  0  0
 25 27  1  0  0  0  0
 25 33  1  0  0  0  0
 27 29  1  0  0  0  0
 27 32  1  0  0  0  0
 27 28  1  6  0  0  0
 29 31  1  0  0  0  0
 29 30  1  6  0  0  0
 31 43  1  0  0  0  0
 32 44  1  0  0  0  0
 33 45  1  0  0  0  0
M  END
$$$$
