TDO
 OpenBabel04121316193D

 59 61  0  0  1  0  0  0  0  0999 V2000
    3.3152    0.4178   -4.5981 O   0  0  0  0  0  0  0  0  0  0  0  0
    2.4603   -0.3876   -5.3877 C   0  0  1  0  0  0  0  0  0  0  0  0
    1.5385   -0.5890   -4.8251 H   0  0  0  0  0  0  0  0  0  0  0  0
    2.1712    0.2275   -6.7247 C   0  0  0  0  0  0  0  0  0  0  0  0
    1.8396   -0.9862   -7.5953 C   0  0  1  0  0  0  0  0  0  0  0  0
    2.0011   -0.7846   -8.6573 H   0  0  0  0  0  0  0  0  0  0  0  0
    2.8074   -1.9515   -7.1796 O   0  0  0  0  0  0  0  0  0  0  0  0
    3.1417   -1.6640   -5.8072 C   0  0  2  0  0  0  0  0  0  0  0  0
    4.2333   -1.6269   -5.6980 H   0  0  0  0  0  0  0  0  0  0  0  0
    2.6207   -2.7786   -4.9683 C   0  0  0  0  0  0  0  0  0  0  0  0
    2.5903   -2.4808   -3.5821 O   0  0  0  0  0  0  0  0  0  0  0  0
    2.2537   -3.6705   -2.4582 P   0  0  2  0  0  0  0  0  0  0  0  0
    1.3718   -3.0558   -1.4074 O   0  0  0  0  0  0  0  0  0  0  0  0
    3.8468   -4.5302   -1.2455 O   0  0  0  0  0  0  0  0  0  0  0  0
    3.8489   -3.6551    0.2469 P   0  0  1  0  0  0  0  0  0  0  0  0
    3.8763   -4.8182    1.2155 O   0  0  0  0  0  0  0  0  0  0  0  0
    5.1683   -2.8669   -0.3581 O   0  0  0  0  0  0  0  0  0  0  0  0
    5.5736   -3.2872   -1.7921 C   0  0  1  0  0  0  0  0  0  0  0  0
    5.9527   -2.3107   -2.1917 H   0  0  0  0  0  0  0  0  0  0  0  0
    6.4638   -4.3728   -1.9266 O   0  0  0  0  0  0  0  0  0  0  0  0
    5.9075   -5.6401   -1.4782 C   0  0  1  0  0  0  0  0  0  0  0  0
    6.6669   -6.3622   -1.6749 H   0  0  0  0  0  0  0  0  0  0  0  0
    5.8960   -5.5669    0.0364 C   0  0  0  0  0  0  0  0  0  0  0  0
    4.5090   -6.4262   -2.1565 C   0  0  0  0  0  0  0  0  0  0  0  0
    4.4206   -7.5494   -2.6367 O   0  0  0  0  0  0  0  0  0  0  0  0
    3.3706   -5.5312   -2.4762 C   0  0  2  0  0  0  0  0  0  0  0  0
    2.2878   -5.9671   -2.6784 H   0  0  0  0  0  0  0  0  0  0  0  0
    4.3677   -3.7636   -2.7558 C   0  0  1  0  0  0  0  0  0  0  0  0
    4.6371   -3.5847   -3.8043 H   0  0  0  0  0  0  0  0  0  0  0  0
    3.9046   -2.1316   -2.1713 O   0  0  0  0  0  0  0  0  0  0  0  0
    2.2306   -5.5228   -0.9972 O   0  0  0  0  0  0  0  0  0  0  0  0
    3.8511   -2.7800    1.7392 O   0  0  0  0  0  0  0  0  0  0  0  0
    2.0720   -4.7051   -3.8599 O   0  0  0  0  0  0  0  0  0  0  0  0
    0.4362   -1.4520   -7.4377 N   0  0  0  0  0  0  0  0  0  0  0  0
   -0.5693   -0.5513   -7.7647 C   0  0  0  0  0  0  0  0  0  0  0  0
   -1.8407   -0.7338   -7.3879 C   0  0  0  0  0  0  0  0  0  0  0  0
   -2.9234    0.2769   -7.5142 C   0  0  0  0  0  0  0  0  0  0  0  0
   -2.2110   -2.0152   -6.7581 C   0  0  0  0  0  0  0  0  0  0  0  0
   -3.3361   -2.2362   -6.3290 O   0  0  0  0  0  0  0  0  0  0  0  0
   -1.2224   -2.9421   -6.7256 N   0  0  0  0  0  0  0  0  0  0  0  0
   -1.4494   -3.8587   -6.3755 H   0  0  0  0  0  0  0  0  0  0  0  0
    0.0952   -2.7274   -7.0034 C   0  0  0  0  0  0  0  0  0  0  0  0
    0.8469   -3.6829   -6.8404 O   0  0  0  0  0  0  0  0  0  0  0  0
    2.7959    1.1726   -4.2778 H   0  0  0  0  0  0  0  0  0  0  0  0
    3.0870    0.7126   -7.0823 H   0  0  0  0  0  0  0  0  0  0  0  0
    1.3874    0.9796   -6.6538 H   0  0  0  0  0  0  0  0  0  0  0  0
    3.2405   -3.6337   -5.2890 H   0  0  0  0  0  0  0  0  0  0  0  0
    1.5808   -3.0118   -5.1137 H   0  0  0  0  0  0  0  0  0  0  0  0
    5.7653   -4.5243    0.0649 H   0  0  0  0  0  0  0  0  0  0  0  0
    6.5230   -5.2225    0.8746 H   0  0  0  0  0  0  0  0  0  0  0  0
    5.0403   -6.1347    0.3748 H   0  0  0  0  0  0  0  0  0  0  0  0
    3.1372   -1.9021   -1.5806 H   0  0  0  0  0  0  0  0  0  0  0  0
    2.0772   -4.6085   -0.6091 H   0  0  0  0  0  0  0  0  0  0  0  0
    3.4165   -3.3801    2.3780 H   0  0  0  0  0  0  0  0  0  0  0  0
    2.5741   -5.5507   -4.1845 H   0  0  0  0  0  0  0  0  0  0  0  0
   -0.2736    0.3461   -8.3044 H   0  0  0  0  0  0  0  0  0  0  0  0
   -2.5560    1.1951   -7.9792 H   0  0  0  0  0  0  0  0  0  0  0  0
   -3.3000    0.5359   -6.5174 H   0  0  0  0  0  0  0  0  0  0  0  0
   -3.7525   -0.1152   -8.1089 H   0  0  0  0  0  0  0  0  0  0  0  0
  1  2  1  0  0  0  0
  1 44  1  0  0  0  0
  2  3  1  1  0  0  0
  2  4  1  0  0  0  0
  2  8  1  0  0  0  0
  4  5  1  0  0  0  0
  4 45  1  0  0  0  0
  4 46  1  0  0  0  0
  5  6  1  6  0  0  0
  5  7  1  0  0  0  0
  5 34  1  0  0  0  0
  7  8  1  0  0  0  0
  8  9  1  1  0  0  0
  8 10  1  0  0  0  0
 10 11  1  0  0  0  0
 10 47  1  0  0  0  0
 10 48  1  0  0  0  0
 12 14  1  1  0  0  0
 12 33  1  0  0  0  0
 12 13  2  0  0  0  0
 12 11  1  0  0  0  0
 15 14  1  6  0  0  0
 15 16  2  0  0  0  0
 15 17  1  0  0  0  0
 15 32  1  0  0  0  0
 17 18  1  0  0  0  0
 18 19  1  6  0  0  0
 18 20  1  0  0  0  0
 18 28  1  0  0  0  0
 20 21  1  0  0  0  0
 21 24  1  0  0  0  0
 21 23  1  0  0  0  0
 21 22  1  6  0  0  0
 23 49  1  0  0  0  0
 23 50  1  0  0  0  0
 23 51  1  0  0  0  0
 24 25  2  0  0  0  0
 24 26  1  0  0  0  0
 26 28  1  0  0  0  0
 26 31  1  0  0  0  0
 26 27  1  6  0  0  0
 28 30  1  0  0  0  0
 28 29  1  6  0  0  0
 30 52  1  0  0  0  0
 31 53  1  0  0  0  0
 32 54  1  0  0  0  0
 33 55  1  0  0  0  0
 34 35  1  0  0  0  0
 34 42  1  0  0  0  0
 35 36  2  0  0  0  0
 35 56  1  0  0  0  0
 36 37  1  0  0  0  0
 36 38  1  0  0  0  0
 37 57  1  0  0  0  0
 37 58  1  0  0  0  0
 37 59  1  0  0  0  0
 38 39  2  0  0  0  0
 38 40  1  0  0  0  0
 40 41  1  0  0  0  0
 40 42  1  0  0  0  0
 42 43  2  0  0  0  0
M  END
$$$$
