TDR
 OpenBabel04121316193D

 15 15  0  0  0  0  0  0  0  0999 V2000
    0.9617   -0.0497   -0.0284 C   0  0  0  0  0  0  0  0  0  0  0  0
    2.4510    0.0142   -0.0457 C   0  0  0  0  0  0  0  0  0  0  0  0
    3.1586    1.1507   -0.0345 C   0  0  0  0  0  0  0  0  0  0  0  0
    4.5125    1.1388   -0.2152 N   0  0  0  0  0  0  0  0  0  0  0  0
    5.0225    2.0056   -0.3438 H   0  0  0  0  0  0  0  0  0  0  0  0
    5.2509   -0.0087   -0.3165 C   0  0  0  0  0  0  0  0  0  0  0  0
    6.4465    0.0090   -0.5880 O   0  0  0  0  0  0  0  0  0  0  0  0
    4.5616   -1.1684   -0.1075 N   0  0  0  0  0  0  0  0  0  0  0  0
    5.0857   -2.0271   -0.1595 H   0  0  0  0  0  0  0  0  0  0  0  0
    3.1994   -1.2681   -0.1228 C   0  0  0  0  0  0  0  0  0  0  0  0
    2.6233   -2.3504   -0.1985 O   0  0  0  0  0  0  0  0  0  0  0  0
    0.5182    0.9499    0.0269 H   0  0  0  0  0  0  0  0  0  0  0  0
    0.6030   -0.6307    0.8256 H   0  0  0  0  0  0  0  0  0  0  0  0
    0.5970   -0.5182   -0.9496 H   0  0  0  0  0  0  0  0  0  0  0  0
    2.6937    2.1269    0.0629 H   0  0  0  0  0  0  0  0  0  0  0  0
  1  2  1  0  0  0  0
  1 12  1  0  0  0  0
  1 13  1  0  0  0  0
  1 14  1  0  0  0  0
  2  3  2  0  0  0  0
  2 10  1  0  0  0  0
  3  4  1  0  0  0  0
  3 15  1  0  0  0  0
  4  5  1  0  0  0  0
  4  6  1  0  0  0  0
  6  7  2  0  0  0  0
  6  8  1  0  0  0  0
  8  9  1  0  0  0  0
  8 10  1  0  0  0  0
 10 11  2  0  0  0  0
M  END
$$$$
