TDX
 OpenBabel04121316193D

 58 60  0  0  1  0  0  0  0  0999 V2000
    1.0544    0.0430    0.0828 O   0  0  0  0  0  0  0  0  0  0  0  0
    2.4658    0.0248    0.0272 C   0  0  1  0  0  0  0  0  0  0  0  0
    2.7947    0.1060   -1.0161 H   0  0  0  0  0  0  0  0  0  0  0  0
    3.0489    1.1224    0.8758 C   0  0  0  0  0  0  0  0  0  0  0  0
    4.4388    0.5837    1.2063 C   0  0  1  0  0  0  0  0  0  0  0  0
    4.8270    1.0272    2.1306 H   0  0  0  0  0  0  0  0  0  0  0  0
    4.2151   -0.8174    1.4198 O   0  0  0  0  0  0  0  0  0  0  0  0
    3.0329   -1.2161    0.6885 C   0  0  2  0  0  0  0  0  0  0  0  0
    2.3401   -1.6237    1.4242 H   0  0  0  0  0  0  0  0  0  0  0  0
    3.3660   -2.2704   -0.3574 C   0  0  0  0  0  0  0  0  0  0  0  0
    2.2315   -2.7526   -1.1100 O   0  0  0  0  0  0  0  0  0  0  0  0
    2.6440   -3.9237   -2.3147 P   0  0  1  0  0  0  0  0  0  0  0  0
    4.1519   -3.8596   -2.0717 O   0  0  0  0  0  0  0  0  0  0  0  0
    1.9548   -5.1729   -1.3363 O   0  0  0  0  0  0  0  0  0  0  0  0
    1.3362   -4.4852    0.1257 P   0  0  1  0  0  0  0  0  0  0  0  0
    0.4460   -3.3510   -0.4720 O   0  0  0  0  0  0  0  0  0  0  0  0
   -0.0011   -5.5040   -0.0827 O   0  0  0  0  0  0  0  0  0  0  0  0
   -0.2570   -5.9387   -1.4754 C   0  0  1  0  0  0  0  0  0  0  0  0
   -0.3760   -5.0990   -2.1932 H   0  0  0  0  0  0  0  0  0  0  0  0
    0.7974   -6.8207   -1.9348 O   0  0  0  0  0  0  0  0  0  0  0  0
    1.2802   -7.5806   -0.8248 C   0  0  0  0  0  0  0  0  0  0  0  0
    0.2329   -8.6279   -0.6565 C   0  0  2  0  0  0  0  0  0  0  0  0
    0.2365   -9.2213   -1.5756 H   0  0  0  0  0  0  0  0  0  0  0  0
   -1.1555   -7.9450   -0.4652 C   0  0  1  0  0  0  0  0  0  0  0  0
   -1.1947   -7.4784    0.5285 H   0  0  0  0  0  0  0  0  0  0  0  0
   -1.4556   -6.8625   -1.5247 C   0  0  1  0  0  0  0  0  0  0  0  0
   -1.5213   -7.3195   -2.5223 H   0  0  0  0  0  0  0  0  0  0  0  0
   -2.6761   -6.1603   -1.3004 O   0  0  0  0  0  0  0  0  0  0  0  0
   -2.1545   -8.9539   -0.4689 O   0  0  0  0  0  0  0  0  0  0  0  0
    0.5430   -9.4718    0.4459 O   0  0  0  0  0  0  0  0  0  0  0  0
    0.7175   -3.7975    1.5876 O   0  0  0  0  0  0  0  0  0  0  0  0
    3.0565   -5.0948   -3.5194 O   0  0  0  0  0  0  0  0  0  0  0  0
    5.4348    0.8354    0.1395 N   0  0  0  0  0  0  0  0  0  0  0  0
    5.6592    2.1544   -0.2359 C   0  0  0  0  0  0  0  0  0  0  0  0
    6.3065    2.4799   -1.3593 C   0  0  0  0  0  0  0  0  0  0  0  0
    6.4129    3.8567   -1.9205 C   0  0  0  0  0  0  0  0  0  0  0  0
    6.9226    1.3927   -2.1591 C   0  0  0  0  0  0  0  0  0  0  0  0
    7.4313    1.5859   -3.2387 O   0  0  0  0  0  0  0  0  0  0  0  0
    6.8793    0.1600   -1.5715 N   0  0  0  0  0  0  0  0  0  0  0  0
    7.3092   -0.6019   -2.0703 H   0  0  0  0  0  0  0  0  0  0  0  0
    6.1242   -0.1984   -0.4918 C   0  0  0  0  0  0  0  0  0  0  0  0
    6.0972   -1.3862   -0.1972 O   0  0  0  0  0  0  0  0  0  0  0  0
    0.7337    0.7752   -0.4682 H   0  0  0  0  0  0  0  0  0  0  0  0
    2.4513    1.2183    1.7916 H   0  0  0  0  0  0  0  0  0  0  0  0
    3.0203    2.0875    0.3662 H   0  0  0  0  0  0  0  0  0  0  0  0
    3.8584   -3.1192    0.1383 H   0  0  0  0  0  0  0  0  0  0  0  0
    4.0529   -1.8382   -1.0853 H   0  0  0  0  0  0  0  0  0  0  0  0
    1.3883   -7.0243    0.1218 H   0  0  0  0  0  0  0  0  0  0  0  0
    2.2977   -7.9233   -1.0173 H   0  0  0  0  0  0  0  0  0  0  0  0
   -2.5947   -5.7069   -0.4439 H   0  0  0  0  0  0  0  0  0  0  0  0
   -1.8046   -9.6445    0.1220 H   0  0  0  0  0  0  0  0  0  0  0  0
    0.6418   -8.9109    1.2355 H   0  0  0  0  0  0  0  0  0  0  0  0
    1.3698   -3.2013    1.9830 H   0  0  0  0  0  0  0  0  0  0  0  0
    3.7958   -4.7260   -4.0365 H   0  0  0  0  0  0  0  0  0  0  0  0
    5.2293    2.9261    0.4004 H   0  0  0  0  0  0  0  0  0  0  0  0
    5.9312    4.5969   -1.2742 H   0  0  0  0  0  0  0  0  0  0  0  0
    5.9128    3.8967   -2.8953 H   0  0  0  0  0  0  0  0  0  0  0  0
    7.4595    4.1431   -2.0552 H   0  0  0  0  0  0  0  0  0  0  0  0
  1  2  1  0  0  0  0
  1 43  1  0  0  0  0
  2  3  1  6  0  0  0
  2  4  1  0  0  0  0
  2  8  1  0  0  0  0
  4  5  1  0  0  0  0
  4 44  1  0  0  0  0
  4 45  1  0  0  0  0
  5  6  1  1  0  0  0
  5  7  1  0  0  0  0
  5 33  1  0  0  0  0
  7  8  1  0  0  0  0
  8  9  1  1  0  0  0
  8 10  1  0  0  0  0
 10 11  1  0  0  0  0
 10 46  1  0  0  0  0
 10 47  1  0  0  0  0
 12 11  1  6  0  0  0
 12 13  2  0  0  0  0
 12 14  1  0  0  0  0
 12 32  1  0  0  0  0
 15 14  1  6  0  0  0
 15 16  2  0  0  0  0
 15 17  1  0  0  0  0
 15 31  1  0  0  0  0
 17 18  1  0  0  0  0
 18 19  1  6  0  0  0
 18 20  1  0  0  0  0
 18 26  1  0  0  0  0
 20 21  1  0  0  0  0
 21 22  1  0  0  0  0
 21 48  1  0  0  0  0
 21 49  1  0  0  0  0
 22 24  1  0  0  0  0
 22 30  1  0  0  0  0
 22 23  1  6  0  0  0
 24 25  1  1  0  0  0
 24 26  1  0  0  0  0
 24 29  1  0  0  0  0
 26 28  1  0  0  0  0
 26 27  1  6  0  0  0
 28 50  1  0  0  0  0
 29 51  1  0  0  0  0
 30 52  1  0  0  0  0
 31 53  1  0  0  0  0
 32 54  1  0  0  0  0
 33 34  1  0  0  0  0
 33 41  1  0  0  0  0
 34 35  2  0  0  0  0
 34 55  1  0  0  0  0
 35 36  1  0  0  0  0
 35 37  1  0  0  0  0
 36 56  1  0  0  0  0
 36 57  1  0  0  0  0
 36 58  1  0  0  0  0
 37 38  2  0  0  0  0
 37 39  1  0  0  0  0
 39 40  1  0  0  0  0
 39 41  1  0  0  0  0
 41 42  2  0  0  0  0
M  END
$$$$
