TEF
 OpenBabel04121316193D

 28 29  0  0  1  0  0  0  0  0999 V2000
    3.4300    3.4315   -0.8732 O   0  0  0  0  0  0  0  0  0  0  0  0
    2.8974    2.1954   -1.0270 C   0  0  0  0  0  0  0  0  0  0  0  0
    2.3889    1.8608   -2.0912 O   0  0  0  0  0  0  0  0  0  0  0  0
    3.2104    1.2872    0.1643 C   0  0  2  0  0  0  0  0  0  0  0  0
    2.6609    0.3480    0.0266 H   0  0  0  0  0  0  0  0  0  0  0  0
    2.8111    1.9541    1.4955 C   0  0  0  0  0  0  0  0  0  0  0  0
    1.3267    2.2162    1.5519 C   0  0  0  0  0  0  0  0  0  0  0  0
    0.4259    1.1442    1.5412 C   0  0  0  0  0  0  0  0  0  0  0  0
   -0.9306    1.3750    1.3319 C   0  0  0  0  0  0  0  0  0  0  0  0
   -1.4067    2.6895    1.2591 C   0  0  0  0  0  0  0  0  0  0  0  0
   -0.5279    3.7672    1.4244 C   0  0  0  0  0  0  0  0  0  0  0  0
    0.8417    3.5291    1.5110 C   0  0  0  0  0  0  0  0  0  0  0  0
   -2.7691    2.9295    0.9792 N   0  0  0  0  0  0  0  0  0  0  0  0
   -3.6707    1.9358    0.7732 N   0  0  0  0  0  0  0  0  0  0  0  0
   -4.8161    2.5433    0.5011 N   0  0  0  0  0  0  0  0  0  0  0  0
   -4.5564    3.8755    0.5501 C   0  0  0  0  0  0  0  0  0  0  0  0
   -3.2913    4.1779    0.8458 N   0  0  0  0  0  0  0  0  0  0  0  0
    4.6609    0.9907    0.1357 N   0  0  0  0  0  0  0  0  0  0  0  0
    3.4460    3.8019   -1.7786 H   0  0  0  0  0  0  0  0  0  0  0  0
    3.3597    2.8956    1.6318 H   0  0  0  0  0  0  0  0  0  0  0  0
    3.0881    1.3164    2.3442 H   0  0  0  0  0  0  0  0  0  0  0  0
    0.7815    0.1202    1.6367 H   0  0  0  0  0  0  0  0  0  0  0  0
   -1.5933    0.5215    1.2029 H   0  0  0  0  0  0  0  0  0  0  0  0
   -0.8886    4.7935    1.4476 H   0  0  0  0  0  0  0  0  0  0  0  0
    1.5285    4.3739    1.5075 H   0  0  0  0  0  0  0  0  0  0  0  0
   -5.2994    4.6384    0.3698 H   0  0  0  0  0  0  0  0  0  0  0  0
    4.9086    0.4260    0.9440 H   0  0  0  0  0  0  0  0  0  0  0  0
    5.1622    1.8762    0.2303 H   0  0  0  0  0  0  0  0  0  0  0  0
  1  2  1  0  0  0  0
  1 19  1  0  0  0  0
  2  3  2  0  0  0  0
  4  6  1  0  0  0  0
  4 18  1  0  0  0  0
  4  5  1  6  0  0  0
  4  2  1  0  0  0  0
  6  7  1  0  0  0  0
  6 20  1  0  0  0  0
  6 21  1  0  0  0  0
  7  8  2  0  0  0  0
  7 12  1  0  0  0  0
  8  9  1  0  0  0  0
  8 22  1  0  0  0  0
  9 10  2  0  0  0  0
  9 23  1  0  0  0  0
 10 11  1  0  0  0  0
 10 13  1  0  0  0  0
 11 12  2  0  0  0  0
 11 24  1  0  0  0  0
 12 25  1  0  0  0  0
 13 14  1  0  0  0  0
 13 17  1  0  0  0  0
 14 15  2  0  0  0  0
 15 16  1  0  0  0  0
 16 17  2  0  0  0  0
 16 26  1  0  0  0  0
 18 27  1  0  0  0  0
 18 28  1  0  0  0  0
M  END
$$$$
