TEM
 OpenBabel04121316193D

 22 21  0  0  1  0  0  0  0  0999 V2000
    0.8728   -0.0474    0.1133 O   0  0  0  0  0  0  0  0  0  0  0  0
    2.0997   -0.0338    0.1107 C   0  0  0  0  0  0  0  0  0  0  0  0
    2.8584   -0.6099   -1.0033 C   0  0  0  0  0  0  0  0  0  0  0  0
    4.1945   -0.5901   -0.9943 C   0  0  0  0  0  0  0  0  0  0  0  0
    4.9455   -1.1599   -1.9830 N   0  0  0  0  0  0  0  0  0  0  0  0
    6.3874   -1.1524   -2.0947 C   0  0  0  0  0  0  0  0  0  0  0  0
    6.8373   -1.7800   -3.4296 C   0  0  1  0  0  0  0  0  0  0  0  0
    6.4749   -2.8141   -3.4908 H   0  0  0  0  0  0  0  0  0  0  0  0
    6.3720   -0.9979   -4.6632 C   0  0  0  0  0  0  0  0  0  0  0  0
    4.8795   -0.9814   -4.8830 C   0  0  0  0  0  0  0  0  0  0  0  0
    4.3212   -0.2137   -5.6624 O   0  0  0  0  0  0  0  0  0  0  0  0
    8.2696   -1.8344   -3.4695 O   0  0  0  0  0  0  0  0  0  0  0  0
    2.6899    0.3868    0.9386 H   0  0  0  0  0  0  0  0  0  0  0  0
    2.2861   -1.0345   -1.8196 H   0  0  0  0  0  0  0  0  0  0  0  0
    4.7699   -0.1265   -0.1948 H   0  0  0  0  0  0  0  0  0  0  0  0
    4.4455   -1.8939   -2.4750 H   0  0  0  0  0  0  0  0  0  0  0  0
    6.8206   -1.7193   -1.2616 H   0  0  0  0  0  0  0  0  0  0  0  0
    6.7810   -0.1317   -2.0162 H   0  0  0  0  0  0  0  0  0  0  0  0
    6.8087   -1.4623   -5.5549 H   0  0  0  0  0  0  0  0  0  0  0  0
    6.7354    0.0340   -4.6190 H   0  0  0  0  0  0  0  0  0  0  0  0
    4.2902   -1.7750   -4.4010 H   0  0  0  0  0  0  0  0  0  0  0  0
    8.5836   -2.3247   -2.6892 H   0  0  0  0  0  0  0  0  0  0  0  0
  1  2  2  0  0  0  0
  2  3  1  0  0  0  0
  2 13  1  0  0  0  0
  3  4  2  0  0  0  0
  3 14  1  0  0  0  0
  4  5  1  0  0  0  0
  4 15  1  0  0  0  0
  5  6  1  0  0  0  0
  5 16  1  0  0  0  0
  6  7  1  0  0  0  0
  6 17  1  0  0  0  0
  6 18  1  0  0  0  0
  7  8  1  6  0  0  0
  7  9  1  0  0  0  0
  7 12  1  0  0  0  0
  9 10  1  0  0  0  0
  9 19  1  0  0  0  0
  9 20  1  0  0  0  0
 10 11  2  0  0  0  0
 10 21  1  0  0  0  0
 12 22  1  0  0  0  0
M  END
$$$$
