TF4
 OpenBabel04121316193D

  8  7  0  0  0  0  0  0  0  0999 V2000
    1.0697   -0.1170   -0.0213 Cl  0  0  0  0  0  0  0  0  0  0  0  0
    2.8439   -0.0495   -0.0792 C   0  0  0  0  0  0  0  0  0  0  0  0
    3.3755   -1.3089   -0.7551 C   0  0  0  0  0  0  0  0  0  0  0  0
    4.1139   -1.3356   -1.7333 O   0  0  0  0  0  0  0  0  0  0  0  0
    3.0141   -2.4727   -0.1443 O   0  0  0  0  0  0  0  0  0  0  0  0
    3.3819    1.4165   -0.9195 Cl  0  0  0  0  0  0  0  0  0  0  0  0
    3.2236   -0.0031    0.9453 H   0  0  0  0  0  0  0  0  0  0  0  0
    2.3950   -2.3881    0.6077 H   0  0  0  0  0  0  0  0  0  0  0  0
  1  2  1  0  0  0  0
  2  3  1  0  0  0  0
  2  6  1  0  0  0  0
  2  7  1  0  0  0  0
  3  4  2  0  0  0  0
  3  5  1  0  0  0  0
  5  8  1  0  0  0  0
M  END
$$$$
