TFA
 OpenBabel04121316193D

  8  7  0  0  0  0  0  0  0  0999 V2000
    0.9054   -0.1913   -0.2047 O   0  0  0  0  0  0  0  0  0  0  0  0
    2.2467   -0.0236   -0.0417 C   0  0  0  0  0  0  0  0  0  0  0  0
    2.6987    1.0679    0.2993 O   0  0  0  0  0  0  0  0  0  0  0  0
    3.0274   -1.2485   -0.5109 C   0  0  0  0  0  0  0  0  0  0  0  0
    2.7236   -2.3726    0.1944 F   0  0  0  0  0  0  0  0  0  0  0  0
    2.7359   -1.5258   -1.8161 F   0  0  0  0  0  0  0  0  0  0  0  0
    4.3775   -1.0964   -0.4478 F   0  0  0  0  0  0  0  0  0  0  0  0
    0.5310    0.6885   -0.4120 H   0  0  0  0  0  0  0  0  0  0  0  0
  1  2  1  0  0  0  0
  1  8  1  0  0  0  0
  2  3  2  0  0  0  0
  2  4  1  0  0  0  0
  4  5  1  0  0  0  0
  4  6  1  0  0  0  0
  4  7  1  0  0  0  0
M  END
$$$$
