TFB
 OpenBabel04121316193D

 16 16  0  0  1  0  0  0  0  0999 V2000
    5.1200   -0.4763    1.3705 O   0  0  0  0  0  0  0  0  0  0  0  0
    4.5832    0.6482    0.8390 C   0  0  0  0  0  0  0  0  0  0  0  0
    5.2436    1.4078    0.1383 O   0  0  0  0  0  0  0  0  0  0  0  0
    3.0899    0.8341    1.1532 C   0  0  2  0  0  0  0  0  0  0  0  0
    2.5342    0.1918    0.4612 H   0  0  0  0  0  0  0  0  0  0  0  0
    2.6624    2.2858    1.0192 C   0  0  0  0  0  0  0  0  0  0  0  0
    2.9362    2.8286    2.3988 C   0  0  0  0  0  0  0  0  0  0  0  0
    2.6015    1.6486    3.2867 C   0  0  0  0  0  0  0  0  0  0  0  0
    2.7751    0.4499    2.5019 O   0  0  0  0  0  0  0  0  0  0  0  0
    4.4656   -0.9891    1.8880 H   0  0  0  0  0  0  0  0  0  0  0  0
    1.5867    2.3406    0.8135 H   0  0  0  0  0  0  0  0  0  0  0  0
    3.1832    2.8396    0.2334 H   0  0  0  0  0  0  0  0  0  0  0  0
    2.3540    3.7236    2.6360 H   0  0  0  0  0  0  0  0  0  0  0  0
    3.9975    3.0828    2.5027 H   0  0  0  0  0  0  0  0  0  0  0  0
    1.5625    1.7000    3.6330 H   0  0  0  0  0  0  0  0  0  0  0  0
    3.2525    1.5956    4.1638 H   0  0  0  0  0  0  0  0  0  0  0  0
  1  2  1  0  0  0  0
  1 10  1  0  0  0  0
  2  3  2  0  0  0  0
  4  6  1  0  0  0  0
  4  9  1  0  0  0  0
  4  5  1  6  0  0  0
  4  2  1  0  0  0  0
  6  7  1  0  0  0  0
  6 11  1  0  0  0  0
  6 12  1  0  0  0  0
  7  8  1  0  0  0  0
  7 13  1  0  0  0  0
  7 14  1  0  0  0  0
  8  9  1  0  0  0  0
  8 15  1  0  0  0  0
  8 16  1  0  0  0  0
M  END
$$$$
