TFC
 OpenBabel04121316193D

 35 34  0  0  0  0  0  0  0  0999 V2000
    1.0734   -0.0080   -0.0301 C   0  0  0  0  0  0  0  0  0  0  0  0
    2.5901    0.0006   -0.0322 C   0  0  0  0  0  0  0  0  0  0  0  0
    3.1161    1.3874   -0.3799 C   0  0  0  0  0  0  0  0  0  0  0  0
    4.6380    1.3985   -0.3826 C   0  0  0  0  0  0  0  0  0  0  0  0
    5.1618    2.7849   -0.7302 C   0  0  0  0  0  0  0  0  0  0  0  0
    6.6867    2.7867   -0.7306 C   0  0  0  0  0  0  0  0  0  0  0  0
    7.2192    4.1690   -1.0771 C   0  0  0  0  0  0  0  0  0  0  0  0
    8.7500    4.1934   -1.0832 C   0  0  0  0  0  0  0  0  0  0  0  0
    9.2069    5.8923   -1.5091 S   0  0  0  0  0  0  0  0  0  0  0  0
   11.0387    5.8569   -1.5002 C   0  0  0  0  0  0  0  0  0  0  0  0
   11.5406    7.2624   -1.8525 C   0  0  0  0  0  0  0  0  0  0  0  0
   10.7893    8.2113   -2.0903 O   0  0  0  0  0  0  0  0  0  0  0  0
   13.0430    7.4268   -1.8937 C   0  0  0  0  0  0  0  0  0  0  0  0
   13.6253    7.1372   -0.6984 F   0  0  0  0  0  0  0  0  0  0  0  0
   13.6253    6.6076   -2.8111 F   0  0  0  0  0  0  0  0  0  0  0  0
   13.4273    8.6936   -2.2113 F   0  0  0  0  0  0  0  0  0  0  0  0
    0.6999   -1.0046    0.2197 H   0  0  0  0  0  0  0  0  0  0  0  0
    0.6834    0.2702   -1.0144 H   0  0  0  0  0  0  0  0  0  0  0  0
    0.6834    0.7016    0.7066 H   0  0  0  0  0  0  0  0  0  0  0  0
    2.9604   -0.7322   -0.7588 H   0  0  0  0  0  0  0  0  0  0  0  0
    2.9604   -0.3029    0.9540 H   0  0  0  0  0  0  0  0  0  0  0  0
    2.7426    2.1198    0.3465 H   0  0  0  0  0  0  0  0  0  0  0  0
    2.7426    1.6906   -1.3658 H   0  0  0  0  0  0  0  0  0  0  0  0
    5.0135    0.6685   -1.1100 H   0  0  0  0  0  0  0  0  0  0  0  0
    5.0135    1.0979    0.6031 H   0  0  0  0  0  0  0  0  0  0  0  0
    4.7859    3.5165   -0.0039 H   0  0  0  0  0  0  0  0  0  0  0  0
    4.7859    3.0875   -1.7157 H   0  0  0  0  0  0  0  0  0  0  0  0
    7.0558    2.0552   -1.4588 H   0  0  0  0  0  0  0  0  0  0  0  0
    7.0558    2.4851    0.2565 H   0  0  0  0  0  0  0  0  0  0  0  0
    6.8284    4.8921   -0.3476 H   0  0  0  0  0  0  0  0  0  0  0  0
    6.8284    4.4625   -2.0614 H   0  0  0  0  0  0  0  0  0  0  0  0
    9.1384    3.4917   -1.8279 H   0  0  0  0  0  0  0  0  0  0  0  0
    9.1384    3.9259   -0.0956 H   0  0  0  0  0  0  0  0  0  0  0  0
   11.4051    5.1436   -2.2455 H   0  0  0  0  0  0  0  0  0  0  0  0
   11.4051    5.5795   -0.5065 H   0  0  0  0  0  0  0  0  0  0  0  0
  1  2  1  0  0  0  0
  1 17  1  0  0  0  0
  1 18  1  0  0  0  0
  1 19  1  0  0  0  0
  2  3  1  0  0  0  0
  2 20  1  0  0  0  0
  2 21  1  0  0  0  0
  3  4  1  0  0  0  0
  3 22  1  0  0  0  0
  3 23  1  0  0  0  0
  4  5  1  0  0  0  0
  4 24  1  0  0  0  0
  4 25  1  0  0  0  0
  5  6  1  0  0  0  0
  5 26  1  0  0  0  0
  5 27  1  0  0  0  0
  6  7  1  0  0  0  0
  6 28  1  0  0  0  0
  6 29  1  0  0  0  0
  7  8  1  0  0  0  0
  7 30  1  0  0  0  0
  7 31  1  0  0  0  0
  8  9  1  0  0  0  0
  8 32  1  0  0  0  0
  8 33  1  0  0  0  0
  9 10  1  0  0  0  0
 10 11  1  0  0  0  0
 10 34  1  0  0  0  0
 10 35  1  0  0  0  0
 11 12  2  0  0  0  0
 11 13  1  0  0  0  0
 13 14  1  0  0  0  0
 13 15  1  0  0  0  0
 13 16  1  0  0  0  0
M  END
$$$$
