TFI
 OpenBabel04121316193D

 55 56  0  0  1  0  0  0  0  0999 V2000
    5.3847    1.4036   -1.0756 O   0  0  0  0  0  0  0  0  0  0  0  0
    5.3399    0.2969   -1.6327 C   0  0  0  0  0  0  0  0  0  0  0  0
    5.1132    0.2941   -3.1127 C   0  0  0  0  0  0  0  0  0  0  0  0
    4.5397    1.6264   -3.4911 N   0  0  0  0  0  0  0  0  0  0  0  0
    3.3435    2.2467   -3.0351 C   0  0  0  0  0  0  0  0  0  0  0  0
    3.0422    3.4666   -3.3974 N   0  0  0  0  0  0  0  0  0  0  0  0
    3.8771    4.1485   -4.2590 C   0  0  0  0  0  0  0  0  0  0  0  0
    5.0145    3.6657   -4.7747 C   0  0  0  0  0  0  0  0  0  0  0  0
    5.4085    2.3105   -4.3228 C   0  0  0  0  0  0  0  0  0  0  0  0
    6.4620    1.7878   -4.6917 O   0  0  0  0  0  0  0  0  0  0  0  0
    5.7500    4.4474   -5.7327 N   0  0  0  0  0  0  0  0  0  0  0  0
    7.1525    3.7553   -6.3690 S   0  0  0  0  0  0  0  0  0  0  0  0
    8.1515    3.7106   -5.3195 O   0  0  0  0  0  0  0  0  0  0  0  0
    6.7730    2.6119   -7.1728 O   0  0  0  0  0  0  0  0  0  0  0  0
    7.7617    4.9407   -7.5236 C   0  0  0  0  0  0  0  0  0  0  0  0
    2.3307    1.5256   -2.1191 C   0  0  0  0  0  0  0  0  0  0  0  0
    2.6272    0.3369   -1.4817 C   0  0  0  0  0  0  0  0  0  0  0  0
    1.7644   -0.4911   -0.7754 C   0  0  0  0  0  0  0  0  0  0  0  0
    0.6380    0.0804   -0.2669 C   0  0  0  0  0  0  0  0  0  0  0  0
    0.3236    1.3710   -0.7156 C   0  0  0  0  0  0  0  0  0  0  0  0
    1.1195    2.0552   -1.6933 C   0  0  0  0  0  0  0  0  0  0  0  0
    0.0522   -0.5508    0.8305 N   0  0  0  0  0  0  0  0  0  0  0  0
    5.3314   -0.8682   -0.9165 N   0  0  0  0  0  0  0  0  0  0  0  0
    4.8373   -1.0498    0.5024 C   0  0  2  0  0  0  0  0  0  0  0  0
    3.7525   -1.0278    0.5383 H   0  0  0  0  0  0  0  0  0  0  0  0
    5.2189   -0.0283    1.6372 C   0  0  0  0  0  0  0  0  0  0  0  0
    5.6704   -0.4552    2.7126 O   0  0  0  0  0  0  0  0  0  0  0  0
    4.8136    1.4460    1.5328 C   0  0  0  0  0  0  0  0  0  0  0  0
    5.6368    2.2252    0.7964 F   0  0  0  0  0  0  0  0  0  0  0  0
    3.5331    1.6145    1.1027 F   0  0  0  0  0  0  0  0  0  0  0  0
    4.8569    2.0622    2.7520 F   0  0  0  0  0  0  0  0  0  0  0  0
    5.1250   -2.5260    0.9408 C   0  0  0  0  0  0  0  0  0  0  0  0
    4.4771   -3.6154    0.0553 C   0  0  0  0  0  0  0  0  0  0  0  0
    6.6374   -2.6915    0.9631 C   0  0  0  0  0  0  0  0  0  0  0  0
    4.5111   -0.5109   -3.5309 H   0  0  0  0  0  0  0  0  0  0  0  0
    6.1471    0.1684   -3.4609 H   0  0  0  0  0  0  0  0  0  0  0  0
    3.5169    5.1392   -4.5283 H   0  0  0  0  0  0  0  0  0  0  0  0
    5.4253    5.3549   -6.0509 H   0  0  0  0  0  0  0  0  0  0  0  0
    7.9984    5.8662   -7.0023 H   0  0  0  0  0  0  0  0  0  0  0  0
    7.0337    5.0768   -8.3214 H   0  0  0  0  0  0  0  0  0  0  0  0
    8.6812    4.5116   -7.9399 H   0  0  0  0  0  0  0  0  0  0  0  0
    3.4468    0.5188   -0.7972 H   0  0  0  0  0  0  0  0  0  0  0  0
    2.1233   -1.4280   -0.3626 H   0  0  0  0  0  0  0  0  0  0  0  0
   -0.5374    1.8800   -0.2954 H   0  0  0  0  0  0  0  0  0  0  0  0
    0.8068    3.0288   -2.0567 H   0  0  0  0  0  0  0  0  0  0  0  0
    0.3575   -1.5125    0.9720 H   0  0  0  0  0  0  0  0  0  0  0  0
   -0.9549   -0.4668    0.8647 H   0  0  0  0  0  0  0  0  0  0  0  0
    5.4223   -1.7068   -1.4799 H   0  0  0  0  0  0  0  0  0  0  0  0
    4.7243   -2.6898    1.9526 H   0  0  0  0  0  0  0  0  0  0  0  0
    4.7828   -3.5469   -0.9924 H   0  0  0  0  0  0  0  0  0  0  0  0
    3.3818   -3.5770    0.0850 H   0  0  0  0  0  0  0  0  0  0  0  0
    4.7705   -4.6152    0.4013 H   0  0  0  0  0  0  0  0  0  0  0  0
    7.0490   -2.5430   -0.0388 H   0  0  0  0  0  0  0  0  0  0  0  0
    6.9293   -3.6743    1.3291 H   0  0  0  0  0  0  0  0  0  0  0  0
    7.0966   -1.9412    1.6106 H   0  0  0  0  0  0  0  0  0  0  0  0
  1  2  2  0  0  0  0
  2  3  1  0  0  0  0
  2 23  1  0  0  0  0
  3  4  1  0  0  0  0
  3 35  1  0  0  0  0
  3 36  1  0  0  0  0
  4  5  1  0  0  0  0
  4  9  1  0  0  0  0
  5  6  2  0  0  0  0
  5 16  1  0  0  0  0
  6  7  1  0  0  0  0
  7  8  2  0  0  0  0
  7 37  1  0  0  0  0
  8  9  1  0  0  0  0
  8 11  1  0  0  0  0
  9 10  2  0  0  0  0
 11 12  1  0  0  0  0
 11 38  1  0  0  0  0
 12 13  2  0  0  0  0
 12 14  2  0  0  0  0
 12 15  1  0  0  0  0
 15 39  1  0  0  0  0
 15 40  1  0  0  0  0
 15 41  1  0  0  0  0
 16 17  2  0  0  0  0
 16 21  1  0  0  0  0
 17 18  1  0  0  0  0
 17 42  1  0  0  0  0
 18 19  2  0  0  0  0
 18 43  1  0  0  0  0
 19 20  1  0  0  0  0
 19 22  1  0  0  0  0
 20 21  2  0  0  0  0
 20 44  1  0  0  0  0
 21 45  1  0  0  0  0
 22 46  1  0  0  0  0
 22 47  1  0  0  0  0
 23 48  1  0  0  0  0
 24 26  1  0  0  0  0
 24 32  1  0  0  0  0
 24 25  1  6  0  0  0
 24 23  1  0  0  0  0
 26 27  2  0  0  0  0
 26 28  1  0  0  0  0
 28 29  1  0  0  0  0
 28 30  1  0  0  0  0
 28 31  1  0  0  0  0
 32 33  1  0  0  0  0
 32 34  1  0  0  0  0
 32 49  1  0  0  0  0
 33 50  1  0  0  0  0
 33 51  1  0  0  0  0
 33 52  1  0  0  0  0
 34 53  1  0  0  0  0
 34 54  1  0  0  0  0
 34 55  1  0  0  0  0
M  END
$$$$
