TFX
 OpenBabel04121316193D

 39 41  0  0  0  0  0  0  0  0999 V2000
    0.7907    0.0210    0.0602 C   0  0  0  0  0  0  0  0  0  0  0  0
    2.2845    0.0509    0.0598 C   0  0  0  0  0  0  0  0  0  0  0  0
    3.0155    1.2433    0.0615 C   0  0  0  0  0  0  0  0  0  0  0  0
    4.4156    1.2386    0.0689 C   0  0  0  0  0  0  0  0  0  0  0  0
    5.0697   -0.0061    0.0808 C   0  0  0  0  0  0  0  0  0  0  0  0
    4.3136   -1.1643    0.0844 C   0  0  0  0  0  0  0  0  0  0  0  0
    2.9316   -1.1783    0.0648 C   0  0  0  0  0  0  0  0  0  0  0  0
    5.3069   -2.5173    0.1205 S   0  0  0  0  0  0  0  0  0  0  0  0
    6.7392   -1.5608    0.1635 C   0  0  0  0  0  0  0  0  0  0  0  0
    6.4343   -0.2617    0.0863 N   0  3  0  0  0  0  0  0  0  0  0  0
    7.3601    0.8639    0.0159 C   0  0  0  0  0  0  0  0  0  0  0  0
    8.0104   -2.2684    0.1853 C   0  0  0  0  0  0  0  0  0  0  0  0
    9.2302   -1.6248    0.2302 C   0  0  0  0  0  0  0  0  0  0  0  0
   10.3945   -2.2854   -0.0924 C   0  0  0  0  0  0  0  0  0  0  0  0
   10.4579   -3.6720   -0.1984 C   0  0  0  0  0  0  0  0  0  0  0  0
    9.2587   -4.3453    0.0362 C   0  0  0  0  0  0  0  0  0  0  0  0
    8.0566   -3.6690    0.1390 C   0  0  0  0  0  0  0  0  0  0  0  0
   11.6368   -4.3126   -0.4690 N   0  0  0  0  0  0  0  0  0  0  0  0
   12.8604   -3.5961   -0.8240 C   0  0  0  0  0  0  0  0  0  0  0  0
   11.7259   -5.7654   -0.5421 C   0  0  0  0  0  0  0  0  0  0  0  0
    0.3747    1.0287    0.0597 H   0  0  0  0  0  0  0  0  0  0  0  0
    0.4425   -0.5085    0.9535 H   0  0  0  0  0  0  0  0  0  0  0  0
    0.4412   -0.5115   -0.8306 H   0  0  0  0  0  0  0  0  0  0  0  0
    2.4919    2.1982    0.0583 H   0  0  0  0  0  0  0  0  0  0  0  0
    4.9504    2.1837    0.0739 H   0  0  0  0  0  0  0  0  0  0  0  0
    2.3831   -2.1183    0.0639 H   0  0  0  0  0  0  0  0  0  0  0  0
    8.3829    0.6202   -0.2191 H   0  0  0  0  0  0  0  0  0  0  0  0
    7.3383    1.4090    0.9654 H   0  0  0  0  0  0  0  0  0  0  0  0
    7.0809    1.5240   -0.8099 H   0  0  0  0  0  0  0  0  0  0  0  0
    9.3859   -0.6037    0.5280 H   0  0  0  0  0  0  0  0  0  0  0  0
   11.2601   -1.6471   -0.2121 H   0  0  0  0  0  0  0  0  0  0  0  0
    9.1902   -5.4239    0.1239 H   0  0  0  0  0  0  0  0  0  0  0  0
    7.1709   -4.3017    0.1865 H   0  0  0  0  0  0  0  0  0  0  0  0
   12.7940   -2.5064   -0.8263 H   0  0  0  0  0  0  0  0  0  0  0  0
   13.1708   -3.8687   -1.8359 H   0  0  0  0  0  0  0  0  0  0  0  0
   13.6487   -3.8466   -0.1107 H   0  0  0  0  0  0  0  0  0  0  0  0
   10.8026   -6.3039   -0.3254 H   0  0  0  0  0  0  0  0  0  0  0  0
   12.4599   -6.1164    0.1865 H   0  0  0  0  0  0  0  0  0  0  0  0
   12.0240   -6.0673   -1.5490 H   0  0  0  0  0  0  0  0  0  0  0  0
  1  2  1  0  0  0  0
  1 21  1  0  0  0  0
  1 22  1  0  0  0  0
  1 23  1  0  0  0  0
  2  3  2  0  0  0  0
  2  7  1  0  0  0  0
  3  4  1  0  0  0  0
  3 24  1  0  0  0  0
  4  5  2  0  0  0  0
  4 25  1  0  0  0  0
  5  6  1  0  0  0  0
  5 10  1  0  0  0  0
  6  7  2  0  0  0  0
  6  8  1  0  0  0  0
  7 26  1  0  0  0  0
  8  9  1  0  0  0  0
  9 10  2  0  0  0  0
  9 12  1  0  0  0  0
 10 11  1  0  0  0  0
 11 27  1  0  0  0  0
 11 28  1  0  0  0  0
 11 29  1  0  0  0  0
 12 13  2  0  0  0  0
 12 17  1  0  0  0  0
 13 14  1  0  0  0  0
 13 30  1  0  0  0  0
 14 15  2  0  0  0  0
 14 31  1  0  0  0  0
 15 16  1  0  0  0  0
 15 18  1  0  0  0  0
 16 17  2  0  0  0  0
 16 32  1  0  0  0  0
 17 33  1  0  0  0  0
 18 19  1  0  0  0  0
 18 20  1  0  0  0  0
 19 34  1  0  0  0  0
 19 35  1  0  0  0  0
 19 36  1  0  0  0  0
 20 37  1  0  0  0  0
 20 38  1  0  0  0  0
 20 39  1  0  0  0  0
M  CHG  1  10   1
M  END
$$$$
