TGG
 OpenBabel04121316193D

 49 48  0  0  1  0  0  0  0  0999 V2000
   -0.0136   -4.1366    1.8290 O   0  0  0  0  0  0  0  0  0  0  0  0
    0.3490   -3.0777    2.3438 C   0  0  0  0  0  0  0  0  0  0  0  0
    1.2353   -2.1876    1.7976 N   0  0  0  0  0  0  0  0  0  0  0  0
    2.0968   -2.5396    0.6662 C   0  0  2  0  0  0  0  0  0  0  0  0
    2.6250   -1.6046    0.4256 H   0  0  0  0  0  0  0  0  0  0  0  0
    1.2799   -2.9092   -0.5809 C   0  0  0  0  0  0  0  0  0  0  0  0
    1.5419   -3.8648   -1.3088 O   0  0  0  0  0  0  0  0  0  0  0  0
    0.2995   -2.0186   -0.9387 N   0  0  0  0  0  0  0  0  0  0  0  0
   -0.5745   -2.3737   -2.0341 C   0  0  0  0  0  0  0  0  0  0  0  0
   -1.5360   -1.2404   -2.3191 C   0  0  0  0  0  0  0  0  0  0  0  0
   -1.5492   -0.1903   -1.6883 O   0  0  0  0  0  0  0  0  0  0  0  0
   -2.3872   -1.4899   -3.3390 O   0  0  0  0  0  0  0  0  0  0  0  0
    3.1714   -3.6017    1.0100 C   0  0  0  0  0  0  0  0  0  0  0  0
    2.4259   -5.2592    1.2344 S   0  0  0  0  0  0  0  0  0  0  0  0
    3.6165   -6.3870    1.9555 C   0  0  1  0  0  0  0  0  0  0  0  0
    4.3471   -6.6384    1.1828 H   0  0  0  0  0  0  0  0  0  0  0  0
    4.3029   -5.8666    3.2097 C   0  0  0  0  0  0  0  0  0  0  0  0
    4.1731   -6.3562    4.3234 O   0  0  0  0  0  0  0  0  0  0  0  0
    5.1143   -4.8031    3.0097 O   0  0  0  0  0  0  0  0  0  0  0  0
    2.7642   -7.6277    2.3246 C   0  0  0  0  0  0  0  0  0  0  0  0
    3.7101   -8.7574    2.6238 C   0  0  0  0  0  0  0  0  0  0  0  0
    4.9211   -8.6827    2.4737 O   0  0  0  0  0  0  0  0  0  0  0  0
    3.1046   -9.8973    3.0147 O   0  0  0  0  0  0  0  0  0  0  0  0
   -0.1950   -2.7743    3.6893 C   0  0  0  0  0  0  0  0  0  0  0  0
   -0.1620   -1.3247    4.0938 C   0  0  0  0  0  0  0  0  0  0  0  0
   -1.0153   -1.0895    5.3324 C   0  0  1  0  0  0  0  0  0  0  0  0
   -2.0491   -1.4119    5.1671 H   0  0  0  0  0  0  0  0  0  0  0  0
   -0.4564   -1.8119    6.5878 C   0  0  0  0  0  0  0  0  0  0  0  0
    0.0690   -1.2337    7.5303 O   0  0  0  0  0  0  0  0  0  0  0  0
   -0.5523   -3.1626    6.5828 O   0  0  0  0  0  0  0  0  0  0  0  0
   -1.0219    0.3699    5.5546 N   0  0  0  0  0  0  0  0  0  0  0  0
    1.3244   -1.2542    2.1783 H   0  0  0  0  0  0  0  0  0  0  0  0
    0.1359   -1.1492   -0.4391 H   0  0  0  0  0  0  0  0  0  0  0  0
   -1.1259   -3.2748   -1.7450 H   0  0  0  0  0  0  0  0  0  0  0  0
    0.0420   -2.5760   -2.9155 H   0  0  0  0  0  0  0  0  0  0  0  0
   -2.2789   -2.3662   -3.7588 H   0  0  0  0  0  0  0  0  0  0  0  0
    3.6798   -3.2508    1.9117 H   0  0  0  0  0  0  0  0  0  0  0  0
    3.8930   -3.6628    0.1890 H   0  0  0  0  0  0  0  0  0  0  0  0
    5.2017   -4.5584    2.0723 H   0  0  0  0  0  0  0  0  0  0  0  0
    2.1187   -7.9479    1.4934 H   0  0  0  0  0  0  0  0  0  0  0  0
    2.1217   -7.4358    3.1972 H   0  0  0  0  0  0  0  0  0  0  0  0
    2.1326   -9.8522    3.0797 H   0  0  0  0  0  0  0  0  0  0  0  0
    0.3739   -3.3976    4.3860 H   0  0  0  0  0  0  0  0  0  0  0  0
   -1.2373   -3.1186    3.6634 H   0  0  0  0  0  0  0  0  0  0  0  0
   -0.5391   -0.7190    3.2571 H   0  0  0  0  0  0  0  0  0  0  0  0
    0.8770   -1.0180    4.2736 H   0  0  0  0  0  0  0  0  0  0  0  0
   -0.9992   -3.5957    5.8336 H   0  0  0  0  0  0  0  0  0  0  0  0
   -1.2784    0.8740    4.7088 H   0  0  0  0  0  0  0  0  0  0  0  0
   -0.0719    0.6622    5.8011 H   0  0  0  0  0  0  0  0  0  0  0  0
  1  2  2  0  0  0  0
  2  3  1  0  0  0  0
  2 24  1  0  0  0  0
  3 32  1  0  0  0  0
  4  6  1  0  0  0  0
  4 13  1  0  0  0  0
  4  5  1  6  0  0  0
  4  3  1  0  0  0  0
  6  7  2  0  0  0  0
  6  8  1  0  0  0  0
  8  9  1  0  0  0  0
  8 33  1  0  0  0  0
  9 10  1  0  0  0  0
  9 34  1  0  0  0  0
  9 35  1  0  0  0  0
 10 11  2  0  0  0  0
 10 12  1  0  0  0  0
 12 36  1  0  0  0  0
 13 14  1  0  0  0  0
 13 37  1  0  0  0  0
 13 38  1  0  0  0  0
 14 15  1  0  0  0  0
 15 16  1  6  0  0  0
 15 17  1  0  0  0  0
 15 20  1  0  0  0  0
 17 18  2  0  0  0  0
 17 19  1  0  0  0  0
 19 39  1  0  0  0  0
 20 21  1  0  0  0  0
 20 40  1  0  0  0  0
 20 41  1  0  0  0  0
 21 22  2  0  0  0  0
 21 23  1  0  0  0  0
 23 42  1  0  0  0  0
 24 25  1  0  0  0  0
 24 43  1  0  0  0  0
 24 44  1  0  0  0  0
 25 26  1  0  0  0  0
 25 45  1  0  0  0  0
 25 46  1  0  0  0  0
 26 27  1  6  0  0  0
 26 28  1  0  0  0  0
 26 31  1  0  0  0  0
 28 29  2  0  0  0  0
 28 30  1  0  0  0  0
 30 47  1  0  0  0  0
 31 48  1  0  0  0  0
 31 49  1  0  0  0  0
M  END
$$$$
