TGN
 OpenBabel04121316193D

 45 47  0  0  1  0  0  0  0  0999 V2000
    5.2366   -2.9800    2.5618 C   0  0  0  0  0  0  0  0  0  0  0  0
    4.4539   -1.3554    3.1739 O   0  0  0  0  0  0  0  0  0  0  0  0
    5.5867    0.1154    3.5548 C   0  0  0  0  0  0  0  0  0  0  0  0
    6.4698   -0.0799    4.4128 O   0  0  0  0  0  0  0  0  0  0  0  0
    6.4020    0.7919    1.7400 C   0  0  1  0  0  0  0  0  0  0  0  0
    5.8562    1.6290    1.4148 H   0  0  0  0  0  0  0  0  0  0  0  0
    7.8609    0.8886    1.7739 C   0  0  2  0  0  0  0  0  0  0  0  0
    8.2588    1.7939    2.2051 H   0  0  0  0  0  0  0  0  0  0  0  0
    8.8889    0.6659    0.6661 C   0  0  0  0  0  0  0  0  0  0  0  0
    8.4889   -0.0289   -0.6291 C   0  0  1  0  0  0  0  0  0  0  0  0
    9.4053   -0.3580   -1.1372 H   0  0  0  0  0  0  0  0  0  0  0  0
    7.5623   -1.1014   -0.4177 N   0  0  0  0  0  0  0  0  0  0  0  0
    6.3360   -0.3296    0.1245 C   0  0  2  0  0  0  0  0  0  0  0  0
    5.4776   -1.0661    0.0934 H   0  0  0  0  0  0  0  0  0  0  0  0
    6.1694    0.6407   -0.9870 C   0  0  0  0  0  0  0  0  0  0  0  0
    7.5998    0.8842   -1.4407 C   0  0  0  0  0  0  0  0  0  0  0  0
    8.2355   -2.0321    0.4207 C   0  0  0  0  0  0  0  0  0  0  0  0
    7.7820   -0.1971    2.6654 O   0  0  0  0  0  0  0  0  0  0  0  0
    6.3421   -1.3299    2.1930 P   0  0  2  0  0  0  0  0  0  0  0  0
    5.0968   -0.4338    2.0164 O   0  0  0  0  0  0  0  0  0  0  0  0
    5.5239   -2.5493    4.1456 C   0  0  0  0  0  0  0  0  0  0  0  0
    6.0018   -2.3444    5.3532 C   0  0  0  0  0  0  0  0  0  0  0  0
    5.2659   -3.3560    5.8328 C   0  0  0  0  0  0  0  0  0  0  0  0
    4.1425   -4.2764    5.2292 C   0  0  0  0  0  0  0  0  0  0  0  0
    3.3208   -4.3206    4.1023 C   0  0  0  0  0  0  0  0  0  0  0  0
    3.8809   -3.3991    3.4596 C   0  0  0  0  0  0  0  0  0  0  0  0
    7.7371   -2.3337    2.3908 O   0  0  0  0  0  0  0  0  0  0  0  0
    4.8565   -4.1710    2.1875 H   0  0  0  0  0  0  0  0  0  0  0  0
    4.2930   -2.1627    3.7211 H   0  0  0  0  0  0  0  0  0  0  0  0
    6.1840   -3.7559    3.2601 H   0  0  0  0  0  0  0  0  0  0  0  0
    9.7532    0.1678    1.1421 H   0  0  0  0  0  0  0  0  0  0  0  0
    9.1636    1.6737    0.3679 H   0  0  0  0  0  0  0  0  0  0  0  0
    5.7007    1.5237   -0.5703 H   0  0  0  0  0  0  0  0  0  0  0  0
    5.5208    0.2507   -1.7754 H   0  0  0  0  0  0  0  0  0  0  0  0
    7.8650    1.9221   -1.2632 H   0  0  0  0  0  0  0  0  0  0  0  0
    7.7045    0.6570   -2.4978 H   0  0  0  0  0  0  0  0  0  0  0  0
    9.1407   -2.6316    0.3533 H   0  0  0  0  0  0  0  0  0  0  0  0
    7.4490   -2.7933    0.6045 H   0  0  0  0  0  0  0  0  0  0  0  0
    8.6475   -1.4057    1.2346 H   0  0  0  0  0  0  0  0  0  0  0  0
    6.5455   -1.5245    5.6876 H   0  0  0  0  0  0  0  0  0  0  0  0
    5.5512   -3.5129    6.8395 H   0  0  0  0  0  0  0  0  0  0  0  0
    3.9042   -5.0626    5.9005 H   0  0  0  0  0  0  0  0  0  0  0  0
    2.6643   -4.9142    3.5788 H   0  0  0  0  0  0  0  0  0  0  0  0
    3.5575   -3.1003    2.0540 H   0  0  0  0  0  0  0  0  0  0  0  0
    7.5944   -3.2964    2.3513 H   0  0  0  0  0  0  0  0  0  0  0  0
  1  2  1  0  0  0  0
  1 28  1  0  0  0  0
  1 29  1  0  0  0  0
  1 30  1  0  0  0  0
  2  3  1  0  0  0  0
  3  4  2  0  0  0  0
  5  7  1  0  0  0  0
  5 13  1  0  0  0  0
  5  6  1  6  0  0  0
  5  3  1  0  0  0  0
  7  9  1  0  0  0  0
  7  8  1  1  0  0  0
  7 18  1  0  0  0  0
  9 10  1  0  0  0  0
  9 31  1  0  0  0  0
  9 32  1  0  0  0  0
 10 12  1  0  0  0  0
 10 16  1  0  0  0  0
 10 11  1  6  0  0  0
 12 13  1  0  0  0  0
 12 17  1  0  0  0  0
 13 15  1  0  0  0  0
 13 14  1  1  0  0  0
 15 16  1  0  0  0  0
 15 33  1  0  0  0  0
 15 34  1  0  0  0  0
 16 35  1  0  0  0  0
 16 36  1  0  0  0  0
 17 37  1  0  0  0  0
 17 38  1  0  0  0  0
 17 39  1  0  0  0  0
 19 21  1  1  0  0  0
 19 27  1  0  0  0  0
 19 20  2  0  0  0  0
 19 18  1  0  0  0  0
 21 22  2  0  0  0  0
 21 26  1  0  0  0  0
 22 23  1  0  0  0  0
 22 40  1  0  0  0  0
 23 24  2  0  0  0  0
 23 41  1  0  0  0  0
 24 25  1  0  0  0  0
 24 42  1  0  0  0  0
 25 26  2  0  0  0  0
 25 43  1  0  0  0  0
 26 44  1  0  0  0  0
 27 45  1  0  0  0  0
M  END
$$$$
