THG
 OpenBabel04121316193D

 55 57  0  0  1  0  0  0  0  0999 V2000
   22.6358   -5.3340  -11.2672 O   0  0  0  0  0  0  0  0  0  0  0  0
   22.2802   -4.9462  -10.0297 C   0  0  0  0  0  0  0  0  0  0  0  0
   22.9409   -5.2488   -9.0422 O   0  0  0  0  0  0  0  0  0  0  0  0
   20.9624   -4.2483  -10.0559 C   0  0  0  0  0  0  0  0  0  0  0  0
   20.4431   -3.9012   -8.6667 C   0  0  0  0  0  0  0  0  0  0  0  0
   19.0729   -3.2128   -8.6964 C   0  0  1  0  0  0  0  0  0  0  0  0
   19.1023   -2.3007   -9.3045 H   0  0  0  0  0  0  0  0  0  0  0  0
   17.9605   -4.1589   -9.2432 C   0  0  0  0  0  0  0  0  0  0  0  0
   17.0863   -4.6779   -8.5602 O   0  0  0  0  0  0  0  0  0  0  0  0
   18.0347   -4.4247  -10.5709 O   0  0  0  0  0  0  0  0  0  0  0  0
   18.7292   -2.7789   -7.3446 N   0  0  0  0  0  0  0  0  0  0  0  0
   17.5464   -2.0985   -7.1486 C   0  0  0  0  0  0  0  0  0  0  0  0
   16.7991   -1.7326   -8.0447 O   0  0  0  0  0  0  0  0  0  0  0  0
   17.1852   -1.8773   -5.7493 C   0  0  0  0  0  0  0  0  0  0  0  0
   18.0503   -1.1677   -4.9212 C   0  0  0  0  0  0  0  0  0  0  0  0
   17.7244   -1.0527   -3.5809 C   0  0  0  0  0  0  0  0  0  0  0  0
   16.4986   -1.5505   -3.1010 C   0  0  0  0  0  0  0  0  0  0  0  0
   15.5945   -2.1324   -3.9774 C   0  0  0  0  0  0  0  0  0  0  0  0
   15.9614   -2.3653   -5.2903 C   0  0  0  0  0  0  0  0  0  0  0  0
   16.1889   -1.3214   -1.7829 N   0  0  0  0  0  0  0  0  0  0  0  0
   15.0883   -1.9533   -1.0620 C   0  0  0  0  0  0  0  0  0  0  0  0
   15.2408   -1.7999    0.4874 C   0  0  1  0  0  0  0  0  0  0  0  0
   14.2860   -2.0893    0.9430 H   0  0  0  0  0  0  0  0  0  0  0  0
   16.3732   -2.7103    1.0398 C   0  0  0  0  0  0  0  0  0  0  0  0
   17.7019   -2.2256    0.6202 N   0  0  0  0  0  0  0  0  0  0  0  0
   17.9711   -0.8445    0.5387 C   0  0  0  0  0  0  0  0  0  0  0  0
   16.9190    0.0081    0.7273 C   0  0  0  0  0  0  0  0  0  0  0  0
   15.5978   -0.4342    0.9248 N   0  0  0  0  0  0  0  0  0  0  0  0
   17.1745    1.4574    0.5143 C   0  0  0  0  0  0  0  0  0  0  0  0
   16.2914    2.3031    0.6383 O   0  0  0  0  0  0  0  0  0  0  0  0
   18.4458    1.7771    0.1415 N   0  0  0  0  0  0  0  0  0  0  0  0
   18.6232    2.7532   -0.0177 H   0  0  0  0  0  0  0  0  0  0  0  0
   19.3971    0.8379   -0.1040 C   0  0  0  0  0  0  0  0  0  0  0  0
   19.1963   -0.4290    0.0731 N   0  0  0  0  0  0  0  0  0  0  0  0
   20.5899    1.2894   -0.5619 N   0  0  0  0  0  0  0  0  0  0  0  0
   23.3903   -5.9455  -11.1401 H   0  0  0  0  0  0  0  0  0  0  0  0
   20.2994   -4.9780  -10.5252 H   0  0  0  0  0  0  0  0  0  0  0  0
   21.0263   -3.3479  -10.6774 H   0  0  0  0  0  0  0  0  0  0  0  0
   21.1743   -3.2535   -8.1626 H   0  0  0  0  0  0  0  0  0  0  0  0
   20.3840   -4.8154   -8.0612 H   0  0  0  0  0  0  0  0  0  0  0  0
   18.7169   -3.9518  -11.0791 H   0  0  0  0  0  0  0  0  0  0  0  0
   19.2210   -3.1575   -6.5412 H   0  0  0  0  0  0  0  0  0  0  0  0
   18.9445   -0.6927   -5.3121 H   0  0  0  0  0  0  0  0  0  0  0  0
   18.4206   -0.5562   -2.9048 H   0  0  0  0  0  0  0  0  0  0  0  0
   14.6067   -2.4177   -3.6348 H   0  0  0  0  0  0  0  0  0  0  0  0
   15.2899   -2.9109   -5.9456 H   0  0  0  0  0  0  0  0  0  0  0  0
   17.0486   -1.3302   -1.2510 H   0  0  0  0  0  0  0  0  0  0  0  0
   15.0159   -3.0224   -1.3092 H   0  0  0  0  0  0  0  0  0  0  0  0
   14.1628   -1.4683   -1.3891 H   0  0  0  0  0  0  0  0  0  0  0  0
   16.2158   -3.7637    0.7896 H   0  0  0  0  0  0  0  0  0  0  0  0
   16.3596   -2.6277    2.1340 H   0  0  0  0  0  0  0  0  0  0  0  0
   18.2268   -2.7859   -0.0463 H   0  0  0  0  0  0  0  0  0  0  0  0
   14.8909    0.2942    0.9724 H   0  0  0  0  0  0  0  0  0  0  0  0
   20.8616    2.2581   -0.4779 H   0  0  0  0  0  0  0  0  0  0  0  0
   21.3421    0.6103   -0.5945 H   0  0  0  0  0  0  0  0  0  0  0  0
  1  2  1  0  0  0  0
  1 36  1  0  0  0  0
  2  3  2  0  0  0  0
  2  4  1  0  0  0  0
  4  5  1  0  0  0  0
  4 37  1  0  0  0  0
  4 38  1  0  0  0  0
  5  6  1  0  0  0  0
  5 39  1  0  0  0  0
  5 40  1  0  0  0  0
  6  7  1  6  0  0  0
  6  8  1  0  0  0  0
  6 11  1  0  0  0  0
  8  9  2  0  0  0  0
  8 10  1  0  0  0  0
 10 41  1  0  0  0  0
 11 12  1  0  0  0  0
 11 42  1  0  0  0  0
 12 13  2  0  0  0  0
 12 14  1  0  0  0  0
 14 15  2  0  0  0  0
 14 19  1  0  0  0  0
 15 16  1  0  0  0  0
 15 43  1  0  0  0  0
 16 17  2  0  0  0  0
 16 44  1  0  0  0  0
 17 18  1  0  0  0  0
 17 20  1  0  0  0  0
 18 19  2  0  0  0  0
 18 45  1  0  0  0  0
 19 46  1  0  0  0  0
 20 21  1  0  0  0  0
 20 47  1  0  0  0  0
 21 48  1  0  0  0  0
 21 49  1  0  0  0  0
 22 24  1  0  0  0  0
 22 28  1  0  0  0  0
 22 23  1  1  0  0  0
 22 21  1  0  0  0  0
 24 25  1  0  0  0  0
 24 50  1  0  0  0  0
 24 51  1  0  0  0  0
 25 26  1  0  0  0  0
 25 52  1  0  0  0  0
 26 27  2  0  0  0  0
 26 34  1  0  0  0  0
 27 28  1  0  0  0  0
 27 29  1  0  0  0  0
 28 53  1  0  0  0  0
 29 30  2  0  0  0  0
 29 31  1  0  0  0  0
 31 32  1  0  0  0  0
 31 33  1  0  0  0  0
 33 34  2  0  0  0  0
 33 35  1  0  0  0  0
 35 54  1  0  0  0  0
 35 55  1  0  0  0  0
M  END
$$$$
