THH
 OpenBabel04121316193D

 58 60  0  0  1  0  0  0  0  0999 V2000
   18.9206   -4.9543  -12.1136 O   0  0  0  0  0  0  0  0  0  0  0  0
   18.5051   -4.5487  -10.8981 C   0  0  0  0  0  0  0  0  0  0  0  0
   18.2040   -5.3535  -10.0217 O   0  0  0  0  0  0  0  0  0  0  0  0
   18.3766   -3.0545  -10.7579 C   0  0  0  0  0  0  0  0  0  0  0  0
   17.9072   -2.6548   -9.3520 C   0  0  0  0  0  0  0  0  0  0  0  0
   17.7308   -1.1437   -9.1514 C   0  0  1  0  0  0  0  0  0  0  0  0
   18.6660   -0.6079   -9.3545 H   0  0  0  0  0  0  0  0  0  0  0  0
   16.5916   -0.5628  -10.0367 C   0  0  0  0  0  0  0  0  0  0  0  0
   15.4985   -0.1987   -9.6209 O   0  0  0  0  0  0  0  0  0  0  0  0
   16.8692   -0.5160  -11.3620 O   0  0  0  0  0  0  0  0  0  0  0  0
   17.3936   -0.8701   -7.7578 N   0  0  0  0  0  0  0  0  0  0  0  0
   17.2939    0.4398   -7.3385 C   0  0  0  0  0  0  0  0  0  0  0  0
   17.5975    1.4010   -8.0335 O   0  0  0  0  0  0  0  0  0  0  0  0
   16.8400    0.6279   -5.9557 C   0  0  0  0  0  0  0  0  0  0  0  0
   17.5171    1.5640   -5.1785 C   0  0  0  0  0  0  0  0  0  0  0  0
   17.2190    1.6486   -3.8295 C   0  0  0  0  0  0  0  0  0  0  0  0
   16.1613    0.9002   -3.2896 C   0  0  0  0  0  0  0  0  0  0  0  0
   15.4069    0.0744   -4.1154 C   0  0  0  0  0  0  0  0  0  0  0  0
   15.7769   -0.1151   -5.4364 C   0  0  0  0  0  0  0  0  0  0  0  0
   15.8072    1.1348   -1.9825 N   0  0  0  0  0  0  0  0  0  0  0  0
   14.9627    0.2390   -1.2012 C   0  0  0  0  0  0  0  0  0  0  0  0
   15.1621    0.4199    0.3392 C   0  0  1  0  0  0  0  0  0  0  0  0
   14.1703    0.3188    0.8011 H   0  0  0  0  0  0  0  0  0  0  0  0
   16.0574   -0.6997    0.9089 C   0  0  0  0  0  0  0  0  0  0  0  0
   17.3858   -0.5911    0.3464 N   0  0  0  0  0  0  0  0  0  0  0  0
   17.9576    0.6799    0.2858 C   0  0  0  0  0  0  0  0  0  0  0  0
   17.1652    1.8353    0.5433 C   0  0  0  0  0  0  0  0  0  0  0  0
   15.7715    1.7399    0.7043 N   0  0  0  0  0  0  0  0  0  0  0  0
   14.8971    2.7224    1.3165 C   0  0  0  0  0  0  0  0  0  0  0  0
   17.8798    3.0137    0.3471 C   0  0  0  0  0  0  0  0  0  0  0  0
   17.2822    4.2433    0.3560 O   0  0  0  0  0  0  0  0  0  0  0  0
   19.1627    3.0849   -0.0348 N   0  0  0  0  0  0  0  0  0  0  0  0
   19.7878    1.9343   -0.2626 C   0  0  0  0  0  0  0  0  0  0  0  0
   19.2378    0.7253   -0.1275 N   0  0  0  0  0  0  0  0  0  0  0  0
   21.0828    2.0243   -0.6970 N   0  0  0  0  0  0  0  0  0  0  0  0
   19.5835   -4.3764  -12.5346 H   0  0  0  0  0  0  0  0  0  0  0  0
   17.6168   -2.7701  -11.4898 H   0  0  0  0  0  0  0  0  0  0  0  0
   19.3240   -2.5583  -10.9944 H   0  0  0  0  0  0  0  0  0  0  0  0
   18.6292   -3.0389   -8.6164 H   0  0  0  0  0  0  0  0  0  0  0  0
   16.9585   -3.1614   -9.1286 H   0  0  0  0  0  0  0  0  0  0  0  0
   17.7726   -0.7610  -11.6216 H   0  0  0  0  0  0  0  0  0  0  0  0
   17.1983   -1.6251   -7.1096 H   0  0  0  0  0  0  0  0  0  0  0  0
   18.2760    2.2081   -5.6140 H   0  0  0  0  0  0  0  0  0  0  0  0
   17.8127    2.3101   -3.1991 H   0  0  0  0  0  0  0  0  0  0  0  0
   14.5212   -0.4189   -3.7309 H   0  0  0  0  0  0  0  0  0  0  0  0
   15.2033   -0.8015   -6.0500 H   0  0  0  0  0  0  0  0  0  0  0  0
   16.5869    1.5151   -1.4711 H   0  0  0  0  0  0  0  0  0  0  0  0
   15.1071   -0.8188   -1.4677 H   0  0  0  0  0  0  0  0  0  0  0  0
   13.9312    0.4947   -1.4612 H   0  0  0  0  0  0  0  0  0  0  0  0
   15.6234   -1.6883    0.7215 H   0  0  0  0  0  0  0  0  0  0  0  0
   16.1292   -0.5837    1.9983 H   0  0  0  0  0  0  0  0  0  0  0  0
   17.9002   -1.3726   -0.0325 H   0  0  0  0  0  0  0  0  0  0  0  0
   15.4196    3.5916    1.7187 H   0  0  0  0  0  0  0  0  0  0  0  0
   14.3620    2.2810    2.1627 H   0  0  0  0  0  0  0  0  0  0  0  0
   14.1565    3.0644    0.5837 H   0  0  0  0  0  0  0  0  0  0  0  0
   16.3655    4.0897    0.0875 H   0  0  0  0  0  0  0  0  0  0  0  0
   21.4973    2.9411   -0.6396 H   0  0  0  0  0  0  0  0  0  0  0  0
   21.6313    1.1834   -0.7174 H   0  0  0  0  0  0  0  0  0  0  0  0
  1  2  1  0  0  0  0
  1 36  1  0  0  0  0
  2  3  2  0  0  0  0
  2  4  1  0  0  0  0
  4  5  1  0  0  0  0
  4 37  1  0  0  0  0
  4 38  1  0  0  0  0
  5  6  1  0  0  0  0
  5 39  1  0  0  0  0
  5 40  1  0  0  0  0
  6  7  1  6  0  0  0
  6  8  1  0  0  0  0
  6 11  1  0  0  0  0
  8  9  2  0  0  0  0
  8 10  1  0  0  0  0
 10 41  1  0  0  0  0
 11 12  1  0  0  0  0
 11 42  1  0  0  0  0
 12 13  2  0  0  0  0
 12 14  1  0  0  0  0
 14 15  2  0  0  0  0
 14 19  1  0  0  0  0
 15 16  1  0  0  0  0
 15 43  1  0  0  0  0
 16 17  2  0  0  0  0
 16 44  1  0  0  0  0
 17 18  1  0  0  0  0
 17 20  1  0  0  0  0
 18 19  2  0  0  0  0
 18 45  1  0  0  0  0
 19 46  1  0  0  0  0
 20 21  1  0  0  0  0
 20 47  1  0  0  0  0
 21 48  1  0  0  0  0
 21 49  1  0  0  0  0
 22 24  1  0  0  0  0
 22 28  1  0  0  0  0
 22 23  1  1  0  0  0
 22 21  1  0  0  0  0
 24 25  1  0  0  0  0
 24 50  1  0  0  0  0
 24 51  1  0  0  0  0
 25 26  1  0  0  0  0
 25 52  1  0  0  0  0
 26 27  2  0  0  0  0
 26 34  1  0  0  0  0
 27 28  1  0  0  0  0
 27 30  1  0  0  0  0
 28 29  1  0  0  0  0
 29 53  1  0  0  0  0
 29 54  1  0  0  0  0
 29 55  1  0  0  0  0
 30 31  1  0  0  0  0
 30 32  2  0  0  0  0
 31 56  1  0  0  0  0
 32 33  1  0  0  0  0
 33 34  2  0  0  0  0
 33 35  1  0  0  0  0
 35 57  1  0  0  0  0
 35 58  1  0  0  0  0
M  END
$$$$
