THM
 OpenBabel04121316193D

 31 32  0  0  1  0  0  0  0  0999 V2000
    1.0326   -0.0940   -0.0575 O   0  0  0  0  0  0  0  0  0  0  0  0
    2.4543   -0.0266    0.0017 C   0  0  0  0  0  0  0  0  0  0  0  0
    2.9933    1.1823   -0.7765 C   0  0  1  0  0  0  0  0  0  0  0  0
    2.7535    1.0457   -1.8401 H   0  0  0  0  0  0  0  0  0  0  0  0
    2.4093    2.4285   -0.3402 O   0  0  0  0  0  0  0  0  0  0  0  0
    3.3177    3.4571   -0.7861 C   0  0  2  0  0  0  0  0  0  0  0  0
    3.1520    3.5970   -1.8619 H   0  0  0  0  0  0  0  0  0  0  0  0
    4.7067    2.8776   -0.5517 C   0  0  0  0  0  0  0  0  0  0  0  0
    4.4936    1.3714   -0.5539 C   0  0  2  0  0  0  0  0  0  0  0  0
    4.8033    0.9530    0.4111 H   0  0  0  0  0  0  0  0  0  0  0  0
    5.2609    0.7342   -1.5625 O   0  0  0  0  0  0  0  0  0  0  0  0
    3.0607    4.7123   -0.0734 N   0  0  0  0  0  0  0  0  0  0  0  0
    2.8056    4.6978    1.2848 C   0  0  0  0  0  0  0  0  0  0  0  0
    2.2795    5.7515    1.9222 C   0  0  0  0  0  0  0  0  0  0  0  0
    1.7761    5.7187    3.3242 C   0  0  0  0  0  0  0  0  0  0  0  0
    2.1116    7.0097    1.1646 C   0  0  0  0  0  0  0  0  0  0  0  0
    1.5413    7.9884    1.6425 O   0  0  0  0  0  0  0  0  0  0  0  0
    2.6426    7.0136   -0.0900 N   0  0  0  0  0  0  0  0  0  0  0  0
    2.5388    7.8678   -0.6156 H   0  0  0  0  0  0  0  0  0  0  0  0
    2.9715    5.8904   -0.8089 C   0  0  0  0  0  0  0  0  0  0  0  0
    3.1585    5.9719   -2.0197 O   0  0  0  0  0  0  0  0  0  0  0  0
    0.7552   -0.8401    0.5013 H   0  0  0  0  0  0  0  0  0  0  0  0
    2.8504   -0.9557   -0.4242 H   0  0  0  0  0  0  0  0  0  0  0  0
    2.7443    0.0240    1.0562 H   0  0  0  0  0  0  0  0  0  0  0  0
    5.0890    3.1769    0.4313 H   0  0  0  0  0  0  0  0  0  0  0  0
    5.4234    3.2279   -1.2997 H   0  0  0  0  0  0  0  0  0  0  0  0
    6.2000    0.9163   -1.3790 H   0  0  0  0  0  0  0  0  0  0  0  0
    2.9783    3.7586    1.8016 H   0  0  0  0  0  0  0  0  0  0  0  0
    1.9491    4.7435    3.7899 H   0  0  0  0  0  0  0  0  0  0  0  0
    0.6946    5.8976    3.3318 H   0  0  0  0  0  0  0  0  0  0  0  0
    2.2607    6.4841    3.9365 H   0  0  0  0  0  0  0  0  0  0  0  0
  1  2  1  0  0  0  0
  1 22  1  0  0  0  0
  2  3  1  0  0  0  0
  2 23  1  0  0  0  0
  2 24  1  0  0  0  0
  3  4  1  6  0  0  0
  3  5  1  0  0  0  0
  3  9  1  0  0  0  0
  5  6  1  0  0  0  0
  6  8  1  0  0  0  0
  6 12  1  0  0  0  0
  6  7  1  6  0  0  0
  8  9  1  0  0  0  0
  8 25  1  0  0  0  0
  8 26  1  0  0  0  0
  9 10  1  1  0  0  0
  9 11  1  0  0  0  0
 11 27  1  0  0  0  0
 12 13  1  0  0  0  0
 12 20  1  0  0  0  0
 13 14  2  0  0  0  0
 13 28  1  0  0  0  0
 14 15  1  0  0  0  0
 14 16  1  0  0  0  0
 15 29  1  0  0  0  0
 15 30  1  0  0  0  0
 15 31  1  0  0  0  0
 16 17  2  0  0  0  0
 16 18  1  0  0  0  0
 18 19  1  0  0  0  0
 18 20  1  0  0  0  0
 20 21  2  0  0  0  0
M  END
$$$$
