THY
 OpenBabel04121316193D

 60 61  0  0  1  0  0  0  0  0999 V2000
    0.8115   -1.2175    0.2022 C   0  0  0  0  0  0  0  0  0  0  0  0
    2.5811   -0.8274    0.2062 C   0  0  0  0  0  0  0  0  0  0  0  0
    3.2845    0.3691    0.9797 C   0  0  1  0  0  0  0  0  0  0  0  0
    3.0738    1.3156    0.4888 H   0  0  0  0  0  0  0  0  0  0  0  0
    2.7474    0.5178    2.3290 C   0  5  0  0  0  0  0  0  0  0  0  0
    2.9657    1.5999    3.1567 C   0  0  0  0  0  0  0  0  0  0  0  0
    3.7002    1.0795    4.5372 S   0  0  0  0  0  0  0  0  0  0  0  0
    3.6959    2.6307    5.1909 C   0  0  0  0  0  0  0  0  0  0  0  0
    3.1419    3.5239    4.3120 C   0  0  0  0  0  0  0  0  0  0  0  0
    2.7245    2.9076    3.1160 N   0  3  0  0  0  0  0  0  0  0  0  0
    2.0447    3.7573    2.0303 C   0  0  0  0  0  0  0  0  0  0  0  0
    1.4915    3.0513    0.8316 C   0  0  0  0  0  0  0  0  0  0  0  0
    0.8298    1.9738    1.0235 C   0  0  0  0  0  0  0  0  0  0  0  0
    0.8567    1.0638    0.0388 N   0  0  0  0  0  0  0  0  0  0  0  0
    1.2195    1.2403   -1.2582 C   0  0  0  0  0  0  0  0  0  0  0  0
    1.3202    2.4856   -1.5822 N   0  0  0  0  0  0  0  0  0  0  0  0
    1.4091    3.3852   -0.5209 C   0  0  0  0  0  0  0  0  0  0  0  0
    1.2898    4.7026   -0.8888 N   0  0  0  0  0  0  0  0  0  0  0  0
    1.3464   -0.0277   -2.2496 C   0  0  0  0  0  0  0  0  0  0  0  0
    2.9705    4.9673    4.5479 C   0  0  0  0  0  0  0  0  0  0  0  0
    4.2733    2.7940    6.5326 C   0  0  0  0  0  0  0  0  0  0  0  0
    4.7128    1.4266    6.9800 C   0  0  0  0  0  0  0  0  0  0  0  0
    5.3349    1.4731    8.1868 O   0  0  0  0  0  0  0  0  0  0  0  0
    5.8879   -0.0638    8.7571 P   0  0  1  0  0  0  0  0  0  0  0  0
    5.4710   -0.8299    7.5000 O   0  0  0  0  0  0  0  0  0  0  0  0
    7.5267    0.4680    8.6011 O   0  0  0  0  0  0  0  0  0  0  0  0
    7.5517    2.0942    8.0115 P   0  0  0  0  0  0  0  0  0  0  0  0
    7.7440    2.6282    9.4255 O   0  0  0  0  0  0  0  0  0  0  0  0
    8.9841    1.8100    7.3033 O   0  0  0  0  0  0  0  0  0  0  0  0
    7.5766    3.7205    7.4218 O   0  0  0  0  0  0  0  0  0  0  0  0
    6.4409   -1.6006    9.3273 O   0  0  0  0  0  0  0  0  0  0  0  0
    1.7655   -0.3200    2.8153 O   0  0  0  0  0  0  0  0  0  0  0  0
    4.8172    0.6347    0.9252 C   0  0  0  0  0  0  0  0  0  0  0  0
    0.5173   -1.9366   -0.5679 H   0  0  0  0  0  0  0  0  0  0  0  0
   -0.0040   -0.5058   -0.0870 H   0  0  0  0  0  0  0  0  0  0  0  0
    0.4132   -1.4981    1.1694 H   0  0  0  0  0  0  0  0  0  0  0  0
    2.9979   -0.6012   -0.7854 H   0  0  0  0  0  0  0  0  0  0  0  0
    3.0523   -1.7720    0.4561 H   0  0  0  0  0  0  0  0  0  0  0  0
    2.7841    4.4899    1.7127 H   0  0  0  0  0  0  0  0  0  0  0  0
    1.2018    4.2367    2.5399 H   0  0  0  0  0  0  0  0  0  0  0  0
    0.5555    1.6252    2.0323 H   0  0  0  0  0  0  0  0  0  0  0  0
    0.7640    4.6404   -1.7713 H   0  0  0  0  0  0  0  0  0  0  0  0
    0.7860    5.2541   -0.2052 H   0  0  0  0  0  0  0  0  0  0  0  0
    1.6574   -1.0199   -1.8562 H   0  0  0  0  0  0  0  0  0  0  0  0
    2.1229    0.0415   -3.0227 H   0  0  0  0  0  0  0  0  0  0  0  0
    0.3699   -0.3213   -2.6367 H   0  0  0  0  0  0  0  0  0  0  0  0
    3.3859    5.2432    5.5241 H   0  0  0  0  0  0  0  0  0  0  0  0
    1.9116    5.2325    4.5596 H   0  0  0  0  0  0  0  0  0  0  0  0
    3.5009    5.5438    3.7891 H   0  0  0  0  0  0  0  0  0  0  0  0
    3.5483    3.2034    7.2403 H   0  0  0  0  0  0  0  0  0  0  0  0
    5.1276    3.4748    6.4907 H   0  0  0  0  0  0  0  0  0  0  0  0
    5.4763    1.0435    6.2854 H   0  0  0  0  0  0  0  0  0  0  0  0
    3.8546    0.7505    7.0831 H   0  0  0  0  0  0  0  0  0  0  0  0
    9.3537    0.9590    7.6059 H   0  0  0  0  0  0  0  0  0  0  0  0
    6.8692    4.2054    7.8797 H   0  0  0  0  0  0  0  0  0  0  0  0
    5.7084   -2.2409    9.2634 H   0  0  0  0  0  0  0  0  0  0  0  0
    0.9655   -0.2755    2.2686 H   0  0  0  0  0  0  0  0  0  0  0  0
    5.1186    0.9919   -0.0713 H   0  0  0  0  0  0  0  0  0  0  0  0
    5.4131   -0.2215    1.2230 H   0  0  0  0  0  0  0  0  0  0  0  0
    5.1017    1.4851    1.5794 H   0  0  0  0  0  0  0  0  0  0  0  0
  1  2  1  0  0  0  0
  1 34  1  0  0  0  0
  1 35  1  0  0  0  0
  1 36  1  0  0  0  0
  2  3  1  0  0  0  0
  2 37  1  0  0  0  0
  2 38  1  0  0  0  0
  3  4  1  6  0  0  0
  3  5  1  0  0  0  0
  3 33  1  0  0  0  0
  5  6  1  0  0  0  0
  5 32  1  0  0  0  0
  6  7  1  0  0  0  0
  6 10  2  0  0  0  0
  7  8  1  0  0  0  0
  8  9  2  0  0  0  0
  8 21  1  0  0  0  0
  9 10  1  0  0  0  0
  9 20  1  0  0  0  0
 10 11  1  0  0  0  0
 11 12  1  0  0  0  0
 11 39  1  0  0  0  0
 11 40  1  0  0  0  0
 12 13  2  0  0  0  0
 12 17  1  0  0  0  0
 13 14  1  0  0  0  0
 13 41  1  0  0  0  0
 14 15  2  0  0  0  0
 15 16  1  0  0  0  0
 15 19  1  0  0  0  0
 16 17  2  0  0  0  0
 17 18  1  0  0  0  0
 18 42  1  0  0  0  0
 18 43  1  0  0  0  0
 19 44  1  0  0  0  0
 19 45  1  0  0  0  0
 19 46  1  0  0  0  0
 20 47  1  0  0  0  0
 20 48  1  0  0  0  0
 20 49  1  0  0  0  0
 21 22  1  0  0  0  0
 21 50  1  0  0  0  0
 21 51  1  0  0  0  0
 22 23  1  0  0  0  0
 22 52  1  0  0  0  0
 22 53  1  0  0  0  0
 24 23  1  1  0  0  0
 24 25  2  0  0  0  0
 24 26  1  0  0  0  0
 24 31  1  0  0  0  0
 26 27  1  0  0  0  0
 27 28  2  0  0  0  0
 27 29  1  0  0  0  0
 27 30  1  0  0  0  0
 29 54  1  0  0  0  0
 30 55  1  0  0  0  0
 31 56  1  0  0  0  0
 32 57  1  0  0  0  0
 33 58  1  0  0  0  0
 33 59  1  0  0  0  0
 33 60  1  0  0  0  0
M  CHG  2   5  -1  10   1
M  END
$$$$
