TIH
 OpenBabel04121316193D

 20 20  0  0  1  0  0  0  0  0999 V2000
    2.8906   -2.8427    2.2821 O   0  0  0  0  0  0  0  0  0  0  0  0
    2.7403   -1.5391    1.9545 C   0  0  0  0  0  0  0  0  0  0  0  0
    2.4896   -0.7096    2.8222 O   0  0  0  0  0  0  0  0  0  0  0  0
    3.0992   -1.2517    0.4921 C   0  0  2  0  0  0  0  0  0  0  0  0
    2.5766   -0.3353    0.1933 H   0  0  0  0  0  0  0  0  0  0  0  0
    2.6906   -2.4231   -0.4282 C   0  0  0  0  0  0  0  0  0  0  0  0
    1.2121   -2.6868   -0.3868 C   0  0  0  0  0  0  0  0  0  0  0  0
    0.5501   -3.8957   -0.2971 C   0  0  0  0  0  0  0  0  0  0  0  0
   -0.8603   -3.7171   -0.1752 C   0  0  0  0  0  0  0  0  0  0  0  0
   -1.2164   -2.3885   -0.1736 C   0  0  0  0  0  0  0  0  0  0  0  0
    0.1138   -1.3689   -0.4319 S   0  0  0  0  0  0  0  0  0  0  0  0
    4.5485   -0.9785    0.3960 N   0  0  0  0  0  0  0  0  0  0  0  0
    2.8581   -2.8601    3.2593 H   0  0  0  0  0  0  0  0  0  0  0  0
    3.2370   -3.3343   -0.1426 H   0  0  0  0  0  0  0  0  0  0  0  0
    2.9787   -2.2107   -1.4656 H   0  0  0  0  0  0  0  0  0  0  0  0
    1.0475   -4.8603   -0.2881 H   0  0  0  0  0  0  0  0  0  0  0  0
   -1.5785   -4.5197   -0.0743 H   0  0  0  0  0  0  0  0  0  0  0  0
   -2.1954   -1.9488   -0.0633 H   0  0  0  0  0  0  0  0  0  0  0  0
    4.7805   -0.7922   -0.5774 H   0  0  0  0  0  0  0  0  0  0  0  0
    5.0537   -1.8206    0.6674 H   0  0  0  0  0  0  0  0  0  0  0  0
  1  2  1  0  0  0  0
  1 13  1  0  0  0  0
  2  3  2  0  0  0  0
  4  6  1  0  0  0  0
  4 12  1  0  0  0  0
  4  5  1  6  0  0  0
  4  2  1  0  0  0  0
  6  7  1  0  0  0  0
  6 14  1  0  0  0  0
  6 15  1  0  0  0  0
  7  8  2  0  0  0  0
  7 11  1  0  0  0  0
  8  9  1  0  0  0  0
  8 16  1  0  0  0  0
  9 10  2  0  0  0  0
  9 17  1  0  0  0  0
 10 11  1  0  0  0  0
 10 18  1  0  0  0  0
 12 19  1  0  0  0  0
 12 20  1  0  0  0  0
M  END
$$$$
