TK4
 OpenBabel04121316193D

 33 34  0  0  0  0  0  0  0  0999 V2000
    0.8837    0.0344    0.0992 C   0  0  0  0  0  0  0  0  0  0  0  0
    2.3661    0.1248    0.2561 C   0  0  0  0  0  0  0  0  0  0  0  0
    2.9546   -0.3348    1.2277 O   0  0  0  0  0  0  0  0  0  0  0  0
    3.0018    0.6597   -0.8616 N   0  0  0  0  0  0  0  0  0  0  0  0
    4.4048    0.6241   -0.8895 C   0  0  0  0  0  0  0  0  0  0  0  0
    5.0682    1.8499   -0.9875 C   0  0  0  0  0  0  0  0  0  0  0  0
    6.4570    1.8991   -0.9361 C   0  0  0  0  0  0  0  0  0  0  0  0
    7.2278    0.7220   -0.8677 C   0  0  0  0  0  0  0  0  0  0  0  0
    6.5535   -0.5321   -0.8249 C   0  0  0  0  0  0  0  0  0  0  0  0
    5.1337   -0.5714   -0.7956 C   0  0  0  0  0  0  0  0  0  0  0  0
    4.3412   -2.1962   -0.8542 S   0  0  0  0  0  0  0  0  0  0  0  0
    4.7907   -2.8082   -2.0928 O   0  0  0  0  0  0  0  0  0  0  0  0
    4.5573   -2.8391    0.4201 O   0  0  0  0  0  0  0  0  0  0  0  0
    2.7506   -2.0376   -1.0714 O   0  0  0  0  0  0  0  0  0  0  0  0
    7.3359   -1.7005   -0.8739 C   0  0  0  0  0  0  0  0  0  0  0  0
    8.6866   -1.6588   -1.1713 C   0  0  0  0  0  0  0  0  0  0  0  0
    9.3604   -0.4555   -1.0932 C   0  0  0  0  0  0  0  0  0  0  0  0
    8.6423    0.7240   -0.8809 C   0  0  0  0  0  0  0  0  0  0  0  0
    9.5473    2.2336   -0.6226 S   0  0  0  0  0  0  0  0  0  0  0  0
    9.3513    3.0513   -1.7936 O   0  0  0  0  0  0  0  0  0  0  0  0
    9.2365    2.7036    0.7148 O   0  0  0  0  0  0  0  0  0  0  0  0
   11.1020    1.7968   -0.6373 O   0  0  0  0  0  0  0  0  0  0  0  0
    0.5069   -0.6716    0.8442 H   0  0  0  0  0  0  0  0  0  0  0  0
    0.6303   -0.3558   -0.8923 H   0  0  0  0  0  0  0  0  0  0  0  0
    0.4483    1.0204    0.2453 H   0  0  0  0  0  0  0  0  0  0  0  0
    2.5326    1.4304   -1.3276 H   0  0  0  0  0  0  0  0  0  0  0  0
    4.5295    2.7942   -1.0306 H   0  0  0  0  0  0  0  0  0  0  0  0
    6.9213    2.8846   -0.9829 H   0  0  0  0  0  0  0  0  0  0  0  0
    2.5801   -1.3933   -1.7831 H   0  0  0  0  0  0  0  0  0  0  0  0
    6.9054   -2.6897   -0.7311 H   0  0  0  0  0  0  0  0  0  0  0  0
    9.1972   -2.5804   -1.4333 H   0  0  0  0  0  0  0  0  0  0  0  0
   10.4405   -0.4715   -1.1766 H   0  0  0  0  0  0  0  0  0  0  0  0
   11.3772    1.6438   -1.5639 H   0  0  0  0  0  0  0  0  0  0  0  0
  1  2  1  0  0  0  0
  1 23  1  0  0  0  0
  1 24  1  0  0  0  0
  1 25  1  0  0  0  0
  2  3  2  0  0  0  0
  2  4  1  0  0  0  0
  4  5  1  0  0  0  0
  4 26  1  0  0  0  0
  5  6  2  0  0  0  0
  5 10  1  0  0  0  0
  6  7  1  0  0  0  0
  6 27  1  0  0  0  0
  7  8  2  0  0  0  0
  7 28  1  0  0  0  0
  8  9  1  0  0  0  0
  8 18  1  0  0  0  0
  9 10  2  0  0  0  0
  9 15  1  0  0  0  0
 10 11  1  0  0  0  0
 11 12  2  0  0  0  0
 11 13  2  0  0  0  0
 11 14  1  0  0  0  0
 14 29  1  0  0  0  0
 15 16  2  0  0  0  0
 15 30  1  0  0  0  0
 16 17  1  0  0  0  0
 16 31  1  0  0  0  0
 17 18  2  0  0  0  0
 17 32  1  0  0  0  0
 18 19  1  0  0  0  0
 19 20  2  0  0  0  0
 19 21  2  0  0  0  0
 19 22  1  0  0  0  0
 22 33  1  0  0  0  0
M  END
$$$$
