TLD
 OpenBabel04121316193D

 17 17  0  0  0  0  0  0  0  0999 V2000
    1.0282    0.0704    0.0854 C   0  0  0  0  0  0  0  0  0  0  0  0
    2.5292    0.0565    0.0549 C   0  0  0  0  0  0  0  0  0  0  0  0
    3.2627    1.2403    0.0037 C   0  0  0  0  0  0  0  0  0  0  0  0
    4.6578    1.2094   -0.1058 C   0  0  0  0  0  0  0  0  0  0  0  0
    5.3369   -0.0135   -0.2293 C   0  0  0  0  0  0  0  0  0  0  0  0
    4.6044   -1.2121   -0.1533 C   0  0  0  0  0  0  0  0  0  0  0  0
    3.2126   -1.1676    0.0332 C   0  0  0  0  0  0  0  0  0  0  0  0
    5.3405   -2.8371   -0.3349 S   0  0  0  0  0  0  0  0  0  0  0  0
    7.1093    0.0081   -0.5113 S   0  0  0  0  0  0  0  0  0  0  0  0
    0.6359    1.0907    0.0164 H   0  0  0  0  0  0  0  0  0  0  0  0
    0.6536   -0.3802    1.0087 H   0  0  0  0  0  0  0  0  0  0  0  0
    0.6366   -0.4876   -0.7726 H   0  0  0  0  0  0  0  0  0  0  0  0
    2.7549    2.2039    0.0304 H   0  0  0  0  0  0  0  0  0  0  0  0
    5.1962    2.1520   -0.1182 H   0  0  0  0  0  0  0  0  0  0  0  0
    2.6498   -2.0931    0.1279 H   0  0  0  0  0  0  0  0  0  0  0  0
    6.5583   -2.3912   -0.6851 H   0  0  0  0  0  0  0  0  0  0  0  0
    7.2768    1.3348   -0.5939 H   0  0  0  0  0  0  0  0  0  0  0  0
  1  2  1  0  0  0  0
  1 10  1  0  0  0  0
  1 11  1  0  0  0  0
  1 12  1  0  0  0  0
  2  3  2  0  0  0  0
  2  7  1  0  0  0  0
  3  4  1  0  0  0  0
  3 13  1  0  0  0  0
  4  5  2  0  0  0  0
  4 14  1  0  0  0  0
  5  6  1  0  0  0  0
  5  9  1  0  0  0  0
  6  7  2  0  0  0  0
  6  8  1  0  0  0  0
  7 15  1  0  0  0  0
  8 16  1  0  0  0  0
  9 17  1  0  0  0  0
M  END
$$$$
