TN2
 OpenBabel04121316193D

 26 27  0  0  0  0  0  0  0  0999 V2000
    0.8481   -0.3030    0.0905 Cl  0  0  0  0  0  0  0  0  0  0  0  0
    2.5603   -0.2635   -0.0044 C   0  0  0  0  0  0  0  0  0  0  0  0
    3.1746    0.9609   -0.1313 C   0  0  0  0  0  0  0  0  0  0  0  0
    4.5502    1.0127   -0.2994 C   0  0  0  0  0  0  0  0  0  0  0  0
    5.3711   -0.1231   -0.3197 C   0  0  0  0  0  0  0  0  0  0  0  0
    4.7151   -1.3567   -0.2137 C   0  0  0  0  0  0  0  0  0  0  0  0
    3.3266   -1.4274   -0.0140 C   0  0  0  0  0  0  0  0  0  0  0  0
    5.3761   -2.5493   -0.3441 O   0  0  0  0  0  0  0  0  0  0  0  0
    6.7573   -0.1409   -0.4320 O   0  0  0  0  0  0  0  0  0  0  0  0
    7.5064    1.0150   -0.5681 C   0  0  0  0  0  0  0  0  0  0  0  0
    7.0806    2.2628   -0.1226 C   0  0  0  0  0  0  0  0  0  0  0  0
    7.6109    3.4399   -0.6139 C   0  0  0  0  0  0  0  0  0  0  0  0
    8.8724    3.3855   -1.1697 C   0  0  0  0  0  0  0  0  0  0  0  0
    9.5259    2.1520   -1.3047 C   0  0  0  0  0  0  0  0  0  0  0  0
    8.7960    0.9653   -1.1072 C   0  0  0  0  0  0  0  0  0  0  0  0
    9.5574   -0.5358   -1.4874 Cl  0  0  0  0  0  0  0  0  0  0  0  0
    9.5322    4.6425   -1.5153 N   0  3  0  0  0  0  0  0  0  0  0  0
    8.8554    5.6853   -1.4196 O   0  0  0  0  0  0  0  0  0  0  0  0
   10.7072    4.5959   -1.8747 O   0  5  0  0  0  0  0  0  0  0  0  0
    2.6230    1.8974   -0.1229 H   0  0  0  0  0  0  0  0  0  0  0  0
    4.8801    2.0268   -0.4304 H   0  0  0  0  0  0  0  0  0  0  0  0
    2.8452   -2.3901    0.1215 H   0  0  0  0  0  0  0  0  0  0  0  0
    6.2865   -2.3603   -0.6363 H   0  0  0  0  0  0  0  0  0  0  0  0
    6.3152    2.3629    0.6353 H   0  0  0  0  0  0  0  0  0  0  0  0
    7.0655    4.3705   -0.4670 H   0  0  0  0  0  0  0  0  0  0  0  0
   10.5809    2.1094   -1.5606 H   0  0  0  0  0  0  0  0  0  0  0  0
  1  2  1  0  0  0  0
  2  3  2  0  0  0  0
  2  7  1  0  0  0  0
  3  4  1  0  0  0  0
  3 20  1  0  0  0  0
  4  5  2  0  0  0  0
  4 21  1  0  0  0  0
  5  6  1  0  0  0  0
  5  9  1  0  0  0  0
  6  7  2  0  0  0  0
  6  8  1  0  0  0  0
  7 22  1  0  0  0  0
  8 23  1  0  0  0  0
  9 10  1  0  0  0  0
 10 11  2  0  0  0  0
 10 15  1  0  0  0  0
 11 12  1  0  0  0  0
 11 24  1  0  0  0  0
 12 13  2  0  0  0  0
 12 25  1  0  0  0  0
 13 14  1  0  0  0  0
 13 17  1  0  0  0  0
 14 15  2  0  0  0  0
 14 26  1  0  0  0  0
 15 16  1  0  0  0  0
 17 18  2  0  0  0  0
 17 19  1  0  0  0  0
M  CHG  2  17   1  19  -1
M  END
$$$$
