TN3
 OpenBabel04121316193D

 31 32  0  0  0  0  0  0  0  0999 V2000
    1.0534    0.0232    0.0516 C   0  0  0  0  0  0  0  0  0  0  0  0
    2.4857   -0.0150    0.1216 N   0  0  0  0  0  0  0  0  0  0  0  0
    3.0962   -0.4195    1.2857 C   0  0  0  0  0  0  0  0  0  0  0  0
    2.5248   -0.6952    2.3378 O   0  0  0  0  0  0  0  0  0  0  0  0
    4.5522   -0.4466    1.2275 C   0  0  0  0  0  0  0  0  0  0  0  0
    5.1674    0.7762    1.1109 C   0  0  0  0  0  0  0  0  0  0  0  0
    6.5368    0.8107    0.9703 C   0  0  0  0  0  0  0  0  0  0  0  0
    7.3478   -0.3339    0.9493 C   0  0  0  0  0  0  0  0  0  0  0  0
    6.6874   -1.5718    1.0546 C   0  0  0  0  0  0  0  0  0  0  0  0
    5.2954   -1.6269    1.2492 C   0  0  0  0  0  0  0  0  0  0  0  0
    7.5275   -3.0717    0.8628 Cl  0  0  0  0  0  0  0  0  0  0  0  0
    8.7338   -0.3331    0.8401 O   0  0  0  0  0  0  0  0  0  0  0  0
    9.4698    0.8254    0.6857 C   0  0  0  0  0  0  0  0  0  0  0  0
    9.0554    2.0809    1.1165 C   0  0  0  0  0  0  0  0  0  0  0  0
    9.6043    3.2514    0.6249 C   0  0  0  0  0  0  0  0  0  0  0  0
   10.8675    3.1792    0.0856 C   0  0  0  0  0  0  0  0  0  0  0  0
   11.4972    1.9391   -0.0399 C   0  0  0  0  0  0  0  0  0  0  0  0
   10.7578    0.7624    0.1566 C   0  0  0  0  0  0  0  0  0  0  0  0
   11.3172   -0.4556   -0.1119 O   0  0  0  0  0  0  0  0  0  0  0  0
   11.6777    4.6423   -0.2978 Cl  0  0  0  0  0  0  0  0  0  0  0  0
    0.7449    0.2967   -0.9589 H   0  0  0  0  0  0  0  0  0  0  0  0
    0.6852    0.7561    0.7742 H   0  0  0  0  0  0  0  0  0  0  0  0
    0.6712   -0.9673    0.3105 H   0  0  0  0  0  0  0  0  0  0  0  0
    3.0335    0.1944   -0.7074 H   0  0  0  0  0  0  0  0  0  0  0  0
    4.6160    1.7125    1.1325 H   0  0  0  0  0  0  0  0  0  0  0  0
    6.8707    1.8238    0.8646 H   0  0  0  0  0  0  0  0  0  0  0  0
    4.7880   -2.5743    1.4055 H   0  0  0  0  0  0  0  0  0  0  0  0
    8.3016    2.1909    1.8838 H   0  0  0  0  0  0  0  0  0  0  0  0
    9.0792    4.1910    0.7695 H   0  0  0  0  0  0  0  0  0  0  0  0
   12.5542    1.9068   -0.2759 H   0  0  0  0  0  0  0  0  0  0  0  0
   12.2185   -0.3339   -0.4525 H   0  0  0  0  0  0  0  0  0  0  0  0
  1  2  1  0  0  0  0
  1 21  1  0  0  0  0
  1 22  1  0  0  0  0
  1 23  1  0  0  0  0
  2  3  1  0  0  0  0
  2 24  1  0  0  0  0
  3  4  2  0  0  0  0
  3  5  1  0  0  0  0
  5  6  2  0  0  0  0
  5 10  1  0  0  0  0
  6  7  1  0  0  0  0
  6 25  1  0  0  0  0
  7  8  2  0  0  0  0
  7 26  1  0  0  0  0
  8  9  1  0  0  0  0
  8 12  1  0  0  0  0
  9 10  2  0  0  0  0
  9 11  1  0  0  0  0
 10 27  1  0  0  0  0
 12 13  1  0  0  0  0
 13 14  2  0  0  0  0
 13 18  1  0  0  0  0
 14 15  1  0  0  0  0
 14 28  1  0  0  0  0
 15 16  2  0  0  0  0
 15 29  1  0  0  0  0
 16 17  1  0  0  0  0
 16 20  1  0  0  0  0
 17 18  2  0  0  0  0
 17 30  1  0  0  0  0
 18 19  1  0  0  0  0
 19 31  1  0  0  0  0
M  END
$$$$
