TNA
 OpenBabel04121316193D

 47 46  0  0  1  0  0  0  0  0999 V2000
    0.8829   -0.1036    0.0358 O   0  0  0  0  0  0  0  0  0  0  0  0
    2.2264   -0.1043    0.1588 C   0  0  0  0  0  0  0  0  0  0  0  0
    2.7947   -0.4128    1.1991 O   0  0  0  0  0  0  0  0  0  0  0  0
    2.9247    0.3431   -1.0910 C   0  0  0  0  0  0  0  0  0  0  0  0
    4.4446    0.3236   -0.9332 C   0  0  0  0  0  0  0  0  0  0  0  0
    5.1883    0.7618   -2.1952 C   0  0  1  0  0  0  0  0  0  0  0  0
    4.9097    0.1277   -3.0473 H   0  0  0  0  0  0  0  0  0  0  0  0
    4.8688    2.2570   -2.5548 C   0  0  0  0  0  0  0  0  0  0  0  0
    5.6482    3.1966   -2.4882 O   0  0  0  0  0  0  0  0  0  0  0  0
    3.6286    2.4705   -3.0550 O   0  0  0  0  0  0  0  0  0  0  0  0
    6.6395    0.5494   -1.9303 N   0  0  0  0  0  0  0  0  0  0  0  0
    7.4350    0.9117   -3.0829 C   0  0  0  0  0  0  0  0  0  0  0  0
    8.9311    0.9039   -2.8515 C   0  0  0  0  0  0  0  0  0  0  0  0
    9.6493    1.3773   -4.1215 C   0  0  1  0  0  0  0  0  0  0  0  0
    9.3645    0.7462   -4.9751 H   0  0  0  0  0  0  0  0  0  0  0  0
    9.3232    2.8781   -4.4956 C   0  0  0  0  0  0  0  0  0  0  0  0
   10.1096    3.8131   -4.4212 O   0  0  0  0  0  0  0  0  0  0  0  0
    8.1137    3.0992   -5.0612 O   0  0  0  0  0  0  0  0  0  0  0  0
   11.1063    1.1706   -3.8763 N   0  0  0  0  0  0  0  0  0  0  0  0
   11.8827    1.5375   -5.0434 C   0  0  0  0  0  0  0  0  0  0  0  0
   13.3816    1.5336   -4.8200 C   0  0  0  0  0  0  0  0  0  0  0  0
   14.1106    1.9852   -6.0963 C   0  0  1  0  0  0  0  0  0  0  0  0
   13.8388    1.3454   -6.9439 H   0  0  0  0  0  0  0  0  0  0  0  0
   13.8491    3.4691   -6.5115 C   0  0  0  0  0  0  0  0  0  0  0  0
   14.7013    4.3488   -6.4635 O   0  0  0  0  0  0  0  0  0  0  0  0
   12.6196    3.7544   -6.9961 O   0  0  0  0  0  0  0  0  0  0  0  0
   15.5641    1.8099   -5.8719 N   0  0  0  0  0  0  0  0  0  0  0  0
    0.5320    0.1647   -0.8345 H   0  0  0  0  0  0  0  0  0  0  0  0
    2.5776    1.3647   -1.2562 H   0  0  0  0  0  0  0  0  0  0  0  0
    2.6309   -0.2955   -1.9330 H   0  0  0  0  0  0  0  0  0  0  0  0
    4.7560   -0.6946   -0.6579 H   0  0  0  0  0  0  0  0  0  0  0  0
    4.7312    0.9738   -0.0967 H   0  0  0  0  0  0  0  0  0  0  0  0
    3.0428    1.7034   -3.1471 H   0  0  0  0  0  0  0  0  0  0  0  0
    6.8433   -0.4023   -1.6277 H   0  0  0  0  0  0  0  0  0  0  0  0
    7.1982    1.9376   -3.3059 H   0  0  0  0  0  0  0  0  0  0  0  0
    7.1739    0.2957   -3.9515 H   0  0  0  0  0  0  0  0  0  0  0  0
    9.2503   -0.1100   -2.5782 H   0  0  0  0  0  0  0  0  0  0  0  0
    9.1841    1.5701   -2.0170 H   0  0  0  0  0  0  0  0  0  0  0  0
    7.4454    2.3970   -5.0652 H   0  0  0  0  0  0  0  0  0  0  0  0
   11.3059    0.2145   -3.5884 H   0  0  0  0  0  0  0  0  0  0  0  0
   11.6403    2.5617   -5.2698 H   0  0  0  0  0  0  0  0  0  0  0  0
   11.6130    0.9166   -5.9051 H   0  0  0  0  0  0  0  0  0  0  0  0
   13.6964    0.5216   -4.5331 H   0  0  0  0  0  0  0  0  0  0  0  0
   13.6308    2.2040   -3.9871 H   0  0  0  0  0  0  0  0  0  0  0  0
   11.9375    3.0639   -7.0094 H   0  0  0  0  0  0  0  0  0  0  0  0
   15.7779    0.8882   -5.5028 H   0  0  0  0  0  0  0  0  0  0  0  0
   15.8544    2.4903   -5.1622 H   0  0  0  0  0  0  0  0  0  0  0  0
  1  2  1  0  0  0  0
  1 28  1  0  0  0  0
  2  3  2  0  0  0  0
  2  4  1  0  0  0  0
  4  5  1  0  0  0  0
  4 29  1  0  0  0  0
  4 30  1  0  0  0  0
  5  6  1  0  0  0  0
  5 31  1  0  0  0  0
  5 32  1  0  0  0  0
  6  7  1  6  0  0  0
  6  8  1  0  0  0  0
  6 11  1  0  0  0  0
  8  9  2  0  0  0  0
  8 10  1  0  0  0  0
 10 33  1  0  0  0  0
 11 12  1  0  0  0  0
 11 34  1  0  0  0  0
 12 13  1  0  0  0  0
 12 35  1  0  0  0  0
 12 36  1  0  0  0  0
 13 14  1  0  0  0  0
 13 37  1  0  0  0  0
 13 38  1  0  0  0  0
 14 15  1  6  0  0  0
 14 16  1  0  0  0  0
 14 19  1  0  0  0  0
 16 17  2  0  0  0  0
 16 18  1  0  0  0  0
 18 39  1  0  0  0  0
 19 20  1  0  0  0  0
 19 40  1  0  0  0  0
 20 21  1  0  0  0  0
 20 41  1  0  0  0  0
 20 42  1  0  0  0  0
 21 22  1  0  0  0  0
 21 43  1  0  0  0  0
 21 44  1  0  0  0  0
 22 23  1  6  0  0  0
 22 24  1  0  0  0  0
 22 27  1  0  0  0  0
 24 25  2  0  0  0  0
 24 26  1  0  0  0  0
 26 45  1  0  0  0  0
 27 46  1  0  0  0  0
 27 47  1  0  0  0  0
M  END
$$$$
