TNT
 OpenBabel04121316193D

 43 44  0  0  0  0  0  0  0  0999 V2000
    0.9564   -0.0259   -0.1579 N   0  0  0  0  0  0  0  0  0  0  0  0
    2.3132    0.0860   -0.0686 C   0  0  0  0  0  0  0  0  0  0  0  0
    3.0015    0.7807   -0.8984 N   0  0  0  0  0  0  0  0  0  0  0  0
    3.0131   -0.6681    0.9925 C   0  0  0  0  0  0  0  0  0  0  0  0
    3.9334   -0.0479    1.8380 C   0  0  0  0  0  0  0  0  0  0  0  0
    4.6593   -0.8282    2.7411 C   0  0  0  0  0  0  0  0  0  0  0  0
    4.4101   -2.2000    2.8436 C   0  0  0  0  0  0  0  0  0  0  0  0
    3.4110   -2.7846    2.0599 C   0  0  0  0  0  0  0  0  0  0  0  0
    2.7492   -2.0315    1.0992 C   0  0  0  0  0  0  0  0  0  0  0  0
    5.2076   -2.8804    3.7243 O   0  0  0  0  0  0  0  0  0  0  0  0
    4.9904   -4.2888    3.7665 C   0  0  0  0  0  0  0  0  0  0  0  0
    6.0011   -4.9115    4.7054 C   0  0  0  0  0  0  0  0  0  0  0  0
    5.7459   -6.4018    4.8379 C   0  0  0  0  0  0  0  0  0  0  0  0
    6.7083   -6.9180    5.7598 O   0  0  0  0  0  0  0  0  0  0  0  0
    6.6149   -8.2677    5.9344 C   0  0  0  0  0  0  0  0  0  0  0  0
    7.8078   -8.9828    5.9179 C   0  0  0  0  0  0  0  0  0  0  0  0
    7.7862  -10.3784    5.9769 C   0  0  0  0  0  0  0  0  0  0  0  0
    6.5767  -11.0593    6.1655 C   0  0  0  0  0  0  0  0  0  0  0  0
    5.4047  -10.3107    6.3412 C   0  0  0  0  0  0  0  0  0  0  0  0
    5.4147   -8.9264    6.1774 C   0  0  0  0  0  0  0  0  0  0  0  0
    6.5065  -12.5560    6.1495 C   0  0  0  0  0  0  0  0  0  0  0  0
    7.5214  -13.3248    5.9044 N   0  0  0  0  0  0  0  0  0  0  0  0
    5.3367  -13.2071    6.3749 N   0  0  0  0  0  0  0  0  0  0  0  0
    0.4382    0.5896   -0.7675 H   0  0  0  0  0  0  0  0  0  0  0  0
    0.4436   -0.4056    0.6291 H   0  0  0  0  0  0  0  0  0  0  0  0
    2.3872    1.1865   -1.6077 H   0  0  0  0  0  0  0  0  0  0  0  0
    4.0920    1.0252    1.7864 H   0  0  0  0  0  0  0  0  0  0  0  0
    5.4289   -0.3695    3.3577 H   0  0  0  0  0  0  0  0  0  0  0  0
    3.1379   -3.8293    2.1506 H   0  0  0  0  0  0  0  0  0  0  0  0
    2.0581   -2.5163    0.4155 H   0  0  0  0  0  0  0  0  0  0  0  0
    5.1124   -4.7309    2.7685 H   0  0  0  0  0  0  0  0  0  0  0  0
    3.9791   -4.4862    4.1433 H   0  0  0  0  0  0  0  0  0  0  0  0
    5.9460   -4.4322    5.6900 H   0  0  0  0  0  0  0  0  0  0  0  0
    7.0218   -4.7261    4.3499 H   0  0  0  0  0  0  0  0  0  0  0  0
    5.8487   -6.8947    3.8610 H   0  0  0  0  0  0  0  0  0  0  0  0
    4.7244   -6.5492    5.2063 H   0  0  0  0  0  0  0  0  0  0  0  0
    8.7555   -8.4585    5.8266 H   0  0  0  0  0  0  0  0  0  0  0  0
    8.7308  -10.8987    5.8683 H   0  0  0  0  0  0  0  0  0  0  0  0
    4.4601  -10.7746    6.5983 H   0  0  0  0  0  0  0  0  0  0  0  0
    4.4772   -8.3870    6.2613 H   0  0  0  0  0  0  0  0  0  0  0  0
    8.3799  -12.8046    5.7303 H   0  0  0  0  0  0  0  0  0  0  0  0
    4.4392  -12.7610    6.4603 H   0  0  0  0  0  0  0  0  0  0  0  0
    5.3528  -14.2111    6.2505 H   0  0  0  0  0  0  0  0  0  0  0  0
  1  2  1  0  0  0  0
  1 24  1  0  0  0  0
  1 25  1  0  0  0  0
  2  3  2  0  0  0  0
  2  4  1  0  0  0  0
  3 26  1  0  0  0  0
  4  5  2  0  0  0  0
  4  9  1  0  0  0  0
  5  6  1  0  0  0  0
  5 27  1  0  0  0  0
  6  7  2  0  0  0  0
  6 28  1  0  0  0  0
  7  8  1  0  0  0  0
  7 10  1  0  0  0  0
  8  9  2  0  0  0  0
  8 29  1  0  0  0  0
  9 30  1  0  0  0  0
 10 11  1  0  0  0  0
 11 12  1  0  0  0  0
 11 31  1  0  0  0  0
 11 32  1  0  0  0  0
 12 13  1  0  0  0  0
 12 33  1  0  0  0  0
 12 34  1  0  0  0  0
 13 14  1  0  0  0  0
 13 35  1  0  0  0  0
 13 36  1  0  0  0  0
 14 15  1  0  0  0  0
 15 16  2  0  0  0  0
 15 20  1  0  0  0  0
 16 17  1  0  0  0  0
 16 37  1  0  0  0  0
 17 18  2  0  0  0  0
 17 38  1  0  0  0  0
 18 19  1  0  0  0  0
 18 21  1  0  0  0  0
 19 20  2  0  0  0  0
 19 39  1  0  0  0  0
 20 40  1  0  0  0  0
 21 22  2  0  0  0  0
 21 23  1  0  0  0  0
 22 41  1  0  0  0  0
 23 42  1  0  0  0  0
 23 43  1  0  0  0  0
M  END
$$$$
