TOE
 OpenBabel04121316193D

 27 26  0  0  0  0  0  0  0  0999 V2000
    1.0655   -0.0239   -0.0072 C   0  0  0  0  0  0  0  0  0  0  0  0
    2.4861   -0.0268   -0.0249 O   0  0  0  0  0  0  0  0  0  0  0  0
    2.9816   -0.2058   -1.3499 C   0  0  0  0  0  0  0  0  0  0  0  0
    4.5022   -0.2021   -1.3218 C   0  0  0  0  0  0  0  0  0  0  0  0
    4.9946   -0.3829   -2.6478 O   0  0  0  0  0  0  0  0  0  0  0  0
    6.4200   -0.3840   -2.6639 C   0  0  0  0  0  0  0  0  0  0  0  0
    6.8995   -0.5783   -4.0932 C   0  0  0  0  0  0  0  0  0  0  0  0
    8.3257   -0.5901   -4.1147 O   0  0  0  0  0  0  0  0  0  0  0  0
    8.8107   -0.7565   -5.4427 C   0  0  0  0  0  0  0  0  0  0  0  0
   10.3336   -0.7616   -5.4379 C   0  0  0  0  0  0  0  0  0  0  0  0
   10.8379   -0.9366   -6.7572 O   0  0  0  0  0  0  0  0  0  0  0  0
    0.7335    0.1159    1.0244 H   0  0  0  0  0  0  0  0  0  0  0  0
    0.6789   -0.9791   -0.3751 H   0  0  0  0  0  0  0  0  0  0  0  0
    0.6794    0.7992   -0.6160 H   0  0  0  0  0  0  0  0  0  0  0  0
    2.6205    0.6003   -2.0000 H   0  0  0  0  0  0  0  0  0  0  0  0
    2.6205   -1.1556   -1.7625 H   0  0  0  0  0  0  0  0  0  0  0  0
    4.8653   -1.0084   -0.6734 H   0  0  0  0  0  0  0  0  0  0  0  0
    4.8654    0.7482   -0.9125 H   0  0  0  0  0  0  0  0  0  0  0  0
    6.8030   -1.1922   -2.0296 H   0  0  0  0  0  0  0  0  0  0  0  0
    6.8022    0.5646   -2.2686 H   0  0  0  0  0  0  0  0  0  0  0  0
    6.5184    0.2321   -4.7263 H   0  0  0  0  0  0  0  0  0  0  0  0
    6.5106   -1.5238   -4.4903 H   0  0  0  0  0  0  0  0  0  0  0  0
    8.4449    0.0548   -6.0830 H   0  0  0  0  0  0  0  0  0  0  0  0
    8.4401   -1.7019   -5.8566 H   0  0  0  0  0  0  0  0  0  0  0  0
   10.7206   -1.5617   -4.7977 H   0  0  0  0  0  0  0  0  0  0  0  0
   10.7175    0.1824   -5.0380 H   0  0  0  0  0  0  0  0  0  0  0  0
   10.5157   -1.7938   -7.0803 H   0  0  0  0  0  0  0  0  0  0  0  0
  1  2  1  0  0  0  0
  1 12  1  0  0  0  0
  1 13  1  0  0  0  0
  1 14  1  0  0  0  0
  2  3  1  0  0  0  0
  3  4  1  0  0  0  0
  3 15  1  0  0  0  0
  3 16  1  0  0  0  0
  4  5  1  0  0  0  0
  4 17  1  0  0  0  0
  4 18  1  0  0  0  0
  5  6  1  0  0  0  0
  6  7  1  0  0  0  0
  6 19  1  0  0  0  0
  6 20  1  0  0  0  0
  7  8  1  0  0  0  0
  7 21  1  0  0  0  0
  7 22  1  0  0  0  0
  8  9  1  0  0  0  0
  9 10  1  0  0  0  0
  9 23  1  0  0  0  0
  9 24  1  0  0  0  0
 10 11  1  0  0  0  0
 10 25  1  0  0  0  0
 10 26  1  0  0  0  0
 11 27  1  0  0  0  0
M  END
$$$$
