TOL
 OpenBabel04121316193D

 38 39  0  0  0  0  0  0  0  0999 V2000
    0.8487    0.3102    0.2305 C   0  0  0  0  0  0  0  0  0  0  0  0
    2.2304    0.2113   -0.1088 O   0  0  0  0  0  0  0  0  0  0  0  0
    2.8129   -0.8959    0.4274 C   0  0  0  0  0  0  0  0  0  0  0  0
    3.9899   -0.6870    1.1377 C   0  0  0  0  0  0  0  0  0  0  0  0
    4.6557   -1.7662    1.6999 C   0  0  0  0  0  0  0  0  0  0  0  0
    4.1142   -3.0680    1.6931 C   0  0  0  0  0  0  0  0  0  0  0  0
    2.9278   -3.2330    0.8943 C   0  0  0  0  0  0  0  0  0  0  0  0
    2.3319   -2.1814    0.2056 C   0  0  0  0  0  0  0  0  0  0  0  0
    1.2480   -2.5126   -0.7961 C   0  0  0  0  0  0  0  0  0  0  0  0
    1.5108   -3.6170   -1.5612 F   0  0  0  0  0  0  0  0  0  0  0  0
    0.0691   -2.7895   -0.1563 F   0  0  0  0  0  0  0  0  0  0  0  0
    0.9716   -1.5568   -1.7199 F   0  0  0  0  0  0  0  0  0  0  0  0
    2.3634   -4.4791    0.6778 C   0  0  0  0  0  0  0  0  0  0  0  0
    3.1364   -5.5495    0.8810 C   0  0  0  0  0  0  0  0  0  0  0  0
    3.9683   -5.3782    1.9693 C   0  0  0  0  0  0  0  0  0  0  0  0
    4.6082   -4.2084    2.3948 C   0  0  0  0  0  0  0  0  0  0  0  0
    5.6917   -4.1901    3.5897 C   0  0  0  0  0  0  0  0  0  0  0  0
    6.0927   -2.6716    4.3042 S   0  0  0  0  0  0  0  0  0  0  0  0
    6.3857   -5.3513    4.1389 N   0  0  0  0  0  0  0  0  0  0  0  0
    6.1401   -6.8116    3.9221 C   0  0  0  0  0  0  0  0  0  0  0  0
    5.7945   -7.2516    2.5257 C   0  0  0  0  0  0  0  0  0  0  0  0
    6.2766   -6.6786    1.5438 O   0  0  0  0  0  0  0  0  0  0  0  0
    4.8100   -8.1674    2.3653 O   0  0  0  0  0  0  0  0  0  0  0  0
    7.4639   -5.1723    5.1512 C   0  0  0  0  0  0  0  0  0  0  0  0
    0.4677    1.1933   -0.2761 H   0  0  0  0  0  0  0  0  0  0  0  0
    0.7091    0.3644    1.3121 H   0  0  0  0  0  0  0  0  0  0  0  0
    0.2307   -0.5115   -0.1259 H   0  0  0  0  0  0  0  0  0  0  0  0
    4.4236    0.3033    1.2559 H   0  0  0  0  0  0  0  0  0  0  0  0
    5.6248   -1.5431    2.1287 H   0  0  0  0  0  0  0  0  0  0  0  0
    1.3705   -4.6719    0.2772 H   0  0  0  0  0  0  0  0  0  0  0  0
    2.8626   -6.5188    0.4770 H   0  0  0  0  0  0  0  0  0  0  0  0
    3.9205   -6.2451    2.5803 H   0  0  0  0  0  0  0  0  0  0  0  0
    5.5667   -7.2344    4.7605 H   0  0  0  0  0  0  0  0  0  0  0  0
    7.1306   -7.2841    3.9975 H   0  0  0  0  0  0  0  0  0  0  0  0
    4.8163   -8.9808    2.8972 H   0  0  0  0  0  0  0  0  0  0  0  0
    7.7792   -4.1520    5.3695 H   0  0  0  0  0  0  0  0  0  0  0  0
    8.3608   -5.6776    4.7806 H   0  0  0  0  0  0  0  0  0  0  0  0
    7.1435   -5.6216    6.0972 H   0  0  0  0  0  0  0  0  0  0  0  0
  1  2  1  0  0  0  0
  1 25  1  0  0  0  0
  1 26  1  0  0  0  0
  1 27  1  0  0  0  0
  2  3  1  0  0  0  0
  3  4  2  0  0  0  0
  3  8  1  0  0  0  0
  4  5  1  0  0  0  0
  4 28  1  0  0  0  0
  5  6  2  0  0  0  0
  5 29  1  0  0  0  0
  6  7  1  0  0  0  0
  6 16  1  0  0  0  0
  7  8  2  0  0  0  0
  7 13  1  0  0  0  0
  8  9  1  0  0  0  0
  9 10  1  0  0  0  0
  9 11  1  0  0  0  0
  9 12  1  0  0  0  0
 13 14  2  0  0  0  0
 13 30  1  0  0  0  0
 14 15  1  0  0  0  0
 14 31  1  0  0  0  0
 15 16  2  0  0  0  0
 15 32  1  0  0  0  0
 16 17  1  0  0  0  0
 17 18  2  0  0  0  0
 17 19  1  0  0  0  0
 19 20  1  0  0  0  0
 19 24  1  0  0  0  0
 20 21  1  0  0  0  0
 20 33  1  0  0  0  0
 20 34  1  0  0  0  0
 21 22  2  0  0  0  0
 21 23  1  0  0  0  0
 23 35  1  0  0  0  0
 24 36  1  0  0  0  0
 24 37  1  0  0  0  0
 24 38  1  0  0  0  0
M  END
$$$$
