TOM
 OpenBabel04121316193D

 25 25  0  0  0  0  0  0  0  0999 V2000
    0.9320    0.1829    0.1903 C   0  0  0  0  0  0  0  0  0  0  0  0
    2.3603    0.1626    0.1209 O   0  0  0  0  0  0  0  0  0  0  0  0
    2.9740   -0.7063    0.9878 C   0  0  0  0  0  0  0  0  0  0  0  0
    3.9121   -0.1055    1.8380 C   0  0  0  0  0  0  0  0  0  0  0  0
    4.6779   -0.8790    2.7064 C   0  0  0  0  0  0  0  0  0  0  0  0
    4.4280   -2.2429    2.8072 C   0  0  0  0  0  0  0  0  0  0  0  0
    3.4596   -2.8401    1.9918 C   0  0  0  0  0  0  0  0  0  0  0  0
    2.8097   -2.1077    0.9818 C   0  0  0  0  0  0  0  0  0  0  0  0
    2.0102   -2.8704   -0.0088 C   0  0  0  0  0  0  0  0  0  0  0  0
    1.6507   -2.3677   -1.2006 C   0  0  0  0  0  0  0  0  0  0  0  0
    0.5923   -2.9609   -2.0427 C   0  0  0  0  0  0  0  0  0  0  0  0
    0.1762   -4.1073   -1.9535 O   0  0  0  0  0  0  0  0  0  0  0  0
   -0.0538   -2.0045   -3.0640 C   0  0  0  0  0  0  0  0  0  0  0  0
    0.1547   -0.8020   -3.0876 O   0  0  0  0  0  0  0  0  0  0  0  0
   -0.8841   -2.6580   -3.8913 O   0  0  0  0  0  0  0  0  0  0  0  0
    0.5789    0.6988   -0.7092 H   0  0  0  0  0  0  0  0  0  0  0  0
    0.5970    0.7139    1.0795 H   0  0  0  0  0  0  0  0  0  0  0  0
    0.4556   -0.8002    0.1926 H   0  0  0  0  0  0  0  0  0  0  0  0
    4.0537    0.9722    1.8089 H   0  0  0  0  0  0  0  0  0  0  0  0
    5.4527   -0.4163    3.3126 H   0  0  0  0  0  0  0  0  0  0  0  0
    4.9997   -2.8475    3.5077 H   0  0  0  0  0  0  0  0  0  0  0  0
    3.2437   -3.8963    2.1395 H   0  0  0  0  0  0  0  0  0  0  0  0
    1.6874   -3.8661    0.2854 H   0  0  0  0  0  0  0  0  0  0  0  0
    1.9750   -1.3898   -1.5385 H   0  0  0  0  0  0  0  0  0  0  0  0
   -0.9163   -3.6092   -3.6409 H   0  0  0  0  0  0  0  0  0  0  0  0
  1  2  1  0  0  0  0
  1 16  1  0  0  0  0
  1 17  1  0  0  0  0
  1 18  1  0  0  0  0
  2  3  1  0  0  0  0
  3  4  2  0  0  0  0
  3  8  1  0  0  0  0
  4  5  1  0  0  0  0
  4 19  1  0  0  0  0
  5  6  2  0  0  0  0
  5 20  1  0  0  0  0
  6  7  1  0  0  0  0
  6 21  1  0  0  0  0
  7  8  2  0  0  0  0
  7 22  1  0  0  0  0
  8  9  1  0  0  0  0
  9 10  2  0  0  0  0
  9 23  1  0  0  0  0
 10 11  1  0  0  0  0
 10 24  1  0  0  0  0
 11 12  2  0  0  0  0
 11 13  1  0  0  0  0
 13 14  2  0  0  0  0
 13 15  1  0  0  0  0
 15 25  1  0  0  0  0
M  END
$$$$
