TON
 OpenBabel04121316193D

 51 51  0  0  0  0  0  0  0  0999 V2000
    0.9997    0.0989    0.0582 O   0  0  0  0  0  0  0  0  0  0  0  0
    2.4205    0.0898    0.0561 C   0  0  0  0  0  0  0  0  0  0  0  0
    2.9158   -1.2899   -0.3404 C   0  0  0  0  0  0  0  0  0  0  0  0
    4.3381   -1.3011   -0.3430 O   0  0  0  0  0  0  0  0  0  0  0  0
    4.8175   -2.5930   -0.7035 C   0  0  0  0  0  0  0  0  0  0  0  0
    6.3284   -2.5650   -0.6938 C   0  0  0  0  0  0  0  0  0  0  0  0
    6.7972   -3.8726   -0.9960 O   0  0  0  0  0  0  0  0  0  0  0  0
    8.1551   -3.9933   -0.9997 C   0  0  0  0  0  0  0  0  0  0  0  0
    9.0567   -2.9381   -1.0736 C   0  0  0  0  0  0  0  0  0  0  0  0
   10.4073   -3.1863   -1.2779 C   0  0  0  0  0  0  0  0  0  0  0  0
   10.8959   -4.5071   -1.3254 C   0  0  0  0  0  0  0  0  0  0  0  0
    9.9929   -5.5522   -1.0711 C   0  0  0  0  0  0  0  0  0  0  0  0
    8.6257   -5.3056   -0.9890 C   0  0  0  0  0  0  0  0  0  0  0  0
   12.3126   -4.7651   -1.8501 C   0  0  0  0  0  0  0  0  0  0  0  0
   12.4584   -4.2507   -3.3436 C   0  0  0  0  0  0  0  0  0  0  0  0
   11.5451   -4.8476   -4.4809 C   0  0  0  0  0  0  0  0  0  0  0  0
   11.7557   -6.3543   -4.6731 C   0  0  0  0  0  0  0  0  0  0  0  0
   10.0537   -4.5773   -4.2547 C   0  0  0  0  0  0  0  0  0  0  0  0
   11.8797   -4.1809   -5.8292 C   0  0  0  0  0  0  0  0  0  0  0  0
   13.2991   -3.9891   -0.9420 C   0  0  0  0  0  0  0  0  0  0  0  0
   12.7435   -6.2417   -1.7178 C   0  0  0  0  0  0  0  0  0  0  0  0
    0.7246    0.9944    0.3169 H   0  0  0  0  0  0  0  0  0  0  0  0
    2.7870    0.3563    1.0533 H   0  0  0  0  0  0  0  0  0  0  0  0
    2.7875    0.8453   -0.6469 H   0  0  0  0  0  0  0  0  0  0  0  0
    2.5409   -1.5491   -1.3374 H   0  0  0  0  0  0  0  0  0  0  0  0
    2.5396   -2.0386    0.3665 H   0  0  0  0  0  0  0  0  0  0  0  0
    4.4611   -2.8635   -1.7049 H   0  0  0  0  0  0  0  0  0  0  0  0
    4.4539   -3.3483    0.0025 H   0  0  0  0  0  0  0  0  0  0  0  0
    6.6884   -2.2574    0.2958 H   0  0  0  0  0  0  0  0  0  0  0  0
    6.6610   -1.8338   -1.4411 H   0  0  0  0  0  0  0  0  0  0  0  0
    8.7391   -1.8986   -1.0610 H   0  0  0  0  0  0  0  0  0  0  0  0
   11.0507   -2.3395   -1.5004 H   0  0  0  0  0  0  0  0  0  0  0  0
   10.3004   -6.5951   -1.0876 H   0  0  0  0  0  0  0  0  0  0  0  0
    7.9271   -6.1358   -0.9936 H   0  0  0  0  0  0  0  0  0  0  0  0
   13.5083   -4.3888   -3.6446 H   0  0  0  0  0  0  0  0  0  0  0  0
   12.3206   -3.1573   -3.3524 H   0  0  0  0  0  0  0  0  0  0  0  0
   11.3006   -6.9363   -3.8742 H   0  0  0  0  0  0  0  0  0  0  0  0
   12.8213   -6.5981   -4.7440 H   0  0  0  0  0  0  0  0  0  0  0  0
   11.2630   -6.7143   -5.5813 H   0  0  0  0  0  0  0  0  0  0  0  0
    9.6807   -5.1376   -3.4103 H   0  0  0  0  0  0  0  0  0  0  0  0
    9.4366   -4.9258   -5.0867 H   0  0  0  0  0  0  0  0  0  0  0  0
    9.8555   -3.5108   -4.1027 H   0  0  0  0  0  0  0  0  0  0  0  0
   12.9195   -4.3549   -6.1189 H   0  0  0  0  0  0  0  0  0  0  0  0
   11.6954   -3.1021   -5.8015 H   0  0  0  0  0  0  0  0  0  0  0  0
   11.2417   -4.5981   -6.6203 H   0  0  0  0  0  0  0  0  0  0  0  0
   13.1367   -2.9070   -0.9594 H   0  0  0  0  0  0  0  0  0  0  0  0
   14.3369   -4.1691   -1.2411 H   0  0  0  0  0  0  0  0  0  0  0  0
   13.1895   -4.3152    0.1009 H   0  0  0  0  0  0  0  0  0  0  0  0
   12.0467   -6.9450   -2.1645 H   0  0  0  0  0  0  0  0  0  0  0  0
   12.7955   -6.5423   -0.6656 H   0  0  0  0  0  0  0  0  0  0  0  0
   13.7205   -6.4163   -2.1783 H   0  0  0  0  0  0  0  0  0  0  0  0
  1  2  1  0  0  0  0
  1 22  1  0  0  0  0
  2  3  1  0  0  0  0
  2 23  1  0  0  0  0
  2 24  1  0  0  0  0
  3  4  1  0  0  0  0
  3 25  1  0  0  0  0
  3 26  1  0  0  0  0
  4  5  1  0  0  0  0
  5  6  1  0  0  0  0
  5 27  1  0  0  0  0
  5 28  1  0  0  0  0
  6  7  1  0  0  0  0
  6 29  1  0  0  0  0
  6 30  1  0  0  0  0
  7  8  1  0  0  0  0
  8  9  2  0  0  0  0
  8 13  1  0  0  0  0
  9 10  1  0  0  0  0
  9 31  1  0  0  0  0
 10 11  2  0  0  0  0
 10 32  1  0  0  0  0
 11 12  1  0  0  0  0
 11 14  1  0  0  0  0
 12 13  2  0  0  0  0
 12 33  1  0  0  0  0
 13 34  1  0  0  0  0
 14 15  1  0  0  0  0
 14 20  1  0  0  0  0
 14 21  1  0  0  0  0
 15 16  1  0  0  0  0
 15 35  1  0  0  0  0
 15 36  1  0  0  0  0
 16 17  1  0  0  0  0
 16 18  1  0  0  0  0
 16 19  1  0  0  0  0
 17 37  1  0  0  0  0
 17 38  1  0  0  0  0
 17 39  1  0  0  0  0
 18 40  1  0  0  0  0
 18 41  1  0  0  0  0
 18 42  1  0  0  0  0
 19 43  1  0  0  0  0
 19 44  1  0  0  0  0
 19 45  1  0  0  0  0
 20 46  1  0  0  0  0
 20 47  1  0  0  0  0
 20 48  1  0  0  0  0
 21 49  1  0  0  0  0
 21 50  1  0  0  0  0
 21 51  1  0  0  0  0
M  END
$$$$
