TOP
 OpenBabel04121316193D

 39 40  0  0  0  0  0  0  0  0999 V2000
    0.9037    0.1315    0.0832 C   0  0  0  0  0  0  0  0  0  0  0  0
    2.3120    0.1453    0.2686 O   0  0  0  0  0  0  0  0  0  0  0  0
    2.9575    0.5578   -0.8642 C   0  0  0  0  0  0  0  0  0  0  0  0
    2.9099    1.9258   -1.1750 C   0  0  0  0  0  0  0  0  0  0  0  0
    3.7316    2.4178   -2.1772 C   0  0  0  0  0  0  0  0  0  0  0  0
    3.5703    3.7933   -2.7824 C   0  0  0  0  0  0  0  0  0  0  0  0
    4.1777    4.0743   -4.1581 C   0  0  0  0  0  0  0  0  0  0  0  0
    4.3614    5.4057   -4.4842 C   0  0  0  0  0  0  0  0  0  0  0  0
    5.0035    5.8508   -5.5888 N   0  0  0  0  0  0  0  0  0  0  0  0
    5.5348    4.9083   -6.3557 C   0  0  0  0  0  0  0  0  0  0  0  0
    5.3778    3.6149   -6.1814 N   0  0  0  0  0  0  0  0  0  0  0  0
    4.6035    3.2072   -5.1621 C   0  0  0  0  0  0  0  0  0  0  0  0
    4.3584    1.8579   -5.2588 N   0  0  0  0  0  0  0  0  0  0  0  0
    6.3009    5.2750   -7.4488 N   0  0  0  0  0  0  0  0  0  0  0  0
    4.7473    1.5744   -2.6044 C   0  0  0  0  0  0  0  0  0  0  0  0
    4.5775    0.1949   -2.5832 C   0  0  0  0  0  0  0  0  0  0  0  0
    3.7130   -0.3407   -1.6404 C   0  0  0  0  0  0  0  0  0  0  0  0
    3.6981   -1.6987   -1.5644 O   0  0  0  0  0  0  0  0  0  0  0  0
    3.1847   -2.3009   -0.4013 C   0  0  0  0  0  0  0  0  0  0  0  0
    5.2627   -0.4381   -3.5914 O   0  0  0  0  0  0  0  0  0  0  0  0
    5.2150   -1.8576   -3.6586 C   0  0  0  0  0  0  0  0  0  0  0  0
    0.4743   -0.3200    0.9805 H   0  0  0  0  0  0  0  0  0  0  0  0
    0.6253   -0.4805   -0.7814 H   0  0  0  0  0  0  0  0  0  0  0  0
    0.5108    1.1452   -0.0211 H   0  0  0  0  0  0  0  0  0  0  0  0
    2.2647    2.5911   -0.6061 H   0  0  0  0  0  0  0  0  0  0  0  0
    4.0202    4.4843   -2.0539 H   0  0  0  0  0  0  0  0  0  0  0  0
    2.5016    4.0511   -2.8369 H   0  0  0  0  0  0  0  0  0  0  0  0
    3.9895    6.1989   -3.8398 H   0  0  0  0  0  0  0  0  0  0  0  0
    5.2285    1.3240   -5.2866 H   0  0  0  0  0  0  0  0  0  0  0  0
    3.6663    1.4438   -4.6543 H   0  0  0  0  0  0  0  0  0  0  0  0
    6.0741    6.1834   -7.8067 H   0  0  0  0  0  0  0  0  0  0  0  0
    6.4159    4.4930   -8.0782 H   0  0  0  0  0  0  0  0  0  0  0  0
    5.5774    1.9855   -3.1694 H   0  0  0  0  0  0  0  0  0  0  0  0
    3.4336   -3.3630   -0.4427 H   0  0  0  0  0  0  0  0  0  0  0  0
    2.0976   -2.2238   -0.3997 H   0  0  0  0  0  0  0  0  0  0  0  0
    3.6492   -1.8811    0.4947 H   0  0  0  0  0  0  0  0  0  0  0  0
    5.7649   -2.1869   -4.5456 H   0  0  0  0  0  0  0  0  0  0  0  0
    4.1956   -2.2492   -3.7673 H   0  0  0  0  0  0  0  0  0  0  0  0
    5.7268   -2.2662   -2.7846 H   0  0  0  0  0  0  0  0  0  0  0  0
  1  2  1  0  0  0  0
  1 22  1  0  0  0  0
  1 23  1  0  0  0  0
  1 24  1  0  0  0  0
  2  3  1  0  0  0  0
  3  4  2  0  0  0  0
  3 17  1  0  0  0  0
  4  5  1  0  0  0  0
  4 25  1  0  0  0  0
  5  6  1  0  0  0  0
  5 15  2  0  0  0  0
  6  7  1  0  0  0  0
  6 26  1  0  0  0  0
  6 27  1  0  0  0  0
  7  8  2  0  0  0  0
  7 12  1  0  0  0  0
  8  9  1  0  0  0  0
  8 28  1  0  0  0  0
  9 10  2  0  0  0  0
 10 11  1  0  0  0  0
 10 14  1  0  0  0  0
 11 12  2  0  0  0  0
 12 13  1  0  0  0  0
 13 29  1  0  0  0  0
 13 30  1  0  0  0  0
 14 31  1  0  0  0  0
 14 32  1  0  0  0  0
 15 16  1  0  0  0  0
 15 33  1  0  0  0  0
 16 17  2  0  0  0  0
 16 20  1  0  0  0  0
 17 18  1  0  0  0  0
 18 19  1  0  0  0  0
 19 34  1  0  0  0  0
 19 35  1  0  0  0  0
 19 36  1  0  0  0  0
 20 21  1  0  0  0  0
 21 37  1  0  0  0  0
 21 38  1  0  0  0  0
 21 39  1  0  0  0  0
M  END
$$$$
