TOX
 OpenBabel04121316193D

 30 31  0  0  1  0  0  0  0  0999 V2000
    2.9462    3.3650   -0.3080 O   0  0  0  0  0  0  0  0  0  0  0  0
    2.3791    2.5523    0.7020 C   0  0  0  0  0  0  0  0  0  0  0  0
    2.9799    1.1453    0.9539 C   0  0  2  0  0  0  0  0  0  0  0  0
    2.6391    0.4685    0.1595 H   0  0  0  0  0  0  0  0  0  0  0  0
    2.4577    0.6489    2.3337 C   0  0  0  0  0  0  0  0  0  0  0  0
    0.9587    0.6345    2.4162 C   0  0  0  0  0  0  0  0  0  0  0  0
    0.1299   -0.4125    2.0912 C   0  0  0  0  0  0  0  0  0  0  0  0
   -1.1660    0.0010    2.2091 N   0  0  0  0  0  0  0  0  0  0  0  0
   -1.2198    1.3265    2.6017 C   0  0  0  0  0  0  0  0  0  0  0  0
    0.1086    1.7392    2.7741 C   0  0  0  0  0  0  0  0  0  0  0  0
    0.3474    3.0744    3.1760 C   0  0  0  0  0  0  0  0  0  0  0  0
   -0.7107    3.9626    3.3601 C   0  0  0  0  0  0  0  0  0  0  0  0
   -2.0167    3.5277    3.1980 C   0  0  0  0  0  0  0  0  0  0  0  0
   -2.2867    2.2101    2.8239 C   0  0  0  0  0  0  0  0  0  0  0  0
   -2.2391   -0.8608    1.9147 O   0  0  0  0  0  0  0  0  0  0  0  0
   -3.5564   -0.2756    2.0980 O   0  0  0  0  0  0  0  0  0  0  0  0
    4.4515    1.1171    0.9453 N   0  0  0  0  0  0  0  0  0  0  0  0
    2.4314    4.1942   -0.2580 H   0  0  0  0  0  0  0  0  0  0  0  0
    1.3241    2.4358    0.4328 H   0  0  0  0  0  0  0  0  0  0  0  0
    2.4769    3.1310    1.6187 H   0  0  0  0  0  0  0  0  0  0  0  0
    2.8469    1.3041    3.1253 H   0  0  0  0  0  0  0  0  0  0  0  0
    2.8473   -0.3535    2.5539 H   0  0  0  0  0  0  0  0  0  0  0  0
    0.3546   -1.4219    1.7581 H   0  0  0  0  0  0  0  0  0  0  0  0
    1.3600    3.4407    3.3244 H   0  0  0  0  0  0  0  0  0  0  0  0
   -0.5107    4.9944    3.6353 H   0  0  0  0  0  0  0  0  0  0  0  0
   -2.8415    4.2128    3.3684 H   0  0  0  0  0  0  0  0  0  0  0  0
   -3.3200    1.9006    2.7068 H   0  0  0  0  0  0  0  0  0  0  0  0
   -4.0616   -1.0715    1.8701 H   0  0  0  0  0  0  0  0  0  0  0  0
    4.7814    0.1925    1.2180 H   0  0  0  0  0  0  0  0  0  0  0  0
    4.8137    1.7772    1.6296 H   0  0  0  0  0  0  0  0  0  0  0  0
  1  2  1  0  0  0  0
  1 18  1  0  0  0  0
  2 19  1  0  0  0  0
  2 20  1  0  0  0  0
  3  5  1  0  0  0  0
  3 17  1  0  0  0  0
  3  4  1  6  0  0  0
  3  2  1  0  0  0  0
  5  6  1  0  0  0  0
  5 21  1  0  0  0  0
  5 22  1  0  0  0  0
  6  7  2  0  0  0  0
  6 10  1  0  0  0  0
  7  8  1  0  0  0  0
  7 23  1  0  0  0  0
  8  9  1  0  0  0  0
  8 15  1  0  0  0  0
  9 10  2  0  0  0  0
  9 14  1  0  0  0  0
 10 11  1  0  0  0  0
 11 12  2  0  0  0  0
 11 24  1  0  0  0  0
 12 13  1  0  0  0  0
 12 25  1  0  0  0  0
 13 14  2  0  0  0  0
 13 26  1  0  0  0  0
 14 27  1  0  0  0  0
 15 16  1  0  0  0  0
 16 28  1  0  0  0  0
 17 29  1  0  0  0  0
 17 30  1  0  0  0  0
M  END
$$$$
