TOY
 OpenBabel04121316193D

 69 71  0  0  1  0  0  0  0  0999 V2000
    6.1840   -8.9335    4.4394 N   0  0  0  0  0  0  0  0  0  0  0  0
    6.1642   -8.0834    3.2212 C   0  0  0  0  0  0  0  0  0  0  0  0
    7.1189   -6.8950    3.1187 C   0  0  1  0  0  0  0  0  0  0  0  0
    7.7721   -7.0553    2.2470 H   0  0  0  0  0  0  0  0  0  0  0  0
    6.5091   -5.6166    2.8730 O   0  0  0  0  0  0  0  0  0  0  0  0
    5.4690   -5.2794    3.7741 C   0  0  2  0  0  0  0  0  0  0  0  0
    4.7353   -6.0768    3.9076 H   0  0  0  0  0  0  0  0  0  0  0  0
    4.7274   -4.1379    3.3074 O   0  0  0  0  0  0  0  0  0  0  0  0
    4.0565   -4.2566    2.0064 C   0  0  2  0  0  0  0  0  0  0  0  0
    4.5846   -3.5387    1.3613 H   0  0  0  0  0  0  0  0  0  0  0  0
    2.5838   -3.8098    2.1279 C   0  0  1  0  0  0  0  0  0  0  0  0
    2.0866   -4.4160    2.8954 H   0  0  0  0  0  0  0  0  0  0  0  0
    2.4890   -2.4035    2.5466 N   0  0  0  0  0  0  0  0  0  0  0  0
    1.8595   -3.9629    0.7796 C   0  0  0  0  0  0  0  0  0  0  0  0
    1.8986   -5.4047    0.2359 C   0  0  2  0  0  0  0  0  0  0  0  0
    1.3963   -6.0785    0.9417 H   0  0  0  0  0  0  0  0  0  0  0  0
    3.3520   -5.8677    0.0285 C   0  0  1  0  0  0  0  0  0  0  0  0
    3.8157   -5.2661   -0.7650 H   0  0  0  0  0  0  0  0  0  0  0  0
    4.1391   -5.6395    1.3248 C   0  0  1  0  0  0  0  0  0  0  0  0
    3.8211   -6.4172    2.0352 H   0  0  0  0  0  0  0  0  0  0  0  0
    5.4710   -5.8369    0.8928 O   0  0  0  0  0  0  0  0  0  0  0  0
    3.4066   -7.2702   -0.4392 O   0  0  0  0  0  0  0  0  0  0  0  0
    4.7492   -7.7987   -0.4901 C   0  0  1  0  0  0  0  0  0  0  0  0
    5.4325   -6.9741   -0.7130 H   0  0  0  0  0  0  0  0  0  0  0  0
    5.0554   -8.4432    0.7548 O   0  0  0  0  0  0  0  0  0  0  0  0
    4.4406   -9.7252    0.9462 C   0  0  2  0  0  0  0  0  0  0  0  0
    3.3549   -9.6145    0.8872 H   0  0  0  0  0  0  0  0  0  0  0  0
    4.7481  -10.3383    2.3133 C   0  0  0  0  0  0  0  0  0  0  0  0
    4.2047  -11.6085    2.6019 O   0  0  0  0  0  0  0  0  0  0  0  0
    5.0042  -10.6644   -0.0886 C   0  0  2  0  0  0  0  0  0  0  0  0
    6.1040  -10.6936   -0.0008 H   0  0  0  0  0  0  0  0  0  0  0  0
    4.5807  -10.1324   -1.4481 C   0  0  1  0  0  0  0  0  0  0  0  0
    3.4860  -10.1175   -1.4910 H   0  0  0  0  0  0  0  0  0  0  0  0
    5.1026   -8.7178   -1.6711 C   0  0  1  0  0  0  0  0  0  0  0  0
    6.2028   -8.7594   -1.7217 H   0  0  0  0  0  0  0  0  0  0  0  0
    4.6347   -8.1562   -2.8958 O   0  0  0  0  0  0  0  0  0  0  0  0
    5.0568  -11.1147   -2.4378 N   0  0  0  0  0  0  0  0  0  0  0  0
    4.5101  -11.9987    0.0345 O   0  0  0  0  0  0  0  0  0  0  0  0
    1.1765   -5.4679   -1.0399 N   0  0  0  0  0  0  0  0  0  0  0  0
    6.1977   -5.0376    5.1218 C   0  0  1  0  0  0  0  0  0  0  0  0
    5.4603   -4.7812    5.8870 H   0  0  0  0  0  0  0  0  0  0  0  0
    6.9690   -6.3150    5.5172 C   0  0  0  0  0  0  0  0  0  0  0  0
    7.9060   -6.8437    4.3990 C   0  0  2  0  0  0  0  0  0  0  0  0
    8.3154   -7.8380    4.6190 H   0  0  0  0  0  0  0  0  0  0  0  0
    9.0309   -5.9916    4.1927 O   0  0  0  0  0  0  0  0  0  0  0  0
    7.1818   -3.9513    4.9795 N   0  0  0  0  0  0  0  0  0  0  0  0
    5.8832   -9.8913    4.2675 H   0  0  0  0  0  0  0  0  0  0  0  0
    5.5088   -8.6053    5.1260 H   0  0  0  0  0  0  0  0  0  0  0  0
    5.1327   -7.7938    3.0185 H   0  0  0  0  0  0  0  0  0  0  0  0
    6.5367   -8.7045    2.4121 H   0  0  0  0  0  0  0  0  0  0  0  0
    2.9549   -2.2897    3.4498 H   0  0  0  0  0  0  0  0  0  0  0  0
    1.5162   -2.1312    2.6777 H   0  0  0  0  0  0  0  0  0  0  0  0
    2.3315   -3.2916    0.0467 H   0  0  0  0  0  0  0  0  0  0  0  0
    0.8178   -3.6334    0.8825 H   0  0  0  0  0  0  0  0  0  0  0  0
    6.0571   -5.0904    1.1941 H   0  0  0  0  0  0  0  0  0  0  0  0
    4.3336   -9.6677    3.0635 H   0  0  0  0  0  0  0  0  0  0  0  0
    5.8347  -10.4696    2.4021 H   0  0  0  0  0  0  0  0  0  0  0  0
    3.3203  -11.4677    2.9921 H   0  0  0  0  0  0  0  0  0  0  0  0
    3.6709   -8.0605   -2.7876 H   0  0  0  0  0  0  0  0  0  0  0  0
    4.7885  -12.0268   -2.0419 H   0  0  0  0  0  0  0  0  0  0  0  0
    6.0775  -11.1369   -2.3857 H   0  0  0  0  0  0  0  0  0  0  0  0
    3.7090  -11.9617    0.5900 H   0  0  0  0  0  0  0  0  0  0  0  0
    1.6656   -4.9010   -1.7338 H   0  0  0  0  0  0  0  0  0  0  0  0
    0.2456   -5.0686   -0.9438 H   0  0  0  0  0  0  0  0  0  0  0  0
    6.1795   -7.0282    5.7584 H   0  0  0  0  0  0  0  0  0  0  0  0
    7.5323   -6.2086    6.4425 H   0  0  0  0  0  0  0  0  0  0  0  0
    9.4560   -5.9075    5.0469 H   0  0  0  0  0  0  0  0  0  0  0  0
    6.7025   -3.1891    4.4962 H   0  0  0  0  0  0  0  0  0  0  0  0
    7.8390   -4.2880    4.2527 H   0  0  0  0  0  0  0  0  0  0  0  0
  1  2  1  0  0  0  0
  1 47  1  0  0  0  0
  1 48  1  0  0  0  0
  2  3  1  0  0  0  0
  2 49  1  0  0  0  0
  2 50  1  0  0  0  0
  3  4  1  6  0  0  0
  3  5  1  0  0  0  0
  3 43  1  0  0  0  0
  5  6  1  0  0  0  0
  6  7  1  1  0  0  0
  6  8  1  0  0  0  0
  6 40  1  0  0  0  0
  9 11  1  0  0  0  0
  9 19  1  0  0  0  0
  9 10  1  6  0  0  0
  9  8  1  0  0  0  0
 11 12  1  1  0  0  0
 11 13  1  0  0  0  0
 11 14  1  0  0  0  0
 13 51  1  0  0  0  0
 13 52  1  0  0  0  0
 14 15  1  0  0  0  0
 14 53  1  0  0  0  0
 14 54  1  0  0  0  0
 15 17  1  0  0  0  0
 15 39  1  0  0  0  0
 15 16  1  1  0  0  0
 17 18  1  6  0  0  0
 17 19  1  0  0  0  0
 17 22  1  0  0  0  0
 19 21  1  0  0  0  0
 19 20  1  1  0  0  0
 21 55  1  0  0  0  0
 22 23  1  0  0  0  0
 23 24  1  6  0  0  0
 23 25  1  0  0  0  0
 23 34  1  0  0  0  0
 25 26  1  0  0  0  0
 26 27  1  6  0  0  0
 26 28  1  0  0  0  0
 26 30  1  0  0  0  0
 28 29  1  0  0  0  0
 28 56  1  0  0  0  0
 28 57  1  0  0  0  0
 29 58  1  0  0  0  0
 30 32  1  0  0  0  0
 30 38  1  0  0  0  0
 30 31  1  1  0  0  0
 32 33  1  6  0  0  0
 32 34  1  0  0  0  0
 32 37  1  0  0  0  0
 34 36  1  0  0  0  0
 34 35  1  6  0  0  0
 36 59  1  0  0  0  0
 37 60  1  0  0  0  0
 37 61  1  0  0  0  0
 38 62  1  0  0  0  0
 39 63  1  0  0  0  0
 39 64  1  0  0  0  0
 40 41  1  1  0  0  0
 40 42  1  0  0  0  0
 40 46  1  0  0  0  0
 42 43  1  0  0  0  0
 42 65  1  0  0  0  0
 42 66  1  0  0  0  0
 43 44  1  1  0  0  0
 43 45  1  0  0  0  0
 45 67  1  0  0  0  0
 46 68  1  0  0  0  0
 46 69  1  0  0  0  0
M  END
$$$$
