TP5
 OpenBabel04121316193D

 14 14  0  0  0  0  0  0  0  0999 V2000
    1.1175   -0.0819   -0.0232 N   0  0  0  0  0  0  0  0  0  0  0  0
    2.4604    0.0572    0.0123 C   0  0  0  0  0  0  0  0  0  0  0  0
    3.1723    0.7650   -0.7897 N   0  0  0  0  0  0  0  0  0  0  0  0
    3.1070   -0.7117    1.0523 C   0  0  0  0  0  0  0  0  0  0  0  0
    3.9455   -0.1739    2.0111 C   0  0  0  0  0  0  0  0  0  0  0  0
    4.5126   -1.3472    3.1231 S   0  0  0  0  0  0  0  0  0  0  0  0
    3.6914   -2.6021    2.3030 C   0  0  0  0  0  0  0  0  0  0  0  0
    2.9892   -2.1321    1.2167 C   0  0  0  0  0  0  0  0  0  0  0  0
    0.5614    0.5332   -0.6002 H   0  0  0  0  0  0  0  0  0  0  0  0
    0.6419   -0.4916    0.7741 H   0  0  0  0  0  0  0  0  0  0  0  0
    2.5635    1.1945   -1.4859 H   0  0  0  0  0  0  0  0  0  0  0  0
    4.2407    0.8605    2.1261 H   0  0  0  0  0  0  0  0  0  0  0  0
    3.7686   -3.6235    2.6485 H   0  0  0  0  0  0  0  0  0  0  0  0
    2.4273   -2.7709    0.5464 H   0  0  0  0  0  0  0  0  0  0  0  0
  1  2  1  0  0  0  0
  1  9  1  0  0  0  0
  1 10  1  0  0  0  0
  2  3  2  0  0  0  0
  2  4  1  0  0  0  0
  3 11  1  0  0  0  0
  4  5  2  0  0  0  0
  4  8  1  0  0  0  0
  5  6  1  0  0  0  0
  5 12  1  0  0  0  0
  6  7  1  0  0  0  0
  7  8  2  0  0  0  0
  7 13  1  0  0  0  0
  8 14  1  0  0  0  0
M  END
$$$$
