TPG
 OpenBabel04121316193D

 89 94  0  0  1  0  0  0  0  0999 V2000
    4.5997   -5.7156   -1.5721 N   0  0  0  0  0  0  0  0  0  0  0  0
    3.5818   -5.7864   -2.5996 C   0  0  0  0  0  0  0  0  0  0  0  0
    3.3155   -6.9813   -3.2668 N   0  0  0  0  0  0  0  0  0  0  0  0
    3.7224   -7.8522   -3.0614 H   0  0  0  0  0  0  0  0  0  0  0  0
    2.2079   -7.2889   -4.0237 C   0  0  0  0  0  0  0  0  0  0  0  0
    2.0754   -8.4997   -4.4082 O   0  0  0  0  0  0  0  0  0  0  0  0
    1.2689   -6.2237   -4.1793 C   0  0  0  0  0  0  0  0  0  0  0  0
    1.5824   -5.0234   -3.5567 C   0  0  0  0  0  0  0  0  0  0  0  0
    2.7621   -4.7876   -2.8738 N   0  0  0  0  0  0  0  0  0  0  0  0
    0.3374   -4.2777   -3.5515 N   0  0  0  0  0  0  0  0  0  0  0  0
   -0.4497   -4.9846   -4.4600 C   0  0  0  0  0  0  0  0  0  0  0  0
    0.0583   -6.1571   -4.7991 N   0  0  0  0  0  0  0  0  0  0  0  0
   -0.1533   -3.1005   -2.6497 C   0  0  2  0  0  0  0  0  0  0  0  0
   -0.8013   -2.5629   -3.3622 H   0  0  0  0  0  0  0  0  0  0  0  0
    1.0553   -2.4224   -2.1771 O   0  0  0  0  0  0  0  0  0  0  0  0
    1.3858   -2.7697   -0.7489 C   0  0  1  0  0  0  0  0  0  0  0  0
    1.9918   -1.9404   -0.3775 H   0  0  0  0  0  0  0  0  0  0  0  0
    0.0585   -2.9453   -0.0341 C   0  0  2  0  0  0  0  0  0  0  0  0
    0.0765   -3.8152    0.6302 H   0  0  0  0  0  0  0  0  0  0  0  0
   -1.0353   -3.0489   -1.1802 C   0  0  1  0  0  0  0  0  0  0  0  0
   -1.7434   -3.8749   -1.0092 H   0  0  0  0  0  0  0  0  0  0  0  0
   -1.9395   -1.9309   -1.0929 O   0  0  0  0  0  0  0  0  0  0  0  0
   -0.1042   -1.8244    0.8347 O   0  0  0  0  0  0  0  0  0  0  0  0
    2.3603   -3.9579   -0.6067 C   0  0  0  0  0  0  0  0  0  0  0  0
    2.4539   -4.9935    0.3361 O   0  0  0  0  0  0  0  0  0  0  0  0
    3.1397   -6.5769    0.2127 P   0  0  1  0  0  0  0  0  0  0  0  0
    3.6234   -7.3367    1.6943 O   0  0  0  0  0  0  0  0  0  0  0  0
    1.8285   -6.6301   -1.0713 O   0  0  0  0  0  0  0  0  0  0  0  0
    0.1961   -6.5848   -0.9756 P   0  0  1  0  0  0  0  0  0  0  0  0
   -0.6543   -7.4551   -1.8396 O   0  0  0  0  0  0  0  0  0  0  0  0
    0.0580   -6.1425    0.5205 O   0  0  0  0  0  0  0  0  0  0  0  0
    1.2496   -7.0021    1.1250 P   0  0  2  0  0  0  0  0  0  0  0  0
    2.4555   -6.0456    1.2511 O   0  0  0  0  0  0  0  0  0  0  0  0
    1.5245   -8.3205    0.1118 O   0  0  0  0  0  0  0  0  0  0  0  0
    2.3758   -8.9698   -0.9771 C   0  0  0  0  0  0  0  0  0  0  0  0
    4.2531   -9.2569   -1.3428 C   0  0  1  0  0  0  0  0  0  0  0  0
    4.5973   -8.8717   -2.2905 H   0  0  0  0  0  0  0  0  0  0  0  0
    5.5950   -8.8089   -0.5294 O   0  0  0  0  0  0  0  0  0  0  0  0
    6.3775   -9.9374   -0.8692 C   0  0  2  0  0  0  0  0  0  0  0  0
    6.6154   -9.7885   -1.9303 H   0  0  0  0  0  0  0  0  0  0  0  0
    5.3832  -11.1124   -0.6665 C   0  0  1  0  0  0  0  0  0  0  0  0
    5.4749  -11.4961    0.3562 H   0  0  0  0  0  0  0  0  0  0  0  0
    4.0404  -10.5704   -0.7858 C   0  0  2  0  0  0  0  0  0  0  0  0
    3.6710  -10.5085    0.2610 H   0  0  0  0  0  0  0  0  0  0  0  0
    3.0925  -11.0326   -1.7285 O   0  0  0  0  0  0  0  0  0  0  0  0
    5.3432  -12.1229   -1.6310 O   0  0  0  0  0  0  0  0  0  0  0  0
    7.6227  -10.1805   -0.1899 N   0  0  0  0  0  0  0  0  0  0  0  0
    8.2581   -9.5456    0.9710 C   0  0  0  0  0  0  0  0  0  0  0  0
    9.5329  -10.3406    1.0730 N   0  0  0  0  0  0  0  0  0  0  0  0
    9.5228  -11.3054    0.0439 C   0  0  0  0  0  0  0  0  0  0  0  0
    8.4082  -11.2093   -0.6908 C   0  0  0  0  0  0  0  0  0  0  0  0
    8.0482  -11.9830   -1.7544 N   0  0  0  0  0  0  0  0  0  0  0  0
    8.8525  -12.9165   -2.1533 C   0  0  0  0  0  0  0  0  0  0  0  0
   10.0313  -13.1118   -1.4695 N   0  0  0  0  0  0  0  0  0  0  0  0
   10.6612  -13.8376   -1.7513 H   0  0  0  0  0  0  0  0  0  0  0  0
   10.4549  -12.3736   -0.3744 C   0  0  0  0  0  0  0  0  0  0  0  0
   11.5213  -12.6123    0.1817 O   0  0  0  0  0  0  0  0  0  0  0  0
    8.5199  -13.7090   -3.2461 N   0  0  0  0  0  0  0  0  0  0  0  0
    7.2712  -13.4915   -3.9981 C   0  0  0  0  0  0  0  0  0  0  0  0
    9.3320  -14.7904   -3.7834 C   0  0  0  0  0  0  0  0  0  0  0  0
   10.5644  -10.1264    2.0833 C   0  0  0  0  0  0  0  0  0  0  0  0
   -0.1012   -8.0736    0.9837 O   0  0  0  0  0  0  0  0  0  0  0  0
   -0.2962   -5.1752   -1.3567 O   0  0  0  0  0  0  0  0  0  0  0  0
    3.8256   -8.1604    0.0894 O   0  0  0  0  0  0  0  0  0  0  0  0
    5.0819   -6.5326   -1.1532 H   0  0  0  0  0  0  0  0  0  0  0  0
    4.5348   -5.0047   -0.8134 H   0  0  0  0  0  0  0  0  0  0  0  0
   -1.3978   -4.6199   -4.8296 H   0  0  0  0  0  0  0  0  0  0  0  0
   -1.4230   -1.1171   -1.1057 H   0  0  0  0  0  0  0  0  0  0  0  0
    0.0259   -1.0315    0.2942 H   0  0  0  0  0  0  0  0  0  0  0  0
    3.2966   -3.6933   -1.0785 H   0  0  0  0  0  0  0  0  0  0  0  0
    1.8197   -4.5761   -1.2113 H   0  0  0  0  0  0  0  0  0  0  0  0
    2.4838   -9.4300    0.0014 H   0  0  0  0  0  0  0  0  0  0  0  0
    2.5887   -8.1156   -1.5353 H   0  0  0  0  0  0  0  0  0  0  0  0
    2.6664  -11.8058   -1.3625 H   0  0  0  0  0  0  0  0  0  0  0  0
    6.2652  -12.3996   -1.6831 H   0  0  0  0  0  0  0  0  0  0  0  0
    7.6365   -9.6601    1.8668 H   0  0  0  0  0  0  0  0  0  0  0  0
    8.4498   -8.4804    0.7907 H   0  0  0  0  0  0  0  0  0  0  0  0
    6.6760  -12.6608   -3.6189 H   0  0  0  0  0  0  0  0  0  0  0  0
    6.6383  -14.3866   -3.9655 H   0  0  0  0  0  0  0  0  0  0  0  0
    7.4799  -13.2558   -5.0478 H   0  0  0  0  0  0  0  0  0  0  0  0
   10.2605  -14.9445   -3.2349 H   0  0  0  0  0  0  0  0  0  0  0  0
    9.6077  -14.5865   -4.8242 H   0  0  0  0  0  0  0  0  0  0  0  0
    8.7815  -15.7371   -3.7488 H   0  0  0  0  0  0  0  0  0  0  0  0
   10.3321   -9.3044    2.7743 H   0  0  0  0  0  0  0  0  0  0  0  0
   11.5394   -9.8865    1.6348 H   0  0  0  0  0  0  0  0  0  0  0  0
   10.7254  -11.0181    2.7061 H   0  0  0  0  0  0  0  0  0  0  0  0
    0.1413   -8.9314    1.3820 H   0  0  0  0  0  0  0  0  0  0  0  0
    0.4608   -4.7971   -1.7543 H   0  0  0  0  0  0  0  0  0  0  0  0
    4.5143   -8.2020    0.7973 H   0  0  0  0  0  0  0  0  0  0  0  0
  1  2  1  0  0  0  0
  1 65  1  0  0  0  0
  1 66  1  0  0  0  0
  2  3  1  0  0  0  0
  2  9  2  0  0  0  0
  3  4  1  0  0  0  0
  3  5  1  0  0  0  0
  5  6  2  0  0  0  0
  5  7  1  0  0  0  0
  7  8  2  0  0  0  0
  7 12  1  0  0  0  0
  8  9  1  0  0  0  0
  8 10  1  0  0  0  0
 10 11  1  0  0  0  0
 11 12  2  0  0  0  0
 11 67  1  0  0  0  0
 13 15  1  0  0  0  0
 13 20  1  0  0  0  0
 13 14  1  6  0  0  0
 13 10  1  0  0  0  0
 15 16  1  0  0  0  0
 16 17  1  1  0  0  0
 16 18  1  0  0  0  0
 16 24  1  0  0  0  0
 18 20  1  0  0  0  0
 18 23  1  0  0  0  0
 18 19  1  1  0  0  0
 20 22  1  0  0  0  0
 20 21  1  1  0  0  0
 22 68  1  0  0  0  0
 23 69  1  0  0  0  0
 24 25  1  0  0  0  0
 24 70  1  0  0  0  0
 24 71  1  0  0  0  0
 26 25  1  6  0  0  0
 26 27  2  0  0  0  0
 26 28  1  0  0  0  0
 26 64  1  0  0  0  0
 29 28  1  6  0  0  0
 29 30  2  0  0  0  0
 29 31  1  0  0  0  0
 29 63  1  0  0  0  0
 32 34  1  6  0  0  0
 32 62  1  0  0  0  0
 32 33  2  0  0  0  0
 32 31  1  0  0  0  0
 34 35  1  0  0  0  0
 35 36  1  0  0  0  0
 35 72  1  0  0  0  0
 35 73  1  0  0  0  0
 36 37  1  6  0  0  0
 36 38  1  0  0  0  0
 36 43  1  0  0  0  0
 38 39  1  0  0  0  0
 39 41  1  0  0  0  0
 39 47  1  0  0  0  0
 39 40  1  6  0  0  0
 41 42  1  1  0  0  0
 41 43  1  0  0  0  0
 41 46  1  0  0  0  0
 43 44  1  1  0  0  0
 43 45  1  0  0  0  0
 45 74  1  0  0  0  0
 46 75  1  0  0  0  0
 47 48  1  0  0  0  0
 47 51  1  0  0  0  0
 48 49  1  0  0  0  0
 48 76  1  0  0  0  0
 48 77  1  0  0  0  0
 49 50  1  0  0  0  0
 49 61  1  0  0  0  0
 50 51  2  0  0  0  0
 50 56  1  0  0  0  0
 51 52  1  0  0  0  0
 52 53  2  0  0  0  0
 53 54  1  0  0  0  0
 53 58  1  0  0  0  0
 54 55  1  0  0  0  0
 54 56  1  0  0  0  0
 56 57  2  0  0  0  0
 58 59  1  0  0  0  0
 58 60  1  0  0  0  0
 59 78  1  0  0  0  0
 59 79  1  0  0  0  0
 59 80  1  0  0  0  0
 60 81  1  0  0  0  0
 60 82  1  0  0  0  0
 60 83  1  0  0  0  0
 61 84  1  0  0  0  0
 61 85  1  0  0  0  0
 61 86  1  0  0  0  0
 62 87  1  0  0  0  0
 63 88  1  0  0  0  0
 64 89  1  0  0  0  0
M  END
$$$$
