TPI
 OpenBabel04121316193D

 46 47  0  0  1  0  0  0  0  0999 V2000
    1.0759   -0.1148    0.1781 O   0  0  0  0  0  0  0  0  0  0  0  0
    2.3982   -0.0270   -0.0916 C   0  0  0  0  0  0  0  0  0  0  0  0
    2.8555   -0.2889   -1.1816 O   0  0  0  0  0  0  0  0  0  0  0  0
    3.1445    0.2404    1.1759 C   0  0  0  0  0  0  0  0  0  0  0  0
    4.6556    0.1658    1.0222 C   0  0  0  0  0  0  0  0  0  0  0  0
    5.3916    0.3617    2.3529 C   0  0  1  0  0  0  0  0  0  0  0  0
    5.1272    1.3275    2.8028 H   0  0  0  0  0  0  0  0  0  0  0  0
    5.0730   -0.7770    3.3687 C   0  0  0  0  0  0  0  0  0  0  0  0
    5.8534   -1.6772    3.6730 O   0  0  0  0  0  0  0  0  0  0  0  0
    3.8158   -0.7877    3.9024 N   0  0  0  0  0  0  0  0  0  0  0  0
    6.8243    0.3796    2.1192 N   0  0  0  0  0  0  0  0  0  0  0  0
    7.6533    0.6531    3.1782 C   0  0  0  0  0  0  0  0  0  0  0  0
    7.2934    0.9957    4.2929 O   0  0  0  0  0  0  0  0  0  0  0  0
    9.0738    0.5374    2.8872 C   0  0  0  0  0  0  0  0  0  0  0  0
    9.7810    1.7231    2.7084 C   0  0  0  0  0  0  0  0  0  0  0  0
   11.1521    1.6597    2.5524 C   0  0  0  0  0  0  0  0  0  0  0  0
   11.7848    0.4099    2.5567 C   0  0  0  0  0  0  0  0  0  0  0  0
   11.0477   -0.7926    2.6240 C   0  0  0  0  0  0  0  0  0  0  0  0
    9.6776   -0.7203    2.8425 C   0  0  0  0  0  0  0  0  0  0  0  0
   11.6900   -2.0205    2.4184 C   0  0  0  0  0  0  0  0  0  0  0  0
   13.0065   -2.0397    1.9808 C   0  0  0  0  0  0  0  0  0  0  0  0
   13.7599   -0.8730    2.0531 C   0  0  0  0  0  0  0  0  0  0  0  0
   13.1586    0.3315    2.4514 C   0  0  0  0  0  0  0  0  0  0  0  0
   15.1817   -0.8314    1.5938 C   0  0  0  0  0  0  0  0  0  0  0  0
   15.6007    0.2491    0.1775 P   0  0  0  0  0  0  0  0  0  0  0  0
   15.4167   -0.8823   -0.8437 O   0  0  0  0  0  0  0  0  0  0  0  0
   14.1914    1.0991    0.2012 O   0  0  0  0  0  0  0  0  0  0  0  0
   15.9969    1.2705   -1.1614 O   0  0  0  0  0  0  0  0  0  0  0  0
   16.0054   -0.2713    2.5339 F   0  0  0  0  0  0  0  0  0  0  0  0
   15.7439   -2.0393    1.3091 F   0  0  0  0  0  0  0  0  0  0  0  0
    0.6918   -0.5934   -0.5836 H   0  0  0  0  0  0  0  0  0  0  0  0
    2.8079   -0.5756    1.8166 H   0  0  0  0  0  0  0  0  0  0  0  0
    2.8401    1.2009    1.6043 H   0  0  0  0  0  0  0  0  0  0  0  0
    4.9855    0.9233    0.2983 H   0  0  0  0  0  0  0  0  0  0  0  0
    4.9327   -0.8053    0.5913 H   0  0  0  0  0  0  0  0  0  0  0  0
    3.1169   -0.0783    3.7379 H   0  0  0  0  0  0  0  0  0  0  0  0
    3.5889   -1.5505    4.5253 H   0  0  0  0  0  0  0  0  0  0  0  0
    7.2107    0.1161    1.2204 H   0  0  0  0  0  0  0  0  0  0  0  0
    9.2648    2.6783    2.7217 H   0  0  0  0  0  0  0  0  0  0  0  0
   11.7121    2.5804    2.3989 H   0  0  0  0  0  0  0  0  0  0  0  0
    9.0846   -1.6229    2.9681 H   0  0  0  0  0  0  0  0  0  0  0  0
   11.1535   -2.9591    2.5236 H   0  0  0  0  0  0  0  0  0  0  0  0
   13.4357   -2.9548    1.5772 H   0  0  0  0  0  0  0  0  0  0  0  0
   13.7514    1.2471    2.5066 H   0  0  0  0  0  0  0  0  0  0  0  0
   13.4222    0.5810   -0.1110 H   0  0  0  0  0  0  0  0  0  0  0  0
   16.7750    0.8932   -1.6119 H   0  0  0  0  0  0  0  0  0  0  0  0
  1  2  1  0  0  0  0
  1 31  1  0  0  0  0
  2  3  2  0  0  0  0
  2  4  1  0  0  0  0
  4  5  1  0  0  0  0
  4 32  1  0  0  0  0
  4 33  1  0  0  0  0
  5  6  1  0  0  0  0
  5 34  1  0  0  0  0
  5 35  1  0  0  0  0
  6  7  1  1  0  0  0
  6  8  1  0  0  0  0
  6 11  1  0  0  0  0
  8  9  2  0  0  0  0
  8 10  1  0  0  0  0
 10 36  1  0  0  0  0
 10 37  1  0  0  0  0
 11 12  1  0  0  0  0
 11 38  1  0  0  0  0
 12 13  2  0  0  0  0
 12 14  1  0  0  0  0
 14 15  2  0  0  0  0
 14 19  1  0  0  0  0
 15 16  1  0  0  0  0
 15 39  1  0  0  0  0
 16 17  2  0  0  0  0
 16 40  1  0  0  0  0
 17 18  1  0  0  0  0
 17 23  1  0  0  0  0
 18 19  2  0  0  0  0
 18 20  1  0  0  0  0
 19 41  1  0  0  0  0
 20 21  2  0  0  0  0
 20 42  1  0  0  0  0
 21 22  1  0  0  0  0
 21 43  1  0  0  0  0
 22 23  2  0  0  0  0
 22 24  1  0  0  0  0
 23 44  1  0  0  0  0
 24 25  1  0  0  0  0
 24 29  1  0  0  0  0
 24 30  1  0  0  0  0
 25 26  2  0  0  0  0
 25 27  1  0  0  0  0
 25 28  1  0  0  0  0
 27 45  1  0  0  0  0
 28 46  1  0  0  0  0
M  END
$$$$
