TPO
 OpenBabel04121316193D

 22 21  0  0  1  0  0  0  0  0999 V2000
    5.4514   -2.8627   -1.6619 O   0  0  0  0  0  0  0  0  0  0  0  0
    4.3875   -2.0401   -1.7521 C   0  0  0  0  0  0  0  0  0  0  0  0
    4.5456   -0.8733   -2.1215 O   0  0  0  0  0  0  0  0  0  0  0  0
    3.0328   -2.5685   -1.2434 C   0  0  2  0  0  0  0  0  0  0  0  0
    2.3026   -2.0053   -1.8379 H   0  0  0  0  0  0  0  0  0  0  0  0
    2.6914   -2.2976    0.2489 C   0  0  2  0  0  0  0  0  0  0  0  0
    2.8163   -1.2486    0.5308 H   0  0  0  0  0  0  0  0  0  0  0  0
    3.4558   -3.1174    1.1242 O   0  0  0  0  0  0  0  0  0  0  0  0
    5.0208   -3.0618    1.5174 P   0  0  0  0  0  0  0  0  0  0  0  0
    5.1941   -4.1633    0.4662 O   0  0  0  0  0  0  0  0  0  0  0  0
    4.8913   -1.4761    1.1596 O   0  0  0  0  0  0  0  0  0  0  0  0
    6.5108   -2.6892    1.0500 O   0  0  0  0  0  0  0  0  0  0  0  0
    1.1959   -2.5720    0.5275 C   0  0  0  0  0  0  0  0  0  0  0  0
    2.8932   -4.0005   -1.5955 N   0  0  0  0  0  0  0  0  0  0  0  0
    5.2846   -3.6676   -1.1098 H   0  0  0  0  0  0  0  0  0  0  0  0
    4.9971   -1.2049    0.2277 H   0  0  0  0  0  0  0  0  0  0  0  0
    6.9969   -3.4977    0.7874 H   0  0  0  0  0  0  0  0  0  0  0  0
    0.9546   -2.4485    1.5902 H   0  0  0  0  0  0  0  0  0  0  0  0
    0.8867   -3.5896    0.2662 H   0  0  0  0  0  0  0  0  0  0  0  0
    0.5771   -1.8698   -0.0422 H   0  0  0  0  0  0  0  0  0  0  0  0
    1.9292   -4.2803   -1.4133 H   0  0  0  0  0  0  0  0  0  0  0  0
    3.4451   -4.5449   -0.9262 H   0  0  0  0  0  0  0  0  0  0  0  0
  1  2  1  0  0  0  0
  1 15  1  0  0  0  0
  2  3  2  0  0  0  0
  4 14  1  0  0  0  0
  4  5  1  6  0  0  0
  4  2  1  0  0  0  0
  6  8  1  0  0  0  0
  6 13  1  0  0  0  0
  6  7  1  1  0  0  0
  6  4  1  0  0  0  0
  8  9  1  0  0  0  0
  9 10  2  0  0  0  0
  9 11  1  0  0  0  0
  9 12  1  0  0  0  0
 11 16  1  0  0  0  0
 12 17  1  0  0  0  0
 13 18  1  0  0  0  0
 13 19  1  0  0  0  0
 13 20  1  0  0  0  0
 14 21  1  0  0  0  0
 14 22  1  0  0  0  0
M  END
$$$$
