TR1
 OpenBabel04121316193D

 63 64  0  0  1  0  0  0  0  0999 V2000
   -4.5835   -1.6627   -2.7740 S   0  0  0  0  0  0  0  0  0  0  0  0
   -4.1535   -2.1729   -1.0575 C   0  0  0  0  0  0  0  0  0  0  0  0
   -2.7166   -1.7786   -0.6443 C   0  0  1  0  0  0  0  0  0  0  0  0
   -1.9917   -2.1488   -1.3751 H   0  0  0  0  0  0  0  0  0  0  0  0
   -2.5750   -0.2691   -0.5949 C   0  0  0  0  0  0  0  0  0  0  0  0
   -2.2551    0.3470    0.4276 O   0  0  0  0  0  0  0  0  0  0  0  0
   -2.7364    0.3969   -1.7725 N   0  0  0  0  0  0  0  0  0  0  0  0
   -2.8611    1.8059   -1.6790 C   0  0  0  0  0  0  0  0  0  0  0  0
   -3.1941    2.5456   -2.9295 C   0  0  0  0  0  0  0  0  0  0  0  0
   -3.4651    1.9834   -3.9876 O   0  0  0  0  0  0  0  0  0  0  0  0
   -3.3112    3.9002   -2.7929 N   0  0  0  0  0  0  0  0  0  0  0  0
   -2.7809    4.7850   -1.7124 C   0  0  2  0  0  0  0  0  0  0  0  0
   -1.6831    4.7499   -1.7646 H   0  0  0  0  0  0  0  0  0  0  0  0
   -3.2135    4.4959   -0.2241 C   0  0  0  0  0  0  0  0  0  0  0  0
   -4.0886    5.0914    0.3912 O   0  0  0  0  0  0  0  0  0  0  0  0
   -2.5666    3.4413    0.3342 O   0  0  0  0  0  0  0  0  0  0  0  0
   -3.3527    2.8272    1.3667 C   0  0  0  0  0  0  0  0  0  0  0  0
   -3.2692    6.2357   -2.0068 C   0  0  0  0  0  0  0  0  0  0  0  0
   -2.7063    6.8098   -3.3100 C   0  0  0  0  0  0  0  0  0  0  0  0
   -4.8089    6.3067   -2.0667 C   0  0  0  0  0  0  0  0  0  0  0  0
   -2.3925   -2.3627    0.6763 N   0  0  0  0  0  0  0  0  0  0  0  0
   -1.0503   -1.9861    1.1589 C   0  0  0  0  0  0  0  0  0  0  0  0
   -0.7400   -2.5595    2.5126 C   0  0  0  0  0  0  0  0  0  0  0  0
    0.4715   -2.2133    3.1263 C   0  0  0  0  0  0  0  0  0  0  0  0
    0.8729   -2.8872    4.2690 C   0  0  0  0  0  0  0  0  0  0  0  0
    0.0149   -3.8164    4.8741 C   0  0  0  0  0  0  0  0  0  0  0  0
   -1.2637   -4.0202    4.3579 C   0  0  0  0  0  0  0  0  0  0  0  0
   -1.6197   -3.4310    3.1612 C   0  0  0  0  0  0  0  0  0  0  0  0
    0.4825   -4.6196    5.9874 C   0  0  0  0  0  0  0  0  0  0  0  0
    0.8110   -4.0213    7.2051 C   0  0  0  0  0  0  0  0  0  0  0  0
    1.4391   -4.7684    8.1937 C   0  0  0  0  0  0  0  0  0  0  0  0
    1.6288   -6.1387    8.0153 C   0  0  0  0  0  0  0  0  0  0  0  0
    1.1859   -6.7669    6.8533 C   0  0  0  0  0  0  0  0  0  0  0  0
    0.6648   -6.0004    5.8191 C   0  0  0  0  0  0  0  0  0  0  0  0
   -5.8971   -1.9137   -2.7498 H   0  0  0  0  0  0  0  0  0  0  0  0
   -4.2528   -3.2620   -1.0439 H   0  0  0  0  0  0  0  0  0  0  0  0
   -4.8930   -1.7617   -0.3567 H   0  0  0  0  0  0  0  0  0  0  0  0
   -3.2294   -0.0569   -2.5360 H   0  0  0  0  0  0  0  0  0  0  0  0
   -1.8999    2.1673   -1.3075 H   0  0  0  0  0  0  0  0  0  0  0  0
   -3.7156    1.9852   -1.0176 H   0  0  0  0  0  0  0  0  0  0  0  0
   -3.4852    4.3157   -3.7008 H   0  0  0  0  0  0  0  0  0  0  0  0
   -3.0578    1.7999    1.5161 H   0  0  0  0  0  0  0  0  0  0  0  0
   -4.4142    2.7764    1.0875 H   0  0  0  0  0  0  0  0  0  0  0  0
   -3.1762    3.3239    2.3140 H   0  0  0  0  0  0  0  0  0  0  0  0
   -2.9187    6.8817   -1.1900 H   0  0  0  0  0  0  0  0  0  0  0  0
   -3.0521    6.2542   -4.1871 H   0  0  0  0  0  0  0  0  0  0  0  0
   -1.6129    6.8045   -3.3095 H   0  0  0  0  0  0  0  0  0  0  0  0
   -3.0422    7.8450   -3.4372 H   0  0  0  0  0  0  0  0  0  0  0  0
   -5.2039    5.6998   -2.8865 H   0  0  0  0  0  0  0  0  0  0  0  0
   -5.1438    7.3371   -2.1970 H   0  0  0  0  0  0  0  0  0  0  0  0
   -5.2985    5.9444   -1.1620 H   0  0  0  0  0  0  0  0  0  0  0  0
   -2.4205   -3.3764    0.6007 H   0  0  0  0  0  0  0  0  0  0  0  0
   -0.8968   -0.9164    1.3007 H   0  0  0  0  0  0  0  0  0  0  0  0
   -0.2971   -2.3283    0.4405 H   0  0  0  0  0  0  0  0  0  0  0  0
    1.1156   -1.4442    2.7036 H   0  0  0  0  0  0  0  0  0  0  0  0
    1.8706   -2.7177    4.6686 H   0  0  0  0  0  0  0  0  0  0  0  0
   -1.9733   -4.6694    4.8619 H   0  0  0  0  0  0  0  0  0  0  0  0
   -2.5910   -3.6681    2.7407 H   0  0  0  0  0  0  0  0  0  0  0  0
    0.5966   -2.9671    7.3660 H   0  0  0  0  0  0  0  0  0  0  0  0
    1.7816   -4.2780    9.0992 H   0  0  0  0  0  0  0  0  0  0  0  0
    2.1224   -6.7195    8.7876 H   0  0  0  0  0  0  0  0  0  0  0  0
    1.2657   -7.8436    6.7407 H   0  0  0  0  0  0  0  0  0  0  0  0
    0.4194   -6.4716    4.8682 H   0  0  0  0  0  0  0  0  0  0  0  0
  1  2  1  0  0  0  0
  1 35  1  0  0  0  0
  2  3  1  0  0  0  0
  2 36  1  0  0  0  0
  2 37  1  0  0  0  0
  3  4  1  6  0  0  0
  3  5  1  0  0  0  0
  3 21  1  0  0  0  0
  5  6  2  0  0  0  0
  5  7  1  0  0  0  0
  7  8  1  0  0  0  0
  7 38  1  0  0  0  0
  8  9  1  0  0  0  0
  8 39  1  0  0  0  0
  8 40  1  0  0  0  0
  9 10  2  0  0  0  0
  9 11  1  0  0  0  0
 11 41  1  0  0  0  0
 12 14  1  0  0  0  0
 12 18  1  0  0  0  0
 12 13  1  6  0  0  0
 12 11  1  0  0  0  0
 14 15  2  0  0  0  0
 14 16  1  0  0  0  0
 16 17  1  0  0  0  0
 17 42  1  0  0  0  0
 17 43  1  0  0  0  0
 17 44  1  0  0  0  0
 18 19  1  0  0  0  0
 18 20  1  0  0  0  0
 18 45  1  0  0  0  0
 19 46  1  0  0  0  0
 19 47  1  0  0  0  0
 19 48  1  0  0  0  0
 20 49  1  0  0  0  0
 20 50  1  0  0  0  0
 20 51  1  0  0  0  0
 21 22  1  0  0  0  0
 21 52  1  0  0  0  0
 22 23  1  0  0  0  0
 22 53  1  0  0  0  0
 22 54  1  0  0  0  0
 23 24  2  0  0  0  0
 23 28  1  0  0  0  0
 24 25  1  0  0  0  0
 24 55  1  0  0  0  0
 25 26  2  0  0  0  0
 25 56  1  0  0  0  0
 26 27  1  0  0  0  0
 26 29  1  0  0  0  0
 27 28  2  0  0  0  0
 27 57  1  0  0  0  0
 28 58  1  0  0  0  0
 29 30  2  0  0  0  0
 29 34  1  0  0  0  0
 30 31  1  0  0  0  0
 30 59  1  0  0  0  0
 31 32  2  0  0  0  0
 31 60  1  0  0  0  0
 32 33  1  0  0  0  0
 32 61  1  0  0  0  0
 33 34  2  0  0  0  0
 33 62  1  0  0  0  0
 34 63  1  0  0  0  0
M  END
$$$$
