TR2
 OpenBabel04121316193D

 15 16  0  0  0  0  0  0  0  0999 V2000
    0.9763   -0.0038   -0.0411 O   0  0  0  0  0  0  0  0  0  0  0  0
    2.3457    0.0156   -0.0388 C   0  0  0  0  0  0  0  0  0  0  0  0
    3.0888   -1.1541   -0.0376 C   0  0  0  0  0  0  0  0  0  0  0  0
    4.4691   -1.0505   -0.0336 C   0  0  0  0  0  0  0  0  0  0  0  0
    5.1711    0.1031   -0.0323 N   0  0  0  0  0  0  0  0  0  0  0  0
    4.4273    1.2446   -0.0345 C   0  0  0  0  0  0  0  0  0  0  0  0
    3.0316    1.2372   -0.0372 C   0  0  0  0  0  0  0  0  0  0  0  0
    2.3957    2.8344   -0.0376 S   0  0  0  0  0  0  0  0  0  0  0  0
    3.9538    3.5284   -0.0352 C   0  0  0  0  0  0  0  0  0  0  0  0
    4.9467    2.5755   -0.0341 C   0  0  0  0  0  0  0  0  0  0  0  0
    0.6602   -0.9205   -0.0391 H   0  0  0  0  0  0  0  0  0  0  0  0
    2.6191   -2.1310   -0.0394 H   0  0  0  0  0  0  0  0  0  0  0  0
    5.0817   -1.9500   -0.0308 H   0  0  0  0  0  0  0  0  0  0  0  0
    4.0581    4.6044   -0.0346 H   0  0  0  0  0  0  0  0  0  0  0  0
    6.0022    2.8146   -0.0327 H   0  0  0  0  0  0  0  0  0  0  0  0
  1  2  1  0  0  0  0
  1 11  1  0  0  0  0
  2  3  2  0  0  0  0
  2  7  1  0  0  0  0
  3  4  1  0  0  0  0
  3 12  1  0  0  0  0
  4  5  2  0  0  0  0
  4 13  1  0  0  0  0
  5  6  1  0  0  0  0
  6  7  2  0  0  0  0
  6 10  1  0  0  0  0
  7  8  1  0  0  0  0
  8  9  1  0  0  0  0
  9 10  2  0  0  0  0
  9 14  1  0  0  0  0
 10 15  1  0  0  0  0
M  END
$$$$
