TRC
 OpenBabel04121316193D

 20 19  0  0  0  0  0  0  0  0999 V2000
    1.0005   -0.0595    0.1679 O   0  0  0  0  0  0  0  0  0  0  0  0
    2.3350    0.0387    0.1555 C   0  0  0  0  0  0  0  0  0  0  0  0
    2.9154    0.7704    0.9468 O   0  0  0  0  0  0  0  0  0  0  0  0
    2.9942   -0.9123   -0.8338 C   0  0  0  0  0  0  0  0  0  0  0  0
    2.5295   -0.6437   -2.2804 C   0  0  0  0  0  0  0  0  0  0  0  0
    1.0714   -0.9918   -2.5229 C   0  0  0  0  0  0  0  0  0  0  0  0
    0.3328   -1.5762   -1.7432 O   0  0  0  0  0  0  0  0  0  0  0  0
    0.6454   -0.6598   -3.7620 O   0  0  0  0  0  0  0  0  0  0  0  0
    4.5304   -0.7878   -0.6761 C   0  0  0  0  0  0  0  0  0  0  0  0
    5.2834   -1.7868   -1.5244 C   0  0  0  0  0  0  0  0  0  0  0  0
    4.7577   -2.6387   -2.2239 O   0  0  0  0  0  0  0  0  0  0  0  0
    6.6252   -1.6570   -1.4651 O   0  0  0  0  0  0  0  0  0  0  0  0
    0.6262    0.3173    0.9867 H   0  0  0  0  0  0  0  0  0  0  0  0
    2.7086   -1.9290   -0.5323 H   0  0  0  0  0  0  0  0  0  0  0  0
    3.0790   -1.2732   -2.9871 H   0  0  0  0  0  0  0  0  0  0  0  0
    2.7274    0.4000   -2.5491 H   0  0  0  0  0  0  0  0  0  0  0  0
    1.3463   -0.3628   -4.3699 H   0  0  0  0  0  0  0  0  0  0  0  0
    4.8077   -0.9723    0.3709 H   0  0  0  0  0  0  0  0  0  0  0  0
    4.8533    0.2276   -0.9369 H   0  0  0  0  0  0  0  0  0  0  0  0
    6.9599   -0.9777   -0.8507 H   0  0  0  0  0  0  0  0  0  0  0  0
  1  2  1  0  0  0  0
  1 13  1  0  0  0  0
  2  3  2  0  0  0  0
  2  4  1  0  0  0  0
  4  5  1  0  0  0  0
  4  9  1  0  0  0  0
  4 14  1  0  0  0  0
  5  6  1  0  0  0  0
  5 15  1  0  0  0  0
  5 16  1  0  0  0  0
  6  7  2  0  0  0  0
  6  8  1  0  0  0  0
  8 17  1  0  0  0  0
  9 10  1  0  0  0  0
  9 18  1  0  0  0  0
  9 19  1  0  0  0  0
 10 11  2  0  0  0  0
 10 12  1  0  0  0  0
 12 20  1  0  0  0  0
M  END
$$$$
