TRE
 OpenBabel04121316193D

 45 46  0  0  1  0  0  0  0  0999 V2000
    0.9763   -0.0604    0.2981 O   0  0  0  0  0  0  0  0  0  0  0  0
    2.3675   -0.1136    0.0128 C   0  0  0  0  0  0  0  0  0  0  0  0
    2.8410    1.0414   -0.9115 C   0  0  1  0  0  0  0  0  0  0  0  0
    3.5879    0.6105   -1.5927 H   0  0  0  0  0  0  0  0  0  0  0  0
    1.8108    1.5859   -1.7707 O   0  0  0  0  0  0  0  0  0  0  0  0
    0.8590    2.4302   -1.1136 C   0  0  2  0  0  0  0  0  0  0  0  0
    0.2403    1.8142   -0.4656 H   0  0  0  0  0  0  0  0  0  0  0  0
   -0.0258    2.9950   -2.0811 O   0  0  0  0  0  0  0  0  0  0  0  0
   -1.1601    3.6150   -1.4550 C   0  0  1  0  0  0  0  0  0  0  0  0
   -1.0897    3.5955   -0.3618 H   0  0  0  0  0  0  0  0  0  0  0  0
   -1.2120    4.9813   -1.8587 O   0  0  0  0  0  0  0  0  0  0  0  0
   -1.3479    5.1248   -3.2798 C   0  0  2  0  0  0  0  0  0  0  0  0
   -0.4642    4.6964   -3.7716 H   0  0  0  0  0  0  0  0  0  0  0  0
   -1.3508    6.6221   -3.6227 C   0  0  0  0  0  0  0  0  0  0  0  0
   -1.4182    6.8705   -5.0218 O   0  0  0  0  0  0  0  0  0  0  0  0
   -2.6086    4.3925   -3.7793 C   0  0  2  0  0  0  0  0  0  0  0  0
   -3.5026    4.8757   -3.3657 H   0  0  0  0  0  0  0  0  0  0  0  0
   -2.5882    2.9219   -3.3375 C   0  0  1  0  0  0  0  0  0  0  0  0
   -1.7750    2.3882   -3.8447 H   0  0  0  0  0  0  0  0  0  0  0  0
   -2.4202    2.8301   -1.8256 C   0  0  1  0  0  0  0  0  0  0  0  0
   -3.2961    3.2522   -1.3193 H   0  0  0  0  0  0  0  0  0  0  0  0
   -2.2859    1.4704   -1.3840 O   0  0  0  0  0  0  0  0  0  0  0  0
   -3.7899    2.2759   -3.7630 O   0  0  0  0  0  0  0  0  0  0  0  0
   -2.7359    4.3962   -5.2045 O   0  0  0  0  0  0  0  0  0  0  0  0
    1.5153    3.5803   -0.3217 C   0  0  1  0  0  0  0  0  0  0  0  0
    0.7615    4.1242    0.2527 H   0  0  0  0  0  0  0  0  0  0  0  0
    2.5375    3.0112    0.6461 C   0  0  2  0  0  0  0  0  0  0  0  0
    3.0600    3.8451    1.1237 H   0  0  0  0  0  0  0  0  0  0  0  0
    3.5590    2.1397   -0.0976 C   0  0  2  0  0  0  0  0  0  0  0  0
    4.2426    1.6788    0.6222 H   0  0  0  0  0  0  0  0  0  0  0  0
    4.3863    2.9038   -0.9837 O   0  0  0  0  0  0  0  0  0  0  0  0
    1.8810    2.2843    1.6963 O   0  0  0  0  0  0  0  0  0  0  0  0
    2.0990    4.5510   -1.2024 O   0  0  0  0  0  0  0  0  0  0  0  0
    0.7354   -0.8945    0.7574 H   0  0  0  0  0  0  0  0  0  0  0  0
    2.6095   -1.0841   -0.4306 H   0  0  0  0  0  0  0  0  0  0  0  0
    2.8847   -0.0709    0.9777 H   0  0  0  0  0  0  0  0  0  0  0  0
   -0.4394    7.0978   -3.2425 H   0  0  0  0  0  0  0  0  0  0  0  0
   -2.1918    7.1271   -3.1381 H   0  0  0  0  0  0  0  0  0  0  0  0
   -0.7589    6.3226   -5.4691 H   0  0  0  0  0  0  0  0  0  0  0  0
   -1.5712    1.0667   -1.9104 H   0  0  0  0  0  0  0  0  0  0  0  0
   -3.8991    2.5265   -4.7014 H   0  0  0  0  0  0  0  0  0  0  0  0
   -1.8759    4.1671   -5.5889 H   0  0  0  0  0  0  0  0  0  0  0  0
    4.5193    3.7882   -0.5977 H   0  0  0  0  0  0  0  0  0  0  0  0
    1.2983    1.5929    1.3201 H   0  0  0  0  0  0  0  0  0  0  0  0
    1.4848    4.6204   -1.9605 H   0  0  0  0  0  0  0  0  0  0  0  0
  1  2  1  0  0  0  0
  1 34  1  0  0  0  0
  2  3  1  0  0  0  0
  2 35  1  0  0  0  0
  2 36  1  0  0  0  0
  3  4  1  6  0  0  0
  3  5  1  0  0  0  0
  3 29  1  0  0  0  0
  5  6  1  0  0  0  0
  6  7  1  1  0  0  0
  6  8  1  0  0  0  0
  6 25  1  0  0  0  0
  8  9  1  0  0  0  0
  9 10  1  1  0  0  0
  9 11  1  0  0  0  0
  9 20  1  0  0  0  0
 11 12  1  0  0  0  0
 12 13  1  6  0  0  0
 12 14  1  0  0  0  0
 12 16  1  0  0  0  0
 14 15  1  0  0  0  0
 14 37  1  0  0  0  0
 14 38  1  0  0  0  0
 15 39  1  0  0  0  0
 16 18  1  0  0  0  0
 16 24  1  0  0  0  0
 16 17  1  1  0  0  0
 18 19  1  6  0  0  0
 18 20  1  0  0  0  0
 18 23  1  0  0  0  0
 20 22  1  0  0  0  0
 20 21  1  1  0  0  0
 22 40  1  0  0  0  0
 23 41  1  0  0  0  0
 24 42  1  0  0  0  0
 25 26  1  1  0  0  0
 25 27  1  0  0  0  0
 25 33  1  0  0  0  0
 27 29  1  0  0  0  0
 27 32  1  0  0  0  0
 27 28  1  1  0  0  0
 29 30  1  1  0  0  0
 29 31  1  0  0  0  0
 31 43  1  0  0  0  0
 32 44  1  0  0  0  0
 33 45  1  0  0  0  0
M  END
$$$$
