TRI
 OpenBabel04121316193D

  8  8  0  0  0  0  0  0  0  0999 V2000
   -1.1381   -0.0000   -0.0012 N   0  0  0  0  0  0  0  0  0  0  0  0
   -2.1473   -0.0000   -0.0031 H   0  0  0  0  0  0  0  0  0  0  0  0
   -0.3176    1.0859   -0.0001 C   0  0  0  0  0  0  0  0  0  0  0  0
    0.9330    0.6884    0.0007 N   0  0  0  0  0  0  0  0  0  0  0  0
    0.9330   -0.6884    0.0022 N   0  0  0  0  0  0  0  0  0  0  0  0
   -0.3176   -1.0859    0.0025 C   0  0  0  0  0  0  0  0  0  0  0  0
   -0.6676    2.1079    0.0003 H   0  0  0  0  0  0  0  0  0  0  0  0
   -0.6676   -2.1079    0.0052 H   0  0  0  0  0  0  0  0  0  0  0  0
  1  2  1  0  0  0  0
  1  3  1  0  0  0  0
  1  6  1  0  0  0  0
  3  4  2  0  0  0  0
  3  7  1  0  0  0  0
  4  5  1  0  0  0  0
  5  6  2  0  0  0  0
  6  8  1  0  0  0  0
M  END
$$$$
