TSH
 OpenBabel04121316193D

 22 23  0  0  0  0  0  0  0  0999 V2000
    0.8069   -0.0071    0.0866 N   0  0  0  0  0  0  0  0  0  0  0  0
    2.1013   -0.0050    0.0498 C   0  0  0  0  0  0  0  0  0  0  0  0
    2.9131   -0.9784    0.8614 C   0  0  0  0  0  0  0  0  0  0  0  0
    4.3827   -0.7695    0.6890 C   0  0  0  0  0  0  0  0  0  0  0  0
    5.0497    0.4408    0.6366 C   0  0  0  0  0  0  0  0  0  0  0  0
    6.3832    0.1943    0.4616 N   0  0  0  0  0  0  0  0  0  0  0  0
    7.0990    0.9023    0.3765 H   0  0  0  0  0  0  0  0  0  0  0  0
    6.6151   -1.1600    0.4312 C   0  0  0  0  0  0  0  0  0  0  0  0
    5.3795   -1.7923    0.5753 C   0  0  0  0  0  0  0  0  0  0  0  0
    5.3440   -3.2024    0.5837 C   0  0  0  0  0  0  0  0  0  0  0  0
    6.5351   -3.9239    0.4478 C   0  0  0  0  0  0  0  0  0  0  0  0
    7.7518   -3.2623    0.3040 C   0  0  0  0  0  0  0  0  0  0  0  0
    7.8157   -1.8659    0.2910 C   0  0  0  0  0  0  0  0  0  0  0  0
    0.4491    0.7303   -0.5315 H   0  0  0  0  0  0  0  0  0  0  0  0
    2.6282    0.7242   -0.5877 H   0  0  0  0  0  0  0  0  0  0  0  0
    2.6229   -1.9884    0.5511 H   0  0  0  0  0  0  0  0  0  0  0  0
    2.6461   -0.8626    1.9175 H   0  0  0  0  0  0  0  0  0  0  0  0
    4.6837    1.4574    0.6975 H   0  0  0  0  0  0  0  0  0  0  0  0
    4.4020   -3.7308    0.6980 H   0  0  0  0  0  0  0  0  0  0  0  0
    6.5068   -5.0107    0.4555 H   0  0  0  0  0  0  0  0  0  0  0  0
    8.6672   -3.8404    0.2016 H   0  0  0  0  0  0  0  0  0  0  0  0
    8.7659   -1.3543    0.1793 H   0  0  0  0  0  0  0  0  0  0  0  0
  1  2  2  0  0  0  0
  1 14  1  0  0  0  0
  2  3  1  0  0  0  0
  2 15  1  0  0  0  0
  3  4  1  0  0  0  0
  3 16  1  0  0  0  0
  3 17  1  0  0  0  0
  4  5  2  0  0  0  0
  4  9  1  0  0  0  0
  5  6  1  0  0  0  0
  5 18  1  0  0  0  0
  6  7  1  0  0  0  0
  6  8  1  0  0  0  0
  8  9  2  0  0  0  0
  8 13  1  0  0  0  0
  9 10  1  0  0  0  0
 10 11  2  0  0  0  0
 10 19  1  0  0  0  0
 11 12  1  0  0  0  0
 11 20  1  0  0  0  0
 12 13  2  0  0  0  0
 12 21  1  0  0  0  0
 13 22  1  0  0  0  0
M  END
$$$$
