TSL
 OpenBabel04121316193D

 28 27  0  0  1  0  0  0  0  0999 V2000
    5.2413   -4.5686   -2.0172 O   0  0  0  0  0  0  0  0  0  0  0  0
    5.0343   -3.7241   -1.1517 C   0  0  0  0  0  0  0  0  0  0  0  0
    6.1345   -3.2000   -0.3292 C   0  0  0  0  0  0  0  0  0  0  0  0
    5.8655   -2.3022    0.6185 C   0  0  0  0  0  0  0  0  0  0  0  0
    6.7748   -1.7475    1.4820 N   0  0  0  0  0  0  0  0  0  0  0  0
    6.4207   -0.7220    2.4724 C   0  0  2  0  0  0  0  0  0  0  0  0
    5.3221   -0.6977    2.5233 H   0  0  0  0  0  0  0  0  0  0  0  0
    6.9043    0.6864    2.0589 C   0  0  0  0  0  0  0  0  0  0  0  0
    6.3034    1.9035    3.3493 S   0  0  1  0  0  0  0  0  0  0  0  0
    6.7081    3.2666    2.8829 O   0  0  0  0  0  0  0  0  0  0  0  0
    4.7478    1.7199    2.9898 O   0  0  0  0  0  0  0  0  0  0  0  0
    8.4364    0.7837    2.0020 C   0  0  0  0  0  0  0  0  0  0  0  0
    6.3607    1.0762    0.6671 C   0  0  0  0  0  0  0  0  0  0  0  0
    6.8378   -1.1618    3.8821 C   0  0  0  0  0  0  0  0  0  0  0  0
    6.0196   -1.2885    4.7911 O   0  0  0  0  0  0  0  0  0  0  0  0
    8.1502   -1.3951    4.0846 O   0  0  0  0  0  0  0  0  0  0  0  0
    4.0274   -3.3263   -0.9436 H   0  0  0  0  0  0  0  0  0  0  0  0
    7.1277   -3.5826   -0.5148 H   0  0  0  0  0  0  0  0  0  0  0  0
    4.8457   -1.9418    0.7661 H   0  0  0  0  0  0  0  0  0  0  0  0
    7.7481   -2.0024    1.3413 H   0  0  0  0  0  0  0  0  0  0  0  0
    4.3164    1.0850    3.6101 H   0  0  0  0  0  0  0  0  0  0  0  0
    8.8938    0.6615    2.9867 H   0  0  0  0  0  0  0  0  0  0  0  0
    8.7687    1.7612    1.6398 H   0  0  0  0  0  0  0  0  0  0  0  0
    8.8500    0.0249    1.3280 H   0  0  0  0  0  0  0  0  0  0  0  0
    5.2667    1.0551    0.6228 H   0  0  0  0  0  0  0  0  0  0  0  0
    6.7285    0.3897   -0.1047 H   0  0  0  0  0  0  0  0  0  0  0  0
    6.6886    2.0792    0.3740 H   0  0  0  0  0  0  0  0  0  0  0  0
    8.7337   -1.3102    3.3091 H   0  0  0  0  0  0  0  0  0  0  0  0
  1  2  2  0  0  0  0
  2  3  1  0  0  0  0
  2 17  1  0  0  0  0
  3  4  2  0  0  0  0
  3 18  1  0  0  0  0
  4  5  1  0  0  0  0
  4 19  1  0  0  0  0
  5 20  1  0  0  0  0
  6  8  1  0  0  0  0
  6 14  1  0  0  0  0
  6  7  1  1  0  0  0
  6  5  1  0  0  0  0
  8 12  1  0  0  0  0
  8 13  1  0  0  0  0
  9  8  1  6  0  0  0
  9 10  2  0  0  0  0
  9 11  1  0  0  0  0
 11 21  1  0  0  0  0
 12 22  1  0  0  0  0
 12 23  1  0  0  0  0
 12 24  1  0  0  0  0
 13 25  1  0  0  0  0
 13 26  1  0  0  0  0
 13 27  1  0  0  0  0
 14 15  2  0  0  0  0
 14 16  1  0  0  0  0
 16 28  1  0  0  0  0
M  END
$$$$
