TSS
 OpenBabel04121316193D

 24 25  0  0  0  0  0  0  0  0999 V2000
    0.8849   -0.0078    0.0748 N   0  0  0  0  0  0  0  0  0  0  0  0
    2.3466   -0.0217    0.0611 C   0  0  0  0  0  0  0  0  0  0  0  0
    2.8833   -0.3115   -1.3435 C   0  0  0  0  0  0  0  0  0  0  0  0
    4.3763   -0.3274   -1.3603 C   0  0  0  0  0  0  0  0  0  0  0  0
    5.1985    0.7812   -1.3598 C   0  0  0  0  0  0  0  0  0  0  0  0
    6.4972    0.3522   -1.3527 N   0  0  0  0  0  0  0  0  0  0  0  0
    7.3070    0.9544   -1.3462 H   0  0  0  0  0  0  0  0  0  0  0  0
    6.5424   -1.0233   -1.3497 C   0  0  0  0  0  0  0  0  0  0  0  0
    5.2241   -1.4783   -1.3535 C   0  0  0  0  0  0  0  0  0  0  0  0
    4.9890   -2.8685   -1.3456 C   0  0  0  0  0  0  0  0  0  0  0  0
    6.0743   -3.7504   -1.3414 C   0  0  0  0  0  0  0  0  0  0  0  0
    7.3798   -3.2659   -1.3400 C   0  0  0  0  0  0  0  0  0  0  0  0
    7.6405   -1.8917   -1.3429 C   0  0  0  0  0  0  0  0  0  0  0  0
    0.5642    0.1471    1.0293 H   0  0  0  0  0  0  0  0  0  0  0  0
    0.5381   -0.9260   -0.1994 H   0  0  0  0  0  0  0  0  0  0  0  0
    2.7100   -0.7766    0.7691 H   0  0  0  0  0  0  0  0  0  0  0  0
    2.7144    0.9499    0.4114 H   0  0  0  0  0  0  0  0  0  0  0  0
    2.5234    0.4486   -2.0484 H   0  0  0  0  0  0  0  0  0  0  0  0
    2.4954   -1.2740   -1.7000 H   0  0  0  0  0  0  0  0  0  0  0  0
    4.9611    1.8373   -1.3546 H   0  0  0  0  0  0  0  0  0  0  0  0
    3.9749   -3.2560   -1.3467 H   0  0  0  0  0  0  0  0  0  0  0  0
    5.8930   -4.8222   -1.3411 H   0  0  0  0  0  0  0  0  0  0  0  0
    8.2106   -3.9675   -1.3374 H   0  0  0  0  0  0  0  0  0  0  0  0
    8.6593   -1.5194   -1.3419 H   0  0  0  0  0  0  0  0  0  0  0  0
  1  2  1  0  0  0  0
  1 14  1  0  0  0  0
  1 15  1  0  0  0  0
  2  3  1  0  0  0  0
  2 16  1  0  0  0  0
  2 17  1  0  0  0  0
  3  4  1  0  0  0  0
  3 18  1  0  0  0  0
  3 19  1  0  0  0  0
  4  5  2  0  0  0  0
  4  9  1  0  0  0  0
  5  6  1  0  0  0  0
  5 20  1  0  0  0  0
  6  7  1  0  0  0  0
  6  8  1  0  0  0  0
  8  9  2  0  0  0  0
  8 13  1  0  0  0  0
  9 10  1  0  0  0  0
 10 11  2  0  0  0  0
 10 21  1  0  0  0  0
 11 12  1  0  0  0  0
 11 22  1  0  0  0  0
 12 13  2  0  0  0  0
 12 23  1  0  0  0  0
 13 24  1  0  0  0  0
M  END
$$$$
