TSU
 OpenBabel04121316193D

 19 19  0  0  0  0  0  0  0  0999 V2000
    1.0340   -0.0058    0.1219 C   0  0  0  0  0  0  0  0  0  0  0  0
    2.5345    0.0204    0.1095 C   0  0  0  0  0  0  0  0  0  0  0  0
    3.2279    1.2373    0.1126 C   0  0  0  0  0  0  0  0  0  0  0  0
    4.6059    1.2609   -0.0976 C   0  0  0  0  0  0  0  0  0  0  0  0
    5.3060    0.0573   -0.1826 C   0  0  0  0  0  0  0  0  0  0  0  0
    4.6476   -1.1648   -0.0294 C   0  0  0  0  0  0  0  0  0  0  0  0
    3.2547   -1.1801    0.0534 C   0  0  0  0  0  0  0  0  0  0  0  0
    7.0350    0.1166   -0.5703 S   0  0  0  0  0  0  0  0  0  0  0  0
    7.1369    0.5596   -1.9414 O   0  0  0  0  0  0  0  0  0  0  0  0
    7.7042    0.7958    0.5189 O   0  0  0  0  0  0  0  0  0  0  0  0
    7.5079   -1.4295   -0.5635 O   0  0  0  0  0  0  0  0  0  0  0  0
    0.6176    1.0052    0.1785 H   0  0  0  0  0  0  0  0  0  0  0  0
    0.6644   -0.5777    0.9774 H   0  0  0  0  0  0  0  0  0  0  0  0
    0.6653   -0.4622   -0.8038 H   0  0  0  0  0  0  0  0  0  0  0  0
    2.6947    2.1753    0.2501 H   0  0  0  0  0  0  0  0  0  0  0  0
    5.1233    2.2118   -0.2041 H   0  0  0  0  0  0  0  0  0  0  0  0
    5.1896   -2.1048    0.0102 H   0  0  0  0  0  0  0  0  0  0  0  0
    2.7278   -2.1325    0.0655 H   0  0  0  0  0  0  0  0  0  0  0  0
    7.1752   -1.8659   -1.3746 H   0  0  0  0  0  0  0  0  0  0  0  0
  1  2  1  0  0  0  0
  1 12  1  0  0  0  0
  1 13  1  0  0  0  0
  1 14  1  0  0  0  0
  2  3  2  0  0  0  0
  2  7  1  0  0  0  0
  3  4  1  0  0  0  0
  3 15  1  0  0  0  0
  4  5  2  0  0  0  0
  4 16  1  0  0  0  0
  5  6  1  0  0  0  0
  5  8  1  0  0  0  0
  6  7  2  0  0  0  0
  6 17  1  0  0  0  0
  7 18  1  0  0  0  0
  8  9  2  0  0  0  0
  8 10  2  0  0  0  0
  8 11  1  0  0  0  0
 11 19  1  0  0  0  0
M  END
$$$$
