TTB
 OpenBabel04121316193D

 54 56  0  0  0  0  0  0  0  0999 V2000
    0.8952   -0.0391    0.0157 C   0  0  0  0  0  0  0  0  0  0  0  0
    2.3987    0.0099    0.1151 C   0  0  0  0  0  0  0  0  0  0  0  0
    3.1163    0.5571    1.1096 C   0  0  0  0  0  0  0  0  0  0  0  0
    2.4647    1.2206    2.2289 C   0  0  0  0  0  0  0  0  0  0  0  0
    1.6046    0.5261    3.0856 C   0  0  0  0  0  0  0  0  0  0  0  0
    0.8079    1.2335    3.9824 C   0  0  0  0  0  0  0  0  0  0  0  0
    0.9674    2.6199    4.1303 C   0  0  0  0  0  0  0  0  0  0  0  0
    1.9377    3.2805    3.3630 C   0  0  0  0  0  0  0  0  0  0  0  0
    2.6282    2.5952    2.3664 C   0  0  0  0  0  0  0  0  0  0  0  0
    0.0556    3.3121    5.0832 C   0  0  0  0  0  0  0  0  0  0  0  0
   -0.8215    2.7120    5.6957 O   0  0  0  0  0  0  0  0  0  0  0  0
    0.2291    4.6390    5.2220 O   0  0  0  0  0  0  0  0  0  0  0  0
    3.1126   -0.6506   -0.9763 C   0  0  0  0  0  0  0  0  0  0  0  0
    3.8398    0.0634   -1.9165 C   0  0  0  0  0  0  0  0  0  0  0  0
    4.4142   -0.6107   -2.9877 C   0  0  0  0  0  0  0  0  0  0  0  0
    4.2997   -2.0106   -3.1329 C   0  0  0  0  0  0  0  0  0  0  0  0
    3.5736   -2.7363   -2.1669 C   0  0  0  0  0  0  0  0  0  0  0  0
    3.0150   -2.0350   -1.0872 C   0  0  0  0  0  0  0  0  0  0  0  0
    3.3809   -4.2512   -2.2382 C   0  0  0  0  0  0  0  0  0  0  0  0
    1.9172   -4.6303   -1.9169 C   0  0  0  0  0  0  0  0  0  0  0  0
    4.3152   -4.9218   -1.2112 C   0  0  0  0  0  0  0  0  0  0  0  0
    3.7046   -4.7871   -3.6474 C   0  0  0  0  0  0  0  0  0  0  0  0
    5.0324   -4.2219   -4.1442 C   0  0  0  0  0  0  0  0  0  0  0  0
    4.9350   -2.6935   -4.3449 C   0  0  0  0  0  0  0  0  0  0  0  0
    6.3630   -2.1569   -4.5750 C   0  0  0  0  0  0  0  0  0  0  0  0
    4.0726   -2.4044   -5.5902 C   0  0  0  0  0  0  0  0  0  0  0  0
    0.3923    0.5085    0.8150 H   0  0  0  0  0  0  0  0  0  0  0  0
    0.5343   -1.0719    0.0643 H   0  0  0  0  0  0  0  0  0  0  0  0
    0.5568    0.4152   -0.9201 H   0  0  0  0  0  0  0  0  0  0  0  0
    4.2036    0.5658    1.0995 H   0  0  0  0  0  0  0  0  0  0  0  0
    1.4893   -0.5529    2.9970 H   0  0  0  0  0  0  0  0  0  0  0  0
    0.0487    0.6978    4.5517 H   0  0  0  0  0  0  0  0  0  0  0  0
    2.1792    4.3275    3.4819 H   0  0  0  0  0  0  0  0  0  0  0  0
    3.2688    3.1417    1.6770 H   0  0  0  0  0  0  0  0  0  0  0  0
    0.9200    5.0597    4.6867 H   0  0  0  0  0  0  0  0  0  0  0  0
    3.9472    1.1412   -1.8420 H   0  0  0  0  0  0  0  0  0  0  0  0
    4.9428   -0.0140   -3.7258 H   0  0  0  0  0  0  0  0  0  0  0  0
    2.4801   -2.5667   -0.3046 H   0  0  0  0  0  0  0  0  0  0  0  0
    1.6238   -4.3480   -0.9003 H   0  0  0  0  0  0  0  0  0  0  0  0
    1.7589   -5.7100   -1.9939 H   0  0  0  0  0  0  0  0  0  0  0  0
    1.2235   -4.1293   -2.6035 H   0  0  0  0  0  0  0  0  0  0  0  0
    4.1041   -4.5879   -0.1904 H   0  0  0  0  0  0  0  0  0  0  0  0
    5.3691   -4.6900   -1.3993 H   0  0  0  0  0  0  0  0  0  0  0  0
    4.2059   -6.0113   -1.2411 H   0  0  0  0  0  0  0  0  0  0  0  0
    2.8997   -4.5214   -4.3434 H   0  0  0  0  0  0  0  0  0  0  0  0
    3.7380   -5.8830   -3.6472 H   0  0  0  0  0  0  0  0  0  0  0  0
    5.3233   -4.7179   -5.0777 H   0  0  0  0  0  0  0  0  0  0  0  0
    5.8302   -4.4567   -3.4293 H   0  0  0  0  0  0  0  0  0  0  0  0
    6.9836   -2.3050   -3.6826 H   0  0  0  0  0  0  0  0  0  0  0  0
    6.3736   -1.0859   -4.8022 H   0  0  0  0  0  0  0  0  0  0  0  0
    6.8460   -2.6582   -5.4186 H   0  0  0  0  0  0  0  0  0  0  0  0
    3.0457   -2.7690   -5.4760 H   0  0  0  0  0  0  0  0  0  0  0  0
    4.4973   -2.8887   -6.4762 H   0  0  0  0  0  0  0  0  0  0  0  0
    3.9973   -1.3317   -5.7927 H   0  0  0  0  0  0  0  0  0  0  0  0
  1  2  1  0  0  0  0
  1 27  1  0  0  0  0
  1 28  1  0  0  0  0
  1 29  1  0  0  0  0
  2  3  2  0  0  0  0
  2 13  1  0  0  0  0
  3  4  1  0  0  0  0
  3 30  1  0  0  0  0
  4  5  2  0  0  0  0
  4  9  1  0  0  0  0
  5  6  1  0  0  0  0
  5 31  1  0  0  0  0
  6  7  2  0  0  0  0
  6 32  1  0  0  0  0
  7  8  1  0  0  0  0
  7 10  1  0  0  0  0
  8  9  2  0  0  0  0
  8 33  1  0  0  0  0
  9 34  1  0  0  0  0
 10 11  2  0  0  0  0
 10 12  1  0  0  0  0
 12 35  1  0  0  0  0
 13 14  2  0  0  0  0
 13 18  1  0  0  0  0
 14 15  1  0  0  0  0
 14 36  1  0  0  0  0
 15 16  2  0  0  0  0
 15 37  1  0  0  0  0
 16 17  1  0  0  0  0
 16 24  1  0  0  0  0
 17 18  2  0  0  0  0
 17 19  1  0  0  0  0
 18 38  1  0  0  0  0
 19 20  1  0  0  0  0
 19 21  1  0  0  0  0
 19 22  1  0  0  0  0
 20 39  1  0  0  0  0
 20 40  1  0  0  0  0
 20 41  1  0  0  0  0
 21 42  1  0  0  0  0
 21 43  1  0  0  0  0
 21 44  1  0  0  0  0
 22 23  1  0  0  0  0
 22 45  1  0  0  0  0
 22 46  1  0  0  0  0
 23 24  1  0  0  0  0
 23 47  1  0  0  0  0
 23 48  1  0  0  0  0
 24 25  1  0  0  0  0
 24 26  1  0  0  0  0
 25 49  1  0  0  0  0
 25 50  1  0  0  0  0
 25 51  1  0  0  0  0
 26 52  1  0  0  0  0
 26 53  1  0  0  0  0
 26 54  1  0  0  0  0
M  END
$$$$
