TTL
 OpenBabel04121316193D

 25 26  0  0  1  0  0  0  0  0999 V2000
    2.8387   -0.2961   -1.4506 N   0  0  0  0  0  0  0  0  0  0  0  0
    2.4670   -0.1093   -0.0300 C   0  0  1  0  0  0  0  0  0  0  0  0
    1.3720   -0.1109    0.0278 H   0  0  0  0  0  0  0  0  0  0  0  0
    2.9926   -1.2674    0.8308 C   0  0  0  0  0  0  0  0  0  0  0  0
    4.5127   -1.3741    0.7338 C   0  0  0  0  0  0  0  0  0  0  0  0
    5.1997   -0.0355    0.8969 C   0  0  0  0  0  0  0  0  0  0  0  0
    4.4968    1.1853    0.8102 C   0  0  0  0  0  0  0  0  0  0  0  0
    3.0007    1.2236    0.5592 C   0  0  2  0  0  0  0  0  0  0  0  0
    2.7658    2.0356   -0.1400 H   0  0  0  0  0  0  0  0  0  0  0  0
    2.3090    1.5198    1.7739 O   0  0  0  0  0  0  0  0  0  0  0  0
    5.1968    2.3947    0.9515 C   0  0  0  0  0  0  0  0  0  0  0  0
    6.5776    2.3911    1.1526 C   0  0  0  0  0  0  0  0  0  0  0  0
    7.2718    1.1885    1.2077 C   0  0  0  0  0  0  0  0  0  0  0  0
    6.5910   -0.0210    1.0758 C   0  0  0  0  0  0  0  0  0  0  0  0
    3.8577   -0.2618   -1.5324 H   0  0  0  0  0  0  0  0  0  0  0  0
    2.5140    0.5071   -1.9881 H   0  0  0  0  0  0  0  0  0  0  0  0
    2.5284   -2.2167    0.5403 H   0  0  0  0  0  0  0  0  0  0  0  0
    2.7152   -1.0965    1.8806 H   0  0  0  0  0  0  0  0  0  0  0  0
    4.7904   -1.7916   -0.2429 H   0  0  0  0  0  0  0  0  0  0  0  0
    4.8738   -2.0774    1.4930 H   0  0  0  0  0  0  0  0  0  0  0  0
    2.7759    2.2568    2.2014 H   0  0  0  0  0  0  0  0  0  0  0  0
    4.6722    3.3441    0.8946 H   0  0  0  0  0  0  0  0  0  0  0  0
    7.1110    3.3326    1.2587 H   0  0  0  0  0  0  0  0  0  0  0  0
    8.3497    1.1863    1.3535 H   0  0  0  0  0  0  0  0  0  0  0  0
    7.1469   -0.9541    1.1096 H   0  0  0  0  0  0  0  0  0  0  0  0
  1 15  1  0  0  0  0
  1 16  1  0  0  0  0
  2  4  1  0  0  0  0
  2  8  1  0  0  0  0
  2  3  1  1  0  0  0
  2  1  1  0  0  0  0
  4  5  1  0  0  0  0
  4 17  1  0  0  0  0
  4 18  1  0  0  0  0
  5  6  1  0  0  0  0
  5 19  1  0  0  0  0
  5 20  1  0  0  0  0
  6  7  2  0  0  0  0
  6 14  1  0  0  0  0
  7  8  1  0  0  0  0
  7 11  1  0  0  0  0
  8  9  1  6  0  0  0
  8 10  1  0  0  0  0
 10 21  1  0  0  0  0
 11 12  2  0  0  0  0
 11 22  1  0  0  0  0
 12 13  1  0  0  0  0
 12 23  1  0  0  0  0
 13 14  2  0  0  0  0
 13 24  1  0  0  0  0
 14 25  1  0  0  0  0
M  END
$$$$
