TTP
 OpenBabel04121316193D

 46 47  0  0  1  0  0  0  0  0999 V2000
    3.6952    0.1242   -2.0181 O   0  0  0  0  0  0  0  0  0  0  0  0
    3.8100    0.3140   -0.6080 C   0  0  1  0  0  0  0  0  0  0  0  0
    4.8641    0.3795   -0.3407 H   0  0  0  0  0  0  0  0  0  0  0  0
    2.9155    1.4159   -0.2280 C   0  0  0  0  0  0  0  0  0  0  0  0
    2.3554    1.0223    1.1731 C   0  0  1  0  0  0  0  0  0  0  0  0
    1.4196    1.5482    1.3617 H   0  0  0  0  0  0  0  0  0  0  0  0
    2.1496   -0.3488    1.1022 O   0  0  0  0  0  0  0  0  0  0  0  0
    3.1907   -0.7333    0.2381 C   0  0  2  0  0  0  0  0  0  0  0  0
    2.4769   -1.2675   -0.4585 H   0  0  0  0  0  0  0  0  0  0  0  0
    4.7007   -1.6268    0.9005 C   0  0  0  0  0  0  0  0  0  0  0  0
    4.6970   -3.1596   -0.2884 O   0  0  0  0  0  0  0  0  0  0  0  0
    5.6676   -4.3644    0.4857 P   0  0  1  0  0  0  0  0  0  0  0  0
    6.4517   -3.3662    1.3385 O   0  0  0  0  0  0  0  0  0  0  0  0
    4.3225   -4.8057    1.1990 O   0  0  0  0  0  0  0  0  0  0  0  0
    3.1358   -3.9711    0.4255 P   0  0  2  0  0  0  0  0  0  0  0  0
    3.2616   -4.6637   -0.9490 O   0  0  0  0  0  0  0  0  0  0  0  0
    3.7322   -2.4996   -0.2613 O   0  0  0  0  0  0  0  0  0  0  0  0
    4.0639   -2.7405   -1.9420 P   0  0  0  0  0  0  0  0  0  0  0  0
    5.1781   -1.6476   -2.0394 O   0  0  0  0  0  0  0  0  0  0  0  0
    5.0935   -4.1854   -1.9882 O   0  0  0  0  0  0  0  0  0  0  0  0
    4.3956   -2.9815   -3.6228 O   0  0  0  0  0  0  0  0  0  0  0  0
    2.9948   -3.1953    1.9654 O   0  0  0  0  0  0  0  0  0  0  0  0
    6.6383   -5.5692    1.2598 O   0  0  0  0  0  0  0  0  0  0  0  0
    3.2789    1.1844    2.2863 N   0  0  0  0  0  0  0  0  0  0  0  0
    3.8561    2.4062    2.3618 C   0  0  0  0  0  0  0  0  0  0  0  0
    4.9108    2.6324    3.1379 C   0  0  0  0  0  0  0  0  0  0  0  0
    5.5953    3.9357    3.1398 C   0  0  0  0  0  0  0  0  0  0  0  0
    5.4188    1.5400    3.9791 C   0  0  0  0  0  0  0  0  0  0  0  0
    6.4294    1.6894    4.6883 O   0  0  0  0  0  0  0  0  0  0  0  0
    4.7026    0.3925    3.9670 N   0  0  0  0  0  0  0  0  0  0  0  0
    4.9931   -0.3600    4.5761 H   0  0  0  0  0  0  0  0  0  0  0  0
    3.5762    0.1685    3.2150 C   0  0  0  0  0  0  0  0  0  0  0  0
    2.9620   -0.8805    3.3883 O   0  0  0  0  0  0  0  0  0  0  0  0
    4.6255   -0.0571   -2.3071 H   0  0  0  0  0  0  0  0  0  0  0  0
    2.1117    1.4147   -0.9778 H   0  0  0  0  0  0  0  0  0  0  0  0
    3.5095    2.3183   -0.3179 H   0  0  0  0  0  0  0  0  0  0  0  0
    4.4269   -1.9723    1.8855 H   0  0  0  0  0  0  0  0  0  0  0  0
    5.6668   -1.1381    0.8984 H   0  0  0  0  0  0  0  0  0  0  0  0
    4.3954   -4.8794   -1.8924 H   0  0  0  0  0  0  0  0  0  0  0  0
    4.7933   -2.1369   -3.9066 H   0  0  0  0  0  0  0  0  0  0  0  0
    2.2295   -2.5932    2.0866 H   0  0  0  0  0  0  0  0  0  0  0  0
    7.4891   -5.1216    1.4348 H   0  0  0  0  0  0  0  0  0  0  0  0
    3.4248    3.1723    1.7265 H   0  0  0  0  0  0  0  0  0  0  0  0
    5.1115    4.6352    2.4492 H   0  0  0  0  0  0  0  0  0  0  0  0
    6.6285    3.7987    2.8145 H   0  0  0  0  0  0  0  0  0  0  0  0
    5.5628    4.3569    4.1446 H   0  0  0  0  0  0  0  0  0  0  0  0
  1  2  1  0  0  0  0
  1 34  1  0  0  0  0
  2  3  1  1  0  0  0
  2  4  1  0  0  0  0
  2  8  1  0  0  0  0
  4  5  1  0  0  0  0
  4 35  1  0  0  0  0
  4 36  1  0  0  0  0
  5  6  1  1  0  0  0
  5  7  1  0  0  0  0
  5 24  1  0  0  0  0
  7  8  1  0  0  0  0
  8  9  1  6  0  0  0
  8 10  1  0  0  0  0
 10 11  1  0  0  0  0
 10 37  1  0  0  0  0
 10 38  1  0  0  0  0
 12 11  1  6  0  0  0
 12 13  2  0  0  0  0
 12 14  1  0  0  0  0
 12 23  1  0  0  0  0
 15 17  1  6  0  0  0
 15 22  1  0  0  0  0
 15 16  2  0  0  0  0
 15 14  1  0  0  0  0
 17 18  1  0  0  0  0
 18 19  2  0  0  0  0
 18 20  1  0  0  0  0
 18 21  1  0  0  0  0
 20 39  1  0  0  0  0
 21 40  1  0  0  0  0
 22 41  1  0  0  0  0
 23 42  1  0  0  0  0
 24 25  1  0  0  0  0
 24 32  1  0  0  0  0
 25 26  2  0  0  0  0
 25 43  1  0  0  0  0
 26 27  1  0  0  0  0
 26 28  1  0  0  0  0
 27 44  1  0  0  0  0
 27 45  1  0  0  0  0
 27 46  1  0  0  0  0
 28 29  2  0  0  0  0
 28 30  1  0  0  0  0
 30 31  1  0  0  0  0
 30 32  1  0  0  0  0
 32 33  2  0  0  0  0
M  END
$$$$
