TUO
 OpenBabel04121316193D

 37 39  0  0  0  0  0  0  0  0999 V2000
    1.0622   -0.1213   -0.0824 N   0  0  0  0  0  0  0  0  0  0  0  0
    2.4786   -0.1489   -0.0044 N   0  0  0  0  0  0  0  0  0  0  0  0
    3.1126    0.4558    1.0873 C   0  0  0  0  0  0  0  0  0  0  0  0
    2.4898    0.9427    2.0235 O   0  0  0  0  0  0  0  0  0  0  0  0
    4.5549    0.5736    0.9591 C   0  0  0  0  0  0  0  0  0  0  0  0
    5.4048   -0.5098    0.9252 N   0  0  0  0  0  0  0  0  0  0  0  0
    5.1010   -1.4735    0.9645 H   0  0  0  0  0  0  0  0  0  0  0  0
    6.7227   -0.1101    0.9290 C   0  0  0  0  0  0  0  0  0  0  0  0
    6.7263    1.2851    0.9262 C   0  0  0  0  0  0  0  0  0  0  0  0
    5.3470    1.7254    0.9500 C   0  0  0  0  0  0  0  0  0  0  0  0
    4.8180    3.1032    0.9300 C   0  0  0  0  0  0  0  0  0  0  0  0
    3.5142    3.4059    0.5096 C   0  0  0  0  0  0  0  0  0  0  0  0
    3.0775    4.7188    0.3426 C   0  0  0  0  0  0  0  0  0  0  0  0
    3.9218    5.7711    0.6538 C   0  0  0  0  0  0  0  0  0  0  0  0
    5.1791    5.5045    1.1774 C   0  0  0  0  0  0  0  0  0  0  0  0
    5.6254    4.1866    1.2938 C   0  0  0  0  0  0  0  0  0  0  0  0
    7.9853    1.9336    0.8998 C   0  0  0  0  0  0  0  0  0  0  0  0
    9.1701    1.1919    0.9287 C   0  0  0  0  0  0  0  0  0  0  0  0
    9.1328   -0.1979    0.9410 C   0  0  0  0  0  0  0  0  0  0  0  0
    7.9036   -0.8719    0.9361 C   0  0  0  0  0  0  0  0  0  0  0  0
   10.6892    2.1141    0.9442 S   0  0  0  0  0  0  0  0  0  0  0  0
   10.7938    2.7992   -0.3188 O   0  0  0  0  0  0  0  0  0  0  0  0
   10.7757    2.7893    2.2208 O   0  0  0  0  0  0  0  0  0  0  0  0
   11.8665    0.9320    0.9499 N   0  0  0  0  0  0  0  0  0  0  0  0
    0.7305   -0.5328   -0.9537 H   0  0  0  0  0  0  0  0  0  0  0  0
    0.7521    0.8575   -0.0747 H   0  0  0  0  0  0  0  0  0  0  0  0
    3.0247   -0.4605   -0.8024 H   0  0  0  0  0  0  0  0  0  0  0  0
    2.7752    2.6479    0.2960 H   0  0  0  0  0  0  0  0  0  0  0  0
    2.0730    4.8994   -0.0279 H   0  0  0  0  0  0  0  0  0  0  0  0
    3.5916    6.7931    0.5079 H   0  0  0  0  0  0  0  0  0  0  0  0
    5.8244    6.3155    1.5009 H   0  0  0  0  0  0  0  0  0  0  0  0
    6.6200    4.0481    1.6941 H   0  0  0  0  0  0  0  0  0  0  0  0
    8.0709    3.0138    0.8579 H   0  0  0  0  0  0  0  0  0  0  0  0
   10.0440   -0.7866    0.9480 H   0  0  0  0  0  0  0  0  0  0  0  0
    7.8774   -1.9576    0.9431 H   0  0  0  0  0  0  0  0  0  0  0  0
   11.9769    0.4423    0.0672 H   0  0  0  0  0  0  0  0  0  0  0  0
   11.9692    0.4393    1.8318 H   0  0  0  0  0  0  0  0  0  0  0  0
  1  2  1  0  0  0  0
  1 25  1  0  0  0  0
  1 26  1  0  0  0  0
  2  3  1  0  0  0  0
  2 27  1  0  0  0  0
  3  4  2  0  0  0  0
  3  5  1  0  0  0  0
  5  6  1  0  0  0  0
  5 10  2  0  0  0  0
  6  7  1  0  0  0  0
  6  8  1  0  0  0  0
  8  9  2  0  0  0  0
  8 20  1  0  0  0  0
  9 10  1  0  0  0  0
  9 17  1  0  0  0  0
 10 11  1  0  0  0  0
 11 12  2  0  0  0  0
 11 16  1  0  0  0  0
 12 13  1  0  0  0  0
 12 28  1  0  0  0  0
 13 14  2  0  0  0  0
 13 29  1  0  0  0  0
 14 15  1  0  0  0  0
 14 30  1  0  0  0  0
 15 16  2  0  0  0  0
 15 31  1  0  0  0  0
 16 32  1  0  0  0  0
 17 18  2  0  0  0  0
 17 33  1  0  0  0  0
 18 19  1  0  0  0  0
 18 21  1  0  0  0  0
 19 20  2  0  0  0  0
 19 34  1  0  0  0  0
 20 35  1  0  0  0  0
 21 22  2  0  0  0  0
 21 23  2  0  0  0  0
 21 24  1  0  0  0  0
 24 36  1  0  0  0  0
 24 37  1  0  0  0  0
M  END
$$$$
