TVN
 OpenBabel04121316193D

 68 68  0  0  1  0  0  0  0  0999 V2000
    7.5391    6.6564    1.6436 C   0  0  0  0  0  0  0  0  0  0  0  0
    7.0384    6.0907    2.8411 N   0  0  0  0  0  0  0  0  0  0  0  0
    6.0138    6.8179    3.3627 C   0  0  0  0  0  0  0  0  0  0  0  0
    6.3844    8.0461    3.1450 O   0  0  0  0  0  0  0  0  0  0  0  0
    4.3671    5.9670    4.1111 C   0  0  0  0  0  0  0  0  0  0  0  0
    4.3297    4.5796    4.8207 C   0  0  2  0  0  0  0  0  0  0  0  0
    5.3013    4.2256    5.1600 H   0  0  0  0  0  0  0  0  0  0  0  0
    3.7979    3.8307    3.6822 C   0  0  0  0  0  0  0  0  0  0  0  0
    3.0189    2.9012    3.8327 O   0  0  0  0  0  0  0  0  0  0  0  0
    4.1053    4.2513    2.4197 N   0  0  0  0  0  0  0  0  0  0  0  0
    4.8004    5.4796    1.8968 C   0  0  2  0  0  0  0  0  0  0  0  0
    5.7281    4.9474    2.1126 H   0  0  0  0  0  0  0  0  0  0  0  0
    4.2824    7.2999    2.4370 C   0  0  0  0  0  0  0  0  0  0  0  0
    3.9610    8.1375    1.5384 O   0  0  0  0  0  0  0  0  0  0  0  0
    4.6014    7.9012    4.1057 N   0  0  0  0  0  0  0  0  0  0  0  0
    5.6283    6.9700    5.4629 C   0  0  2  0  0  0  0  0  0  0  0  0
    5.7582    5.9333    5.0332 H   0  0  0  0  0  0  0  0  0  0  0  0
    5.0193    6.7345    6.9216 C   0  0  0  0  0  0  0  0  0  0  0  0
    5.6924    6.2048    7.8097 O   0  0  0  0  0  0  0  0  0  0  0  0
    3.6657    6.9598    7.1232 N   0  0  0  0  0  0  0  0  0  0  0  0
    7.1202    6.2399    5.4786 C   0  0  0  0  0  0  0  0  0  0  0  0
    7.6451    7.5231    5.8019 C   0  0  0  0  0  0  0  0  0  0  0  0
    6.9999    8.5181    6.1007 O   0  0  0  0  0  0  0  0  0  0  0  0
    8.9496    7.5544    5.6892 N   0  0  0  0  0  0  0  0  0  0  0  0
    5.2150    5.4118    0.3915 C   0  0  0  0  0  0  0  0  0  0  0  0
    6.0043    4.1526   -0.0421 C   0  0  0  0  0  0  0  0  0  0  0  0
    3.9252    5.6896   -0.2583 C   0  0  0  0  0  0  0  0  0  0  0  0
    3.5472    4.3146    6.1155 C   0  0  0  0  0  0  0  0  0  0  0  0
    2.1205    4.7458    5.9719 C   0  0  0  0  0  0  0  0  0  0  0  0
    1.6115    5.6389    4.9917 C   0  0  0  0  0  0  0  0  0  0  0  0
    0.5158    6.4169    5.1807 C   0  0  0  0  0  0  0  0  0  0  0  0
   -0.3911    5.7569    5.9476 C   0  0  0  0  0  0  0  0  0  0  0  0
   -0.0406    4.6729    6.7516 C   0  0  0  0  0  0  0  0  0  0  0  0
    1.2644    4.3040    6.9286 C   0  0  0  0  0  0  0  0  0  0  0  0
   -1.6866    5.9632    5.6704 O   0  0  0  0  0  0  0  0  0  0  0  0
   -2.8580    5.9750    6.7477 P   0  0  0  0  0  0  0  0  0  0  0  0
   -2.6216    6.8504    7.9257 O   0  0  0  0  0  0  0  0  0  0  0  0
   -3.9877    6.4105    5.7095 O   0  0  0  0  0  0  0  0  0  0  0  0
   -3.2529    4.4772    7.1561 O   0  0  0  0  0  0  0  0  0  0  0  0
    7.8861    5.7907    1.1173 H   0  0  0  0  0  0  0  0  0  0  0  0
    8.2605    7.4207    1.8934 H   0  0  0  0  0  0  0  0  0  0  0  0
    6.7382    7.2167    1.1186 H   0  0  0  0  0  0  0  0  0  0  0  0
    6.8937    5.1412    3.1184 H   0  0  0  0  0  0  0  0  0  0  0  0
    3.3677    6.4404    3.8347 H   0  0  0  0  0  0  0  0  0  0  0  0
    3.9305    6.4955    5.0218 H   0  0  0  0  0  0  0  0  0  0  0  0
    4.0133    3.4717    1.7925 H   0  0  0  0  0  0  0  0  0  0  0  0
    4.0021    8.6964    4.4046 H   0  0  0  0  0  0  0  0  0  0  0  0
    2.9915    6.8912    6.3716 H   0  0  0  0  0  0  0  0  0  0  0  0
    3.2191    6.5107    7.9198 H   0  0  0  0  0  0  0  0  0  0  0  0
    7.6828    5.7420    4.6463 H   0  0  0  0  0  0  0  0  0  0  0  0
    7.1761    5.3370    6.1287 H   0  0  0  0  0  0  0  0  0  0  0  0
    9.4607    6.7859    5.2892 H   0  0  0  0  0  0  0  0  0  0  0  0
    9.2346    8.4925    5.8732 H   0  0  0  0  0  0  0  0  0  0  0  0
    5.8779    6.1908    0.0172 H   0  0  0  0  0  0  0  0  0  0  0  0
    5.4591    3.2489    0.2147 H   0  0  0  0  0  0  0  0  0  0  0  0
    7.0004    4.0591    0.4288 H   0  0  0  0  0  0  0  0  0  0  0  0
    6.2024    4.2082   -1.1176 H   0  0  0  0  0  0  0  0  0  0  0  0
    3.2290    4.9236    0.0646 H   0  0  0  0  0  0  0  0  0  0  0  0
    4.0802    5.8071   -1.3173 H   0  0  0  0  0  0  0  0  0  0  0  0
    3.5384    6.6402    0.0957 H   0  0  0  0  0  0  0  0  0  0  0  0
    3.9418    4.7345    7.0616 H   0  0  0  0  0  0  0  0  0  0  0  0
    3.7323    3.2719    6.4083 H   0  0  0  0  0  0  0  0  0  0  0  0
    1.9582    5.7253    3.9770 H   0  0  0  0  0  0  0  0  0  0  0  0
    0.3336    7.2699    4.5246 H   0  0  0  0  0  0  0  0  0  0  0  0
   -0.8099    4.0389    7.1474 H   0  0  0  0  0  0  0  0  0  0  0  0
    1.5936    3.5706    7.6529 H   0  0  0  0  0  0  0  0  0  0  0  0
   -3.5100    6.6833    4.8938 H   0  0  0  0  0  0  0  0  0  0  0  0
   -3.3994    4.4411    8.1281 H   0  0  0  0  0  0  0  0  0  0  0  0
  1  2  1  0  0  0  0
  1 40  1  0  0  0  0
  1 41  1  0  0  0  0
  1 42  1  0  0  0  0
  2  3  1  0  0  0  0
  2 43  1  0  0  0  0
  3  4  2  0  0  0  0
  3  5  1  0  0  0  0
  5 44  1  0  0  0  0
  5 45  1  0  0  0  0
  6  8  1  0  0  0  0
  6 28  1  0  0  0  0
  6  7  1  1  0  0  0
  6  5  1  0  0  0  0
  8  9  2  0  0  0  0
  8 10  1  0  0  0  0
 10 46  1  0  0  0  0
 11 13  1  0  0  0  0
 11 25  1  0  0  0  0
 11 12  1  1  0  0  0
 11 10  1  0  0  0  0
 13 14  2  0  0  0  0
 13 15  1  0  0  0  0
 15 47  1  0  0  0  0
 16 18  1  0  0  0  0
 16 21  1  0  0  0  0
 16 17  1  6  0  0  0
 16 15  1  0  0  0  0
 18 19  2  0  0  0  0
 18 20  1  0  0  0  0
 20 48  1  0  0  0  0
 20 49  1  0  0  0  0
 21 22  1  0  0  0  0
 21 50  1  0  0  0  0
 21 51  1  0  0  0  0
 22 23  2  0  0  0  0
 22 24  1  0  0  0  0
 24 52  1  0  0  0  0
 24 53  1  0  0  0  0
 25 26  1  0  0  0  0
 25 27  1  0  0  0  0
 25 54  1  0  0  0  0
 26 55  1  0  0  0  0
 26 56  1  0  0  0  0
 26 57  1  0  0  0  0
 27 58  1  0  0  0  0
 27 59  1  0  0  0  0
 27 60  1  0  0  0  0
 28 29  1  0  0  0  0
 28 61  1  0  0  0  0
 28 62  1  0  0  0  0
 29 30  2  0  0  0  0
 29 34  1  0  0  0  0
 30 31  1  0  0  0  0
 30 63  1  0  0  0  0
 31 32  2  0  0  0  0
 31 64  1  0  0  0  0
 32 33  1  0  0  0  0
 32 35  1  0  0  0  0
 33 34  2  0  0  0  0
 33 65  1  0  0  0  0
 34 66  1  0  0  0  0
 35 36  1  0  0  0  0
 36 37  2  0  0  0  0
 36 38  1  0  0  0  0
 36 39  1  0  0  0  0
 38 67  1  0  0  0  0
 39 68  1  0  0  0  0
M  END
$$$$
