TWN
 OpenBabel04121316193D

 67 67  0  0  1  0  0  0  0  0999 V2000
   11.9765   12.8860   -1.8955 C   0  0  0  0  0  0  0  0  0  0  0  0
   11.9073   11.3728   -1.8364 C   0  0  0  0  0  0  0  0  0  0  0  0
   12.9505   10.7582   -2.7584 C   0  0  0  0  0  0  0  0  0  0  0  0
   12.8832    9.2409   -2.7010 C   0  0  0  0  0  0  0  0  0  0  0  0
   13.9276    8.6364   -3.6240 C   0  0  0  0  0  0  0  0  0  0  0  0
   13.8590    7.1207   -3.5654 C   0  0  0  0  0  0  0  0  0  0  0  0
   14.9034    6.5199   -4.4885 C   0  0  0  0  0  0  0  0  0  0  0  0
   14.8386    5.0052   -4.4333 C   0  0  0  0  0  0  0  0  0  0  0  0
   15.8865    4.4089   -5.3595 C   0  0  0  0  0  0  0  0  0  0  0  0
   15.8164    2.8975   -5.2994 C   0  0  0  0  0  0  0  0  0  0  0  0
   16.8492    2.2533   -6.2110 C   0  0  0  0  0  0  0  0  0  0  0  0
   16.7124    0.7585   -6.0857 C   0  0  0  0  0  0  0  0  0  0  0  0
   15.9082    0.1901   -5.3754 O   0  0  0  0  0  0  0  0  0  0  0  0
   17.6223    0.1357   -6.8818 O   0  0  0  0  0  0  0  0  0  0  0  0
   17.4968   -1.2876   -6.7931 C   0  0  0  0  0  0  0  0  0  0  0  0
   18.5342   -1.8775   -7.7070 C   0  0  0  0  0  0  0  0  0  0  0  0
   18.6048   -3.4171   -7.7151 C   0  0  1  0  0  0  0  0  0  0  0  0
   18.7973   -3.7583   -6.6898 H   0  0  0  0  0  0  0  0  0  0  0  0
   17.2619   -4.0602   -8.2090 C   0  0  2  0  0  0  0  0  0  0  0  0
   16.8089   -3.3933   -8.9559 H   0  0  0  0  0  0  0  0  0  0  0  0
   16.3078   -4.1015   -7.1151 O   0  0  0  0  0  0  0  0  0  0  0  0
   16.4010   -5.3862   -6.4921 C   0  0  0  0  0  0  0  0  0  0  0  0
   16.7712   -6.3763   -7.5818 C   0  0  1  0  0  0  0  0  0  0  0  0
   15.8742   -6.9149   -7.9157 H   0  0  0  0  0  0  0  0  0  0  0  0
   17.2606   -5.5055   -8.7470 C   0  0  2  0  0  0  0  0  0  0  0  0
   16.5030   -5.5414   -9.5453 H   0  0  0  0  0  0  0  0  0  0  0  0
   18.5486   -6.0267   -9.3450 C   0  0  0  0  0  0  0  0  0  0  0  0
   17.7819   -7.4026   -7.0668 C   0  0  0  0  0  0  0  0  0  0  0  0
   19.8519   -3.6537   -8.5749 C   0  0  0  0  0  0  0  0  0  0  0  0
   11.2267   13.3256   -1.2329 H   0  0  0  0  0  0  0  0  0  0  0  0
   11.7900   13.2418   -2.9138 H   0  0  0  0  0  0  0  0  0  0  0  0
   12.9644   13.2401   -1.5839 H   0  0  0  0  0  0  0  0  0  0  0  0
   10.9057   11.0378   -2.1305 H   0  0  0  0  0  0  0  0  0  0  0  0
   12.0747   11.0361   -0.8067 H   0  0  0  0  0  0  0  0  0  0  0  0
   13.9529   11.0946   -2.4656 H   0  0  0  0  0  0  0  0  0  0  0  0
   12.7844   11.0963   -3.7888 H   0  0  0  0  0  0  0  0  0  0  0  0
   11.8839    8.8992   -2.9972 H   0  0  0  0  0  0  0  0  0  0  0  0
   13.0531    8.8974   -1.6732 H   0  0  0  0  0  0  0  0  0  0  0  0
   14.9286    8.9752   -3.3295 H   0  0  0  0  0  0  0  0  0  0  0  0
   13.7597    8.9770   -4.6532 H   0  0  0  0  0  0  0  0  0  0  0  0
   12.8590    6.7801   -3.8610 H   0  0  0  0  0  0  0  0  0  0  0  0
   14.0281    6.7784   -2.5370 H   0  0  0  0  0  0  0  0  0  0  0  0
   15.9033    6.8602   -4.1927 H   0  0  0  0  0  0  0  0  0  0  0  0
   14.7340    6.8620   -5.5168 H   0  0  0  0  0  0  0  0  0  0  0  0
   13.8382    4.6633   -4.7277 H   0  0  0  0  0  0  0  0  0  0  0  0
   15.0066    4.6616   -3.4047 H   0  0  0  0  0  0  0  0  0  0  0  0
   16.8851    4.7488   -5.0612 H   0  0  0  0  0  0  0  0  0  0  0  0
   15.7146    4.7505   -6.3869 H   0  0  0  0  0  0  0  0  0  0  0  0
   14.8106    2.5632   -5.5865 H   0  0  0  0  0  0  0  0  0  0  0  0
   15.9759    2.5619   -4.2662 H   0  0  0  0  0  0  0  0  0  0  0  0
   17.8594    2.5527   -5.9120 H   0  0  0  0  0  0  0  0  0  0  0  0
   16.6763    2.5507   -7.2511 H   0  0  0  0  0  0  0  0  0  0  0  0
   16.4936   -1.5777   -7.1143 H   0  0  0  0  0  0  0  0  0  0  0  0
   17.6877   -1.6116   -5.7643 H   0  0  0  0  0  0  0  0  0  0  0  0
   19.5131   -1.4736   -7.4089 H   0  0  0  0  0  0  0  0  0  0  0  0
   18.3769   -1.5069   -8.7302 H   0  0  0  0  0  0  0  0  0  0  0  0
   15.4565   -5.6529   -6.0040 H   0  0  0  0  0  0  0  0  0  0  0  0
   17.1672   -5.3214   -5.7119 H   0  0  0  0  0  0  0  0  0  0  0  0
   18.4651   -7.0247   -9.7735 H   0  0  0  0  0  0  0  0  0  0  0  0
   19.2787   -6.1386   -8.5413 H   0  0  0  0  0  0  0  0  0  0  0  0
   18.9262   -5.3714  -10.1294 H   0  0  0  0  0  0  0  0  0  0  0  0
   17.3613   -8.0343   -6.2842 H   0  0  0  0  0  0  0  0  0  0  0  0
   18.6654   -6.9021   -6.6504 H   0  0  0  0  0  0  0  0  0  0  0  0
   18.1160   -8.0652   -7.8727 H   0  0  0  0  0  0  0  0  0  0  0  0
   20.6988   -3.0508   -8.2401 H   0  0  0  0  0  0  0  0  0  0  0  0
   19.6381   -3.4005   -9.6193 H   0  0  0  0  0  0  0  0  0  0  0  0
   20.2682   -4.6501   -8.5065 H   0  0  0  0  0  0  0  0  0  0  0  0
  1  2  1  0  0  0  0
  1 30  1  0  0  0  0
  1 31  1  0  0  0  0
  1 32  1  0  0  0  0
  2  3  1  0  0  0  0
  2 33  1  0  0  0  0
  2 34  1  0  0  0  0
  3  4  1  0  0  0  0
  3 35  1  0  0  0  0
  3 36  1  0  0  0  0
  4  5  1  0  0  0  0
  4 37  1  0  0  0  0
  4 38  1  0  0  0  0
  5  6  1  0  0  0  0
  5 39  1  0  0  0  0
  5 40  1  0  0  0  0
  6  7  1  0  0  0  0
  6 41  1  0  0  0  0
  6 42  1  0  0  0  0
  7  8  1  0  0  0  0
  7 43  1  0  0  0  0
  7 44  1  0  0  0  0
  8  9  1  0  0  0  0
  8 45  1  0  0  0  0
  8 46  1  0  0  0  0
  9 10  1  0  0  0  0
  9 47  1  0  0  0  0
  9 48  1  0  0  0  0
 10 11  1  0  0  0  0
 10 49  1  0  0  0  0
 10 50  1  0  0  0  0
 11 12  1  0  0  0  0
 11 51  1  0  0  0  0
 11 52  1  0  0  0  0
 12 13  2  0  0  0  0
 12 14  1  0  0  0  0
 14 15  1  0  0  0  0
 15 16  1  0  0  0  0
 15 53  1  0  0  0  0
 15 54  1  0  0  0  0
 16 17  1  0  0  0  0
 16 55  1  0  0  0  0
 16 56  1  0  0  0  0
 17 18  1  1  0  0  0
 17 29  1  0  0  0  0
 19 21  1  0  0  0  0
 19 25  1  0  0  0  0
 19 20  1  6  0  0  0
 19 17  1  0  0  0  0
 21 22  1  0  0  0  0
 22 23  1  0  0  0  0
 22 57  1  0  0  0  0
 22 58  1  0  0  0  0
 23 24  1  6  0  0  0
 23 25  1  0  0  0  0
 23 28  1  0  0  0  0
 25 26  1  6  0  0  0
 25 27  1  0  0  0  0
 27 59  1  0  0  0  0
 27 60  1  0  0  0  0
 27 61  1  0  0  0  0
 28 62  1  0  0  0  0
 28 63  1  0  0  0  0
 28 64  1  0  0  0  0
 29 65  1  0  0  0  0
 29 66  1  0  0  0  0
 29 67  1  0  0  0  0
M  END
$$$$
