TX1
 OpenBabel04121316193D

 44 46  0  0  0  0  0  0  0  0999 V2000
    0.9027    0.1864   -0.0674 Br  0  0  0  0  0  0  0  0  0  0  0  0
    2.7897    0.1214   -0.0971 C   0  0  0  0  0  0  0  0  0  0  0  0
    3.5637    1.2769   -0.0680 C   0  0  0  0  0  0  0  0  0  0  0  0
    4.9867    1.2281    0.0506 C   0  0  0  0  0  0  0  0  0  0  0  0
    5.6051    2.6547    0.0454 C   0  0  0  0  0  0  0  0  0  0  0  0
    7.0333    2.7269    0.2570 N   0  0  0  0  0  0  0  0  0  0  0  0
    7.8558    3.8030   -0.0535 C   0  0  0  0  0  0  0  0  0  0  0  0
    7.4380    4.9575   -0.1449 O   0  0  0  0  0  0  0  0  0  0  0  0
    9.3373    3.6001   -0.2277 C   0  0  0  0  0  0  0  0  0  0  0  0
   10.2540    4.6635   -0.1002 C   0  0  0  0  0  0  0  0  0  0  0  0
   11.6521    4.5094   -0.3520 C   0  0  0  0  0  0  0  0  0  0  0  0
   12.1979    3.2682   -0.3614 C   0  0  0  0  0  0  0  0  0  0  0  0
   11.2785    2.3454   -0.0369 C   0  0  0  0  0  0  0  0  0  0  0  0
    9.9567    2.4303   -0.5158 C   0  0  0  0  0  0  0  0  0  0  0  0
    9.2526    1.3808   -1.3120 N   0  3  0  0  0  0  0  0  0  0  0  0
    9.8726    0.7369   -2.1971 O   0  0  0  0  0  0  0  0  0  0  0  0
    8.1182    1.1205   -1.0298 O   0  5  0  0  0  0  0  0  0  0  0  0
    5.5988   -0.0922    0.1788 C   0  0  0  0  0  0  0  0  0  0  0  0
    4.7719   -1.2556    0.0374 C   0  0  0  0  0  0  0  0  0  0  0  0
    3.3894   -1.1186   -0.0924 C   0  0  0  0  0  0  0  0  0  0  0  0
    5.1550   -3.1335    0.1586 Br  0  0  0  0  0  0  0  0  0  0  0  0
    6.9947   -0.2154    0.6847 O   0  0  0  0  0  0  0  0  0  0  0  0
    7.8586   -1.2759    0.2850 C   0  0  0  0  0  0  0  0  0  0  0  0
    7.4996   -2.0998   -0.5450 O   0  0  0  0  0  0  0  0  0  0  0  0
    9.3445   -1.3597    0.5803 C   0  0  0  0  0  0  0  0  0  0  0  0
   10.1185   -0.2494    0.7192 C   0  0  0  0  0  0  0  0  0  0  0  0
   11.3322   -0.2578   -0.0542 C   0  0  0  0  0  0  0  0  0  0  0  0
   12.1488   -1.3031   -0.2225 C   0  0  0  0  0  0  0  0  0  0  0  0
   11.5113   -2.4662    0.0195 C   0  0  0  0  0  0  0  0  0  0  0  0
   10.1011   -2.4987    0.2312 C   0  0  0  0  0  0  0  0  0  0  0  0
    9.4181   -4.0485   -0.0732 Cl  0  0  0  0  0  0  0  0  0  0  0  0
    3.0452    2.2379   -0.0832 H   0  0  0  0  0  0  0  0  0  0  0  0
    5.1548    3.2367    0.8566 H   0  0  0  0  0  0  0  0  0  0  0  0
    5.3526    3.1686   -0.9015 H   0  0  0  0  0  0  0  0  0  0  0  0
    7.4112    1.7909    0.2493 H   0  0  0  0  0  0  0  0  0  0  0  0
    9.8837    5.6383    0.1791 H   0  0  0  0  0  0  0  0  0  0  0  0
   12.3361    5.3405   -0.4293 H   0  0  0  0  0  0  0  0  0  0  0  0
   13.2488    2.9942   -0.3932 H   0  0  0  0  0  0  0  0  0  0  0  0
   11.6788    1.6527    0.7140 H   0  0  0  0  0  0  0  0  0  0  0  0
    2.7705   -2.0141   -0.1062 H   0  0  0  0  0  0  0  0  0  0  0  0
    9.6635    0.6588    1.1128 H   0  0  0  0  0  0  0  0  0  0  0  0
   11.6797    0.5010   -0.7652 H   0  0  0  0  0  0  0  0  0  0  0  0
   13.1407   -1.1302   -0.6301 H   0  0  0  0  0  0  0  0  0  0  0  0
   12.0830   -3.3648   -0.1125 H   0  0  0  0  0  0  0  0  0  0  0  0
  1  2  1  0  0  0  0
  2  3  2  0  0  0  0
  2 20  1  0  0  0  0
  3  4  1  0  0  0  0
  3 32  1  0  0  0  0
  4  5  1  0  0  0  0
  4 18  2  0  0  0  0
  5  6  1  0  0  0  0
  5 33  1  0  0  0  0
  5 34  1  0  0  0  0
  6  7  1  0  0  0  0
  6 35  1  0  0  0  0
  7  8  2  0  0  0  0
  7  9  1  0  0  0  0
  9 10  2  0  0  0  0
  9 14  1  0  0  0  0
 10 11  1  0  0  0  0
 10 36  1  0  0  0  0
 11 12  2  0  0  0  0
 11 37  1  0  0  0  0
 12 13  1  0  0  0  0
 12 38  1  0  0  0  0
 13 14  2  0  0  0  0
 13 39  1  0  0  0  0
 14 15  1  0  0  0  0
 15 16  2  0  0  0  0
 15 17  1  0  0  0  0
 18 19  1  0  0  0  0
 18 22  1  0  0  0  0
 19 20  2  0  0  0  0
 19 21  1  0  0  0  0
 20 40  1  0  0  0  0
 22 23  1  0  0  0  0
 23 24  2  0  0  0  0
 23 25  1  0  0  0  0
 25 26  2  0  0  0  0
 25 30  1  0  0  0  0
 26 27  1  0  0  0  0
 26 41  1  0  0  0  0
 27 28  2  0  0  0  0
 27 42  1  0  0  0  0
 28 29  1  0  0  0  0
 28 43  1  0  0  0  0
 29 30  2  0  0  0  0
 29 44  1  0  0  0  0
 30 31  1  0  0  0  0
M  CHG  2  15   1  17  -1
M  END
$$$$
