TXN
 OpenBabel04121316193D

127135  0  0  1  0  0  0  0  0999 V2000
    7.0238    1.5484    2.4797 O   0  0  0  0  0  0  0  0  0  0  0  0
    8.1734    1.3239    1.7375 C   0  0  0  0  0  0  0  0  0  0  0  0
    8.5649   -0.0637    0.5243 C   0  0  0  0  0  0  0  0  0  0  0  0
    9.3226    0.3603   -0.5826 C   0  0  0  0  0  0  0  0  0  0  0  0
    9.7229   -0.3161   -2.3228 O   0  0  0  0  0  0  0  0  0  0  0  0
   11.0564   -2.0663   -2.5575 P   0  0  1  0  0  0  0  0  0  0  0  0
    9.8784   -1.9370   -3.4612 O   0  0  0  0  0  0  0  0  0  0  0  0
   12.2274   -1.7658   -0.9403 O   0  0  0  0  0  0  0  0  0  0  0  0
   11.7293   -1.3120    0.3767 C   0  0  2  0  0  0  0  0  0  0  0  0
   11.3725   -0.2561    0.2672 H   0  0  0  0  0  0  0  0  0  0  0  0
   12.2462   -0.2624    1.3918 C   0  0  1  0  0  0  0  0  0  0  0  0
   13.1552    0.2565    1.0594 H   0  0  0  0  0  0  0  0  0  0  0  0
   11.4755    1.5243    1.6023 C   0  0  0  0  0  0  0  0  0  0  0  0
   10.6686    2.7291    1.7019 O   0  0  0  0  0  0  0  0  0  0  0  0
    9.6199    3.9203    2.0282 P   0  0  1  0  0  0  0  0  0  0  0  0
   10.5802    4.5378    2.9312 O   0  0  0  0  0  0  0  0  0  0  0  0
    9.4702    4.6943    0.6571 O   0  0  0  0  0  0  0  0  0  0  0  0
   10.2142    4.1823   -0.3890 C   0  0  1  0  0  0  0  0  0  0  0  0
    9.8316    4.6167   -1.2926 H   0  0  0  0  0  0  0  0  0  0  0  0
   11.7026    4.1068   -0.1473 C   0  0  0  0  0  0  0  0  0  0  0  0
   12.2967    3.0752   -1.0094 N   0  0  0  0  0  0  0  0  0  0  0  0
   11.3053    2.1154   -0.9581 C   0  0  0  0  0  0  0  0  0  0  0  0
    9.9549    2.7977   -0.6443 C   0  0  2  0  0  0  0  0  0  0  0  0
    9.6099    2.3185    0.2189 H   0  0  0  0  0  0  0  0  0  0  0  0
    8.8111    2.6615   -1.5901 C   0  0  0  0  0  0  0  0  0  0  0  0
    7.4229    2.4939   -0.9492 O   0  0  0  0  0  0  0  0  0  0  0  0
    6.2028    2.1581   -2.1289 P   0  0  1  0  0  0  0  0  0  0  0  0
    6.4946    3.2756   -3.1285 O   0  0  0  0  0  0  0  0  0  0  0  0
    6.4994    0.6602   -2.5611 O   0  0  0  0  0  0  0  0  0  0  0  0
    7.3589    0.3335   -1.6113 C   0  0  2  0  0  0  0  0  0  0  0  0
    8.1210    0.7300   -2.4279 H   0  0  0  0  0  0  0  0  0  0  0  0
    7.9375   -1.1706   -1.3807 C   0  0  1  0  0  0  0  0  0  0  0  0
    7.6395   -1.5520   -2.3941 H   0  0  0  0  0  0  0  0  0  0  0  0
    9.9067   -1.4671   -1.0409 C   0  0  0  0  0  0  0  0  0  0  0  0
   11.3345   -0.3120   -1.7897 O   0  0  0  0  0  0  0  0  0  0  0  0
    6.9218   -1.6477    0.1016 O   0  0  0  0  0  0  0  0  0  0  0  0
    7.0544   -0.4672    1.6146 C   0  0  2  0  0  0  0  0  0  0  0  0
    5.9749   -0.4626    1.8595 H   0  0  0  0  0  0  0  0  0  0  0  0
    6.7655    1.0345    0.1815 C   0  0  2  0  0  0  0  0  0  0  0  0
    7.8196    1.5421    0.1866 H   0  0  0  0  0  0  0  0  0  0  0  0
    6.1209    2.7032    0.4279 O   0  0  0  0  0  0  0  0  0  0  0  0
    6.6688    4.2419   -0.4536 C   0  0  0  0  0  0  0  0  0  0  0  0
    8.7702   -0.7724    2.8972 N   0  0  0  0  0  0  0  0  0  0  0  0
    9.8253   -0.4407    2.2119 C   0  0  0  0  0  0  0  0  0  0  0  0
   10.3983    0.6571    2.9731 N   0  0  0  0  0  0  0  0  0  0  0  0
   11.1075    0.6416    3.9754 C   0  0  0  0  0  0  0  0  0  0  0  0
   10.4034   -0.5630    3.9510 C   0  0  0  0  0  0  0  0  0  0  0  0
   11.2274   -0.9015    5.2158 N   0  0  0  0  0  0  0  0  0  0  0  0
   12.2231    0.1816    6.1060 C   0  0  0  0  0  0  0  0  0  0  0  0
   12.2813    1.4705    5.8759 N   0  0  0  0  0  0  0  0  0  0  0  0
   11.5765    1.7393    4.8141 C   0  0  0  0  0  0  0  0  0  0  0  0
   11.3582    2.8645    4.4192 O   0  0  0  0  0  0  0  0  0  0  0  0
   13.0760    0.1832    7.2368 N   0  0  0  0  0  0  0  0  0  0  0  0
    4.9827    1.8223   -3.3086 O   0  0  0  0  0  0  0  0  0  0  0  0
   12.2127    3.3190   -2.4365 C   0  0  0  0  0  0  0  0  0  0  0  0
   12.6734    2.1420   -3.2875 C   0  0  0  0  0  0  0  0  0  0  0  0
   13.9910    1.9875   -3.6456 C   0  0  0  0  0  0  0  0  0  0  0  0
   14.1055    0.8552   -4.3933 N   0  0  0  0  0  0  0  0  0  0  0  0
   14.9399    0.5586   -4.8661 H   0  0  0  0  0  0  0  0  0  0  0  0
   12.8811    0.2970   -4.6478 C   0  0  0  0  0  0  0  0  0  0  0  0
   11.9387    1.1230   -4.0701 C   0  0  0  0  0  0  0  0  0  0  0  0
   10.6039    0.8533   -4.2857 N   0  0  0  0  0  0  0  0  0  0  0  0
   10.3188   -0.2973   -4.9872 C   0  0  0  0  0  0  0  0  0  0  0  0
   11.2202   -1.1992   -5.4246 N   0  0  0  0  0  0  0  0  0  0  0  0
   12.5028   -0.8184   -5.3897 C   0  0  0  0  0  0  0  0  0  0  0  0
   13.3758   -1.7734   -5.8253 N   0  0  0  0  0  0  0  0  0  0  0  0
    8.3560    4.4786    2.8381 O   0  0  0  0  0  0  0  0  0  0  0  0
   12.2487   -1.5427    2.4426 O   0  0  0  0  0  0  0  0  0  0  0  0
   10.8886   -2.6975    2.4526 C   0  0  2  0  0  0  0  0  0  0  0  0
   11.1087   -3.7520    2.2245 H   0  0  0  0  0  0  0  0  0  0  0  0
   10.4010   -2.5546    0.9056 C   0  0  2  0  0  0  0  0  0  0  0  0
    9.4642   -2.1307    0.9070 H   0  0  0  0  0  0  0  0  0  0  0  0
    9.6434   -3.6935   -0.0788 O   0  0  0  0  0  0  0  0  0  0  0  0
    8.7544   -3.4810   -1.3493 C   0  0  0  0  0  0  0  0  0  0  0  0
    9.7449   -2.5224    3.8908 N   0  0  0  0  0  0  0  0  0  0  0  0
    8.7870   -3.4442    4.1425 C   0  0  0  0  0  0  0  0  0  0  0  0
    7.8163   -3.0185    4.9945 N   0  0  0  0  0  0  0  0  0  0  0  0
    7.7534   -1.5958    5.2649 C   0  0  0  0  0  0  0  0  0  0  0  0
    8.8870   -1.2182    4.7985 C   0  0  0  0  0  0  0  0  0  0  0  0
    8.8386    0.4168    4.5238 N   0  0  0  0  0  0  0  0  0  0  0  0
    9.2447    0.8698    3.6903 H   0  0  0  0  0  0  0  0  0  0  0  0
    8.4046    1.5085    5.0052 C   0  0  0  0  0  0  0  0  0  0  0  0
    8.8473    2.5635    4.2046 N   0  0  0  0  0  0  0  0  0  0  0  0
    7.4125    1.1678    5.6953 N   0  0  0  0  0  0  0  0  0  0  0  0
    7.1657   -0.3052    5.9416 C   0  0  0  0  0  0  0  0  0  0  0  0
    6.4920   -0.5061    6.9193 O   0  0  0  0  0  0  0  0  0  0  0  0
   12.3474   -2.0126   -3.3903 O   0  0  0  0  0  0  0  0  0  0  0  0
    7.3727    1.8151    3.3411 H   0  0  0  0  0  0  0  0  0  0  0  0
    8.6977    0.9018    2.3854 H   0  0  0  0  0  0  0  0  0  0  0  0
    8.8682    2.0459    1.7036 H   0  0  0  0  0  0  0  0  0  0  0  0
    7.7360   -0.2250    0.0073 H   0  0  0  0  0  0  0  0  0  0  0  0
    8.4167   -1.1564    0.8489 H   0  0  0  0  0  0  0  0  0  0  0  0
    9.7352   -0.2017    0.2686 H   0  0  0  0  0  0  0  0  0  0  0  0
   10.1182    0.8954   -0.4341 H   0  0  0  0  0  0  0  0  0  0  0  0
   11.9592    1.7180    2.5196 H   0  0  0  0  0  0  0  0  0  0  0  0
   10.5087    1.1076    1.3066 H   0  0  0  0  0  0  0  0  0  0  0  0
   11.9871    3.8935    0.8930 H   0  0  0  0  0  0  0  0  0  0  0  0
   12.0643    5.0849   -0.3058 H   0  0  0  0  0  0  0  0  0  0  0  0
   11.7688    1.4070   -0.2953 H   0  0  0  0  0  0  0  0  0  0  0  0
   11.1009    1.5324   -1.8197 H   0  0  0  0  0  0  0  0  0  0  0  0
    9.0162    1.6795   -1.6750 H   0  0  0  0  0  0  0  0  0  0  0  0
    8.9610    2.7248   -2.6649 H   0  0  0  0  0  0  0  0  0  0  0  0
   10.4536   -2.3785   -0.8754 H   0  0  0  0  0  0  0  0  0  0  0  0
   10.5143   -0.7674   -0.6930 H   0  0  0  0  0  0  0  0  0  0  0  0
   10.9443   -0.1002   -2.7130 H   0  0  0  0  0  0  0  0  0  0  0  0
    5.7178    4.1490   -0.9248 H   0  0  0  0  0  0  0  0  0  0  0  0
    7.2650    4.1907   -1.5816 H   0  0  0  0  0  0  0  0  0  0  0  0
    7.6672    4.1702   -0.0796 H   0  0  0  0  0  0  0  0  0  0  0  0
   10.6191   -0.9510    1.9410 H   0  0  0  0  0  0  0  0  0  0  0  0
    9.4085   -1.4437    2.3144 H   0  0  0  0  0  0  0  0  0  0  0  0
   13.3786   -0.5544    7.8405 H   0  0  0  0  0  0  0  0  0  0  0  0
   13.4567    1.1066    7.5867 H   0  0  0  0  0  0  0  0  0  0  0  0
    4.4382    2.6227   -3.4033 H   0  0  0  0  0  0  0  0  0  0  0  0
   12.8587    4.1669   -2.5161 H   0  0  0  0  0  0  0  0  0  0  0  0
   11.1896    3.5403   -2.7429 H   0  0  0  0  0  0  0  0  0  0  0  0
   14.8087    2.6718   -3.4701 H   0  0  0  0  0  0  0  0  0  0  0  0
    9.2820   -0.7469   -4.9107 H   0  0  0  0  0  0  0  0  0  0  0  0
   12.9873   -2.6084   -6.2408 H   0  0  0  0  0  0  0  0  0  0  0  0
   14.3240   -1.4909   -5.9606 H   0  0  0  0  0  0  0  0  0  0  0  0
    7.9386    4.2596    3.6919 H   0  0  0  0  0  0  0  0  0  0  0  0
    9.0354   -3.9451   -2.3038 H   0  0  0  0  0  0  0  0  0  0  0  0
    8.9810   -2.6632   -1.9943 H   0  0  0  0  0  0  0  0  0  0  0  0
    7.7299   -3.1771   -1.1694 H   0  0  0  0  0  0  0  0  0  0  0  0
    8.9823   -4.3639    3.6130 H   0  0  0  0  0  0  0  0  0  0  0  0
    9.8041    2.5951    3.7405 H   0  0  0  0  0  0  0  0  0  0  0  0
    8.9393    3.4584    4.6516 H   0  0  0  0  0  0  0  0  0  0  0  0
   11.9487   -2.3183   -4.2202 H   0  0  0  0  0  0  0  0  0  0  0  0
  1  2  1  0  0  0  0
  1 88  1  0  0  0  0
  2  3  1  0  0  0  0
  2 89  1  0  0  0  0
  2 90  1  0  0  0  0
  3  4  1  0  0  0  0
  3 91  1  0  0  0  0
  3 92  1  0  0  0  0
  4  5  1  0  0  0  0
  4 93  1  0  0  0  0
  4 94  1  0  0  0  0
  6  5  1  1  0  0  0
  6  7  2  0  0  0  0
  6  8  1  0  0  0  0
  6 87  1  0  0  0  0
  9 11  1  0  0  0  0
  9 71  1  0  0  0  0
  9 10  1  6  0  0  0
  9  8  1  0  0  0  0
 11 12  1  6  0  0  0
 11 13  1  0  0  0  0
 11 68  1  0  0  0  0
 13 14  1  0  0  0  0
 13 95  1  0  0  0  0
 13 96  1  0  0  0  0
 15 14  1  6  0  0  0
 15 16  2  0  0  0  0
 15 17  1  0  0  0  0
 15 67  1  0  0  0  0
 17 18  1  0  0  0  0
 18 19  1  6  0  0  0
 18 20  1  0  0  0  0
 18 23  1  0  0  0  0
 20 21  1  0  0  0  0
 20 97  1  0  0  0  0
 20 98  1  0  0  0  0
 21 22  1  0  0  0  0
 21 55  1  0  0  0  0
 22 23  1  0  0  0  0
 22 99  1  0  0  0  0
 22100  1  0  0  0  0
 23 24  1  1  0  0  0
 23 25  1  0  0  0  0
 25 26  1  0  0  0  0
 25101  1  0  0  0  0
 25102  1  0  0  0  0
 27 26  1  1  0  0  0
 27 28  2  0  0  0  0
 27 29  1  0  0  0  0
 27 54  1  0  0  0  0
 30 32  1  0  0  0  0
 30 39  1  0  0  0  0
 30 31  1  6  0  0  0
 30 29  1  0  0  0  0
 32 33  1  6  0  0  0
 32 34  1  0  0  0  0
 32 36  1  0  0  0  0
 34 35  1  0  0  0  0
 34103  1  0  0  0  0
 34104  1  0  0  0  0
 35105  1  0  0  0  0
 36 37  1  0  0  0  0
 37 39  1  0  0  0  0
 37 43  1  0  0  0  0
 37 38  1  1  0  0  0
 39 40  1  1  0  0  0
 39 41  1  0  0  0  0
 41 42  1  0  0  0  0
 42106  1  0  0  0  0
 42107  1  0  0  0  0
 42108  1  0  0  0  0
 43 44  1  0  0  0  0
 43 47  1  0  0  0  0
 44 45  1  0  0  0  0
 44109  1  0  0  0  0
 44110  1  0  0  0  0
 45 46  2  0  0  0  0
 46 47  1  0  0  0  0
 46 51  1  0  0  0  0
 47 48  2  0  0  0  0
 48 49  1  0  0  0  0
 49 50  2  0  0  0  0
 49 53  1  0  0  0  0
 50 51  1  0  0  0  0
 51 52  2  0  0  0  0
 53111  1  0  0  0  0
 53112  1  0  0  0  0
 54113  1  0  0  0  0
 55 56  1  0  0  0  0
 55114  1  0  0  0  0
 55115  1  0  0  0  0
 56 57  2  0  0  0  0
 56 61  1  0  0  0  0
 57 58  1  0  0  0  0
 57116  1  0  0  0  0
 58 59  1  0  0  0  0
 58 60  1  0  0  0  0
 60 61  2  0  0  0  0
 60 65  1  0  0  0  0
 61 62  1  0  0  0  0
 62 63  2  0  0  0  0
 63 64  1  0  0  0  0
 63117  1  0  0  0  0
 64 65  2  0  0  0  0
 65 66  1  0  0  0  0
 66118  1  0  0  0  0
 66119  1  0  0  0  0
 67120  1  0  0  0  0
 68 69  1  0  0  0  0
 69 71  1  0  0  0  0
 69 75  1  0  0  0  0
 69 70  1  1  0  0  0
 71 72  1  1  0  0  0
 71 73  1  0  0  0  0
 73 74  1  0  0  0  0
 74121  1  0  0  0  0
 74122  1  0  0  0  0
 74123  1  0  0  0  0
 75 76  1  0  0  0  0
 75 79  1  0  0  0  0
 76 77  2  0  0  0  0
 76124  1  0  0  0  0
 77 78  1  0  0  0  0
 78 79  2  0  0  0  0
 78 85  1  0  0  0  0
 79 80  1  0  0  0  0
 80 81  1  0  0  0  0
 80 82  1  0  0  0  0
 82 83  1  0  0  0  0
 82 84  2  0  0  0  0
 83125  1  0  0  0  0
 83126  1  0  0  0  0
 84 85  1  0  0  0  0
 85 86  2  0  0  0  0
 87127  1  0  0  0  0
M  END
$$$$
