TXQ
 OpenBabel04121316193D

 28 30  0  0  0  0  0  0  0  0999 V2000
    1.0299    0.1635    0.0374 O   0  0  0  0  0  0  0  0  0  0  0  0
    2.3940    0.1763    0.0391 C   0  0  0  0  0  0  0  0  0  0  0  0
    3.1178    1.3591    0.0400 C   0  0  0  0  0  0  0  0  0  0  0  0
    2.5316    2.5893    0.0401 O   0  0  0  0  0  0  0  0  0  0  0  0
    4.5113    1.3284    0.0400 C   0  0  0  0  0  0  0  0  0  0  0  0
    5.1968    0.1083    0.0379 C   0  0  0  0  0  0  0  0  0  0  0  0
    4.4765   -1.0914    0.0384 C   0  0  0  0  0  0  0  0  0  0  0  0
    3.0795   -1.0522    0.0391 C   0  0  0  0  0  0  0  0  0  0  0  0
    2.3136   -2.3054    0.0398 C   0  0  0  0  0  0  0  0  0  0  0  0
    1.0867   -2.2729    0.0411 O   0  0  0  0  0  0  0  0  0  0  0  0
    3.0092   -3.5979    0.0394 C   0  0  0  0  0  0  0  0  0  0  0  0
    4.4058   -3.6474    0.0392 C   0  0  0  0  0  0  0  0  0  0  0  0
    5.1881   -2.3911    0.0391 C   0  0  0  0  0  0  0  0  0  0  0  0
    6.4162   -2.4417    0.0401 O   0  0  0  0  0  0  0  0  0  0  0  0
    5.0364   -4.8984    0.0392 C   0  0  0  0  0  0  0  0  0  0  0  0
    6.3962   -5.0592    0.0393 O   0  0  0  0  0  0  0  0  0  0  0  0
    4.2791   -6.0720    0.0393 C   0  0  0  0  0  0  0  0  0  0  0  0
    2.8860   -6.0156    0.0394 C   0  0  0  0  0  0  0  0  0  0  0  0
    2.2552   -4.7825    0.0395 C   0  0  0  0  0  0  0  0  0  0  0  0
    0.8914   -4.7324    0.0395 O   0  0  0  0  0  0  0  0  0  0  0  0
    0.5792    1.0094    0.0419 H   0  0  0  0  0  0  0  0  0  0  0  0
    1.5696    2.5008    0.0348 H   0  0  0  0  0  0  0  0  0  0  0  0
    5.0633    2.2647    0.0414 H   0  0  0  0  0  0  0  0  0  0  0  0
    6.2859    0.1058    0.0358 H   0  0  0  0  0  0  0  0  0  0  0  0
    6.8174   -4.1700    0.0396 H   0  0  0  0  0  0  0  0  0  0  0  0
    4.7761   -7.0381    0.0393 H   0  0  0  0  0  0  0  0  0  0  0  0
    2.3028   -6.9301    0.0394 H   0  0  0  0  0  0  0  0  0  0  0  0
    0.4770   -5.6045    0.0411 H   0  0  0  0  0  0  0  0  0  0  0  0
  1  2  1  0  0  0  0
  1 21  1  0  0  0  0
  2  3  2  0  0  0  0
  2  8  1  0  0  0  0
  3  4  1  0  0  0  0
  3  5  1  0  0  0  0
  4 22  1  0  0  0  0
  5  6  2  0  0  0  0
  5 23  1  0  0  0  0
  6  7  1  0  0  0  0
  6 24  1  0  0  0  0
  7  8  2  0  0  0  0
  7 13  1  0  0  0  0
  8  9  1  0  0  0  0
  9 10  2  0  0  0  0
  9 11  1  0  0  0  0
 11 12  2  0  0  0  0
 11 19  1  0  0  0  0
 12 13  1  0  0  0  0
 12 15  1  0  0  0  0
 13 14  2  0  0  0  0
 15 16  1  0  0  0  0
 15 17  2  0  0  0  0
 16 25  1  0  0  0  0
 17 18  1  0  0  0  0
 17 26  1  0  0  0  0
 18 19  2  0  0  0  0
 18 27  1  0  0  0  0
 19 20  1  0  0  0  0
 20 28  1  0  0  0  0
M  END
$$$$
