TXT
 OpenBabel04121316193D

110114  0  0  1  0  0  0  0  0999 V2000
    1.7582    1.3610   -8.3607 O   0  0  0  0  0  0  0  0  0  0  0  0
    2.2049    0.7929   -7.1592 C   0  0  0  0  0  0  0  0  0  0  0  0
    2.4530    1.6923   -5.9465 C   0  0  1  0  0  0  0  0  0  0  0  0
    1.4462    1.9667   -5.6287 H   0  0  0  0  0  0  0  0  0  0  0  0
    3.0409    0.8734   -4.9283 O   0  0  0  0  0  0  0  0  0  0  0  0
    4.3543    0.4246   -5.3000 C   0  0  2  0  0  0  0  0  0  0  0  0
    4.4132    0.0509   -6.3084 H   0  0  0  0  0  0  0  0  0  0  0  0
    4.7188   -0.6802   -4.5049 O   0  0  0  0  0  0  0  0  0  0  0  0
    3.7053   -1.6927   -4.6178 C   0  0  2  0  0  0  0  0  0  0  0  0
    2.6963   -1.2590   -4.6227 H   0  0  0  0  0  0  0  0  0  0  0  0
    3.7937   -2.5599   -3.3633 C   0  0  1  0  0  0  0  0  0  0  0  0
    4.8144   -2.9626   -3.3123 H   0  0  0  0  0  0  0  0  0  0  0  0
    3.6087   -1.7858   -2.0578 C   0  0  0  0  0  0  0  0  0  0  0  0
    4.5602   -0.7431   -1.8590 O   0  0  0  0  0  0  0  0  0  0  0  0
    2.8045   -3.6071   -3.4232 O   0  0  0  0  0  0  0  0  0  0  0  0
    3.0760   -4.4573   -4.5244 C   0  0  1  0  0  0  0  0  0  0  0  0
    2.4452   -5.3508   -4.4959 H   0  0  0  0  0  0  0  0  0  0  0  0
    2.7858   -3.6810   -5.8307 C   0  0  1  0  0  0  0  0  0  0  0  0
    1.7803   -3.2415   -5.8154 H   0  0  0  0  0  0  0  0  0  0  0  0
    3.8213   -2.5454   -5.9188 C   0  0  1  0  0  0  0  0  0  0  0  0
    4.8462   -2.9121   -6.0464 H   0  0  0  0  0  0  0  0  0  0  0  0
    3.5662   -1.7937   -7.1145 O   0  0  0  0  0  0  0  0  0  0  0  0
    2.8378   -4.4951   -7.0131 O   0  0  0  0  0  0  0  0  0  0  0  0
    4.4551   -4.7652   -4.4897 O   0  0  0  0  0  0  0  0  0  0  0  0
    4.9203   -5.8926   -3.7799 C   0  0  2  0  0  0  0  0  0  0  0  0
    5.9987   -5.7118   -3.6749 H   0  0  0  0  0  0  0  0  0  0  0  0
    4.7068   -7.1018   -4.6886 C   0  0  1  0  0  0  0  0  0  0  0  0
    3.6298   -7.2272   -4.8551 H   0  0  0  0  0  0  0  0  0  0  0  0
    5.3734   -6.9265   -6.0693 C   0  0  0  0  0  0  0  0  0  0  0  0
    5.0231   -5.7961   -6.8407 O   0  0  0  0  0  0  0  0  0  0  0  0
    5.2421   -8.2962   -4.1107 O   0  0  0  0  0  0  0  0  0  0  0  0
    4.6981   -8.5861   -2.8352 C   0  0  1  0  0  0  0  0  0  0  0  0
    5.1357   -9.5269   -2.4861 H   0  0  0  0  0  0  0  0  0  0  0  0
    5.0228   -7.4635   -1.8271 C   0  0  1  0  0  0  0  0  0  0  0  0
    6.1115   -7.3403   -1.7561 H   0  0  0  0  0  0  0  0  0  0  0  0
    4.4128   -6.1330   -2.3331 C   0  0  1  0  0  0  0  0  0  0  0  0
    3.3189   -6.1707   -2.2827 H   0  0  0  0  0  0  0  0  0  0  0  0
    4.7965   -5.0364   -1.4812 O   0  0  0  0  0  0  0  0  0  0  0  0
    4.5713   -7.7842   -0.5076 O   0  0  0  0  0  0  0  0  0  0  0  0
    3.2995   -8.7778   -2.9626 O   0  0  0  0  0  0  0  0  0  0  0  0
    5.3687    1.5604   -5.3056 C   0  0  1  0  0  0  0  0  0  0  0  0
    6.3249    1.1681   -5.6720 H   0  0  0  0  0  0  0  0  0  0  0  0
    4.8219    2.6357   -6.2675 C   0  0  2  0  0  0  0  0  0  0  0  0
    5.4097    3.5443   -6.1379 H   0  0  0  0  0  0  0  0  0  0  0  0
    3.3190    2.9572   -6.0078 C   0  0  2  0  0  0  0  0  0  0  0  0
    2.9960    3.6014   -6.8208 H   0  0  0  0  0  0  0  0  0  0  0  0
    3.2611    3.6660   -4.7284 O   0  0  0  0  0  0  0  0  0  0  0  0
    1.9633    4.0767   -4.2513 C   0  0  1  0  0  0  0  0  0  0  0  0
    1.2377    3.2766   -4.3470 H   0  0  0  0  0  0  0  0  0  0  0  0
    1.9673    4.3349   -2.8319 O   0  0  0  0  0  0  0  0  0  0  0  0
    2.8828    5.3507   -2.4246 C   0  0  2  0  0  0  0  0  0  0  0  0
    3.8803    4.9581   -2.6060 H   0  0  0  0  0  0  0  0  0  0  0  0
    2.7444    5.5741   -0.9112 C   0  0  0  0  0  0  0  0  0  0  0  0
    2.6223    6.6447   -3.2007 C   0  0  2  0  0  0  0  0  0  0  0  0
    1.6327    7.0066   -2.8869 H   0  0  0  0  0  0  0  0  0  0  0  0
    2.4519    6.4443   -4.7484 C   0  0  2  0  0  0  0  0  0  0  0  0
    2.0867    7.3666   -5.2146 H   0  0  0  0  0  0  0  0  0  0  0  0
    1.4706    5.3168   -5.0170 C   0  0  1  0  0  0  0  0  0  0  0  0
    0.4802    5.6094   -4.6601 H   0  0  0  0  0  0  0  0  0  0  0  0
    1.3788    5.1036   -6.4313 O   0  0  0  0  0  0  0  0  0  0  0  0
    3.6640    6.1719   -5.4810 O   0  0  0  0  0  0  0  0  0  0  0  0
    3.5450    7.7201   -2.9964 N   0  0  0  0  0  0  0  0  0  0  0  0
    4.5695    7.9522   -1.9901 C   0  0  1  0  0  0  0  0  0  0  0  0
    4.0917    8.1909   -1.0311 H   0  0  0  0  0  0  0  0  0  0  0  0
    5.7294    6.9384   -1.6708 C   0  0  0  0  0  0  0  0  0  0  0  0
    6.7068    6.6423   -2.8199 C   0  0  1  0  0  0  0  0  0  0  0  0
    7.5923    6.1479   -2.3948 H   0  0  0  0  0  0  0  0  0  0  0  0
    6.1012    5.6289   -3.7671 C   0  0  0  0  0  0  0  0  0  0  0  0
    6.7553    5.5981   -5.0166 O   0  0  0  0  0  0  0  0  0  0  0  0
    7.1510    7.9429   -3.5189 C   0  0  1  0  0  0  0  0  0  0  0  0
    7.6742    7.7172   -4.4511 H   0  0  0  0  0  0  0  0  0  0  0  0
    6.0137    8.9406   -3.8192 C   0  0  2  0  0  0  0  0  0  0  0  0
    6.4617    9.8799   -4.1475 H   0  0  0  0  0  0  0  0  0  0  0  0
    5.1912    9.2578   -2.5344 C   0  0  2  0  0  0  0  0  0  0  0  0
    4.3745    9.9479   -2.7914 H   0  0  0  0  0  0  0  0  0  0  0  0
    5.9315    9.9175   -1.5168 O   0  0  0  0  0  0  0  0  0  0  0  0
    5.1652    8.5520   -4.9158 O   0  0  0  0  0  0  0  0  0  0  0  0
    8.1088    8.6012   -2.6798 O   0  0  0  0  0  0  0  0  0  0  0  0
    5.0265    2.2095   -7.6399 O   0  0  0  0  0  0  0  0  0  0  0  0
    5.6010    2.0576   -3.9873 O   0  0  0  0  0  0  0  0  0  0  0  0
    1.9014    0.6506   -9.0238 H   0  0  0  0  0  0  0  0  0  0  0  0
    3.1139    0.3087   -7.4625 H   0  0  0  0  0  0  0  0  0  0  0  0
    1.5127    0.0008   -6.8420 H   0  0  0  0  0  0  0  0  0  0  0  0
    3.7096   -2.4835   -1.2216 H   0  0  0  0  0  0  0  0  0  0  0  0
    2.6023   -1.3624   -2.0108 H   0  0  0  0  0  0  0  0  0  0  0  0
    5.4177   -1.0682   -2.1864 H   0  0  0  0  0  0  0  0  0  0  0  0
    2.6145   -1.8336   -7.2955 H   0  0  0  0  0  0  0  0  0  0  0  0
    2.0247   -5.0251   -7.0823 H   0  0  0  0  0  0  0  0  0  0  0  0
    5.1519   -7.8061   -6.6761 H   0  0  0  0  0  0  0  0  0  0  0  0
    6.4570   -6.8739   -5.9434 H   0  0  0  0  0  0  0  0  0  0  0  0
    4.0721   -5.5969   -6.7680 H   0  0  0  0  0  0  0  0  0  0  0  0
    5.7382   -5.1190   -1.2590 H   0  0  0  0  0  0  0  0  0  0  0  0
    4.9113   -8.6671   -0.2780 H   0  0  0  0  0  0  0  0  0  0  0  0
    3.1968   -9.5885   -3.4884 H   0  0  0  0  0  0  0  0  0  0  0  0
    2.8899    4.6388   -0.3672 H   0  0  0  0  0  0  0  0  0  0  0  0
    1.7652    5.9848   -0.6517 H   0  0  0  0  0  0  0  0  0  0  0  0
    3.4761    6.2703   -0.5024 H   0  0  0  0  0  0  0  0  0  0  0  0
    2.2235    5.4382   -6.8055 H   0  0  0  0  0  0  0  0  0  0  0  0
    3.9568    5.2656   -5.2336 H   0  0  0  0  0  0  0  0  0  0  0  0
    3.7003    8.2403   -3.8670 H   0  0  0  0  0  0  0  0  0  0  0  0
    5.3735    5.9875   -1.2595 H   0  0  0  0  0  0  0  0  0  0  0  0
    6.3253    7.3662   -0.8504 H   0  0  0  0  0  0  0  0  0  0  0  0
    6.0342    4.6175   -3.3561 H   0  0  0  0  0  0  0  0  0  0  0  0
    5.0964    5.9447   -3.9348 H   0  0  0  0  0  0  0  0  0  0  0  0
    7.7071    5.5138   -4.8410 H   0  0  0  0  0  0  0  0  0  0  0  0
    6.3489   10.6826   -1.9481 H   0  0  0  0  0  0  0  0  0  0  0  0
    5.1347    7.5780   -5.0380 H   0  0  0  0  0  0  0  0  0  0  0  0
    8.7516    7.9403   -2.3748 H   0  0  0  0  0  0  0  0  0  0  0  0
    4.2199    1.9348   -8.0453 H   0  0  0  0  0  0  0  0  0  0  0  0
    5.4091    1.3100   -3.3839 H   0  0  0  0  0  0  0  0  0  0  0  0
  1  2  1  0  0  0  0
  1 81  1  0  0  0  0
  2  3  1  0  0  0  0
  2 82  1  0  0  0  0
  2 83  1  0  0  0  0
  3  4  1  1  0  0  0
  3  5  1  0  0  0  0
  3 45  1  0  0  0  0
  5  6  1  0  0  0  0
  6  7  1  6  0  0  0
  6  8  1  0  0  0  0
  6 41  1  0  0  0  0
  9 11  1  0  0  0  0
  9 20  1  0  0  0  0
  9 10  1  6  0  0  0
  9  8  1  0  0  0  0
 11 12  1  1  0  0  0
 11 13  1  0  0  0  0
 11 15  1  0  0  0  0
 13 14  1  0  0  0  0
 13 84  1  0  0  0  0
 13 85  1  0  0  0  0
 14 86  1  0  0  0  0
 15 16  1  0  0  0  0
 16 17  1  1  0  0  0
 16 18  1  0  0  0  0
 16 24  1  0  0  0  0
 18 19  1  1  0  0  0
 18 20  1  0  0  0  0
 18 23  1  0  0  0  0
 20 22  1  0  0  0  0
 20 21  1  6  0  0  0
 22 87  1  0  0  0  0
 23 88  1  0  0  0  0
 25 27  1  0  0  0  0
 25 36  1  0  0  0  0
 25 26  1  1  0  0  0
 25 24  1  0  0  0  0
 27 28  1  6  0  0  0
 27 29  1  0  0  0  0
 27 31  1  0  0  0  0
 29 30  1  0  0  0  0
 29 89  1  0  0  0  0
 29 90  1  0  0  0  0
 30 91  1  0  0  0  0
 31 32  1  0  0  0  0
 32 33  1  1  0  0  0
 32 34  1  0  0  0  0
 32 40  1  0  0  0  0
 34 35  1  1  0  0  0
 34 36  1  0  0  0  0
 34 39  1  0  0  0  0
 36 38  1  0  0  0  0
 36 37  1  6  0  0  0
 38 92  1  0  0  0  0
 39 93  1  0  0  0  0
 40 94  1  0  0  0  0
 41 42  1  6  0  0  0
 41 43  1  0  0  0  0
 41 80  1  0  0  0  0
 43 45  1  0  0  0  0
 43 79  1  0  0  0  0
 43 44  1  1  0  0  0
 45 46  1  6  0  0  0
 45 47  1  0  0  0  0
 47 48  1  0  0  0  0
 48 49  1  6  0  0  0
 48 50  1  0  0  0  0
 48 58  1  0  0  0  0
 50 51  1  0  0  0  0
 51 52  1  6  0  0  0
 51 53  1  0  0  0  0
 51 54  1  0  0  0  0
 53 95  1  0  0  0  0
 53 96  1  0  0  0  0
 53 97  1  0  0  0  0
 54 56  1  0  0  0  0
 54 62  1  0  0  0  0
 54 55  1  1  0  0  0
 56 58  1  0  0  0  0
 56 61  1  0  0  0  0
 56 57  1  6  0  0  0
 58 60  1  0  0  0  0
 58 59  1  1  0  0  0
 60 98  1  0  0  0  0
 61 99  1  0  0  0  0
 62 63  1  0  0  0  0
 62100  1  0  0  0  0
 63 64  1  1  0  0  0
 63 65  1  0  0  0  0
 63 74  1  0  0  0  0
 65 66  1  0  0  0  0
 65101  1  0  0  0  0
 65102  1  0  0  0  0
 66 70  1  0  0  0  0
 66 68  1  0  0  0  0
 66 67  1  1  0  0  0
 68 69  1  0  0  0  0
 68103  1  0  0  0  0
 68104  1  0  0  0  0
 69105  1  0  0  0  0
 70 71  1  6  0  0  0
 70 72  1  0  0  0  0
 70 78  1  0  0  0  0
 72 74  1  0  0  0  0
 72 77  1  0  0  0  0
 72 73  1  6  0  0  0
 74 75  1  6  0  0  0
 74 76  1  0  0  0  0
 76106  1  0  0  0  0
 77107  1  0  0  0  0
 78108  1  0  0  0  0
 79109  1  0  0  0  0
 80110  1  0  0  0  0
M  END
$$$$
