TYB
 OpenBabel04121316193D

 23 23  0  0  1  0  0  0  0  0999 V2000
    1.8989   -2.6575    0.7720 O   0  0  0  0  0  0  0  0  0  0  0  0
    2.6784   -2.4786   -0.1653 C   0  0  0  0  0  0  0  0  0  0  0  0
    3.0223   -1.1156   -0.7485 C   0  0  2  0  0  0  0  0  0  0  0  0
    2.4854   -0.3518   -0.1744 H   0  0  0  0  0  0  0  0  0  0  0  0
    2.6230   -1.0540   -2.2279 C   0  0  0  0  0  0  0  0  0  0  0  0
    1.1498   -1.2837   -2.4544 C   0  0  0  0  0  0  0  0  0  0  0  0
    0.6334   -2.5882   -2.5098 C   0  0  0  0  0  0  0  0  0  0  0  0
   -0.7033   -2.8087   -2.8296 C   0  0  0  0  0  0  0  0  0  0  0  0
   -1.5454   -1.7193   -3.0053 C   0  0  0  0  0  0  0  0  0  0  0  0
   -1.0796   -0.4219   -2.8302 C   0  0  0  0  0  0  0  0  0  0  0  0
    0.2771   -0.1997   -2.5980 C   0  0  0  0  0  0  0  0  0  0  0  0
   -2.8476   -1.8878   -3.3695 O   0  0  0  0  0  0  0  0  0  0  0  0
    4.4747   -0.9021   -0.5966 N   0  0  0  0  0  0  0  0  0  0  0  0
    3.1437   -3.3412   -0.6712 H   0  0  0  0  0  0  0  0  0  0  0  0
    3.1834   -1.7921   -2.8188 H   0  0  0  0  0  0  0  0  0  0  0  0
    2.9016   -0.0759   -2.6458 H   0  0  0  0  0  0  0  0  0  0  0  0
    1.2630   -3.4506   -2.3056 H   0  0  0  0  0  0  0  0  0  0  0  0
   -1.0616   -3.8279   -2.9296 H   0  0  0  0  0  0  0  0  0  0  0  0
   -1.7680    0.4152   -2.8916 H   0  0  0  0  0  0  0  0  0  0  0  0
    0.6448    0.8219   -2.5371 H   0  0  0  0  0  0  0  0  0  0  0  0
   -2.9847   -2.8267   -3.5775 H   0  0  0  0  0  0  0  0  0  0  0  0
    4.7180    0.0193   -0.9606 H   0  0  0  0  0  0  0  0  0  0  0  0
    4.9937   -1.5726   -1.1627 H   0  0  0  0  0  0  0  0  0  0  0  0
  1  2  2  0  0  0  0
  2 14  1  0  0  0  0
  3  5  1  0  0  0  0
  3 13  1  0  0  0  0
  3  4  1  1  0  0  0
  3  2  1  0  0  0  0
  5  6  1  0  0  0  0
  5 15  1  0  0  0  0
  5 16  1  0  0  0  0
  6  7  2  0  0  0  0
  6 11  1  0  0  0  0
  7  8  1  0  0  0  0
  7 17  1  0  0  0  0
  8  9  2  0  0  0  0
  8 18  1  0  0  0  0
  9 10  1  0  0  0  0
  9 12  1  0  0  0  0
 10 11  2  0  0  0  0
 10 19  1  0  0  0  0
 11 20  1  0  0  0  0
 12 21  1  0  0  0  0
 13 22  1  0  0  0  0
 13 23  1  0  0  0  0
M  END
$$$$
