TYE
 OpenBabel04121316193D

 25 25  0  0  1  0  0  0  0  0999 V2000
    1.4867    2.1394   -0.7574 O   0  0  0  0  0  0  0  0  0  0  0  0
    2.5619    2.4616    0.1210 C   0  0  0  0  0  0  0  0  0  0  0  0
    3.0472    1.1871    0.8523 C   0  0  2  0  0  0  0  0  0  0  0  0
    2.7150    0.3078    0.2847 H   0  0  0  0  0  0  0  0  0  0  0  0
    2.4931    1.0760    2.3008 C   0  0  0  0  0  0  0  0  0  0  0  0
    0.9825    1.0365    2.3569 C   0  0  0  0  0  0  0  0  0  0  0  0
    0.2998   -0.1874    2.2962 C   0  0  0  0  0  0  0  0  0  0  0  0
   -1.0837   -0.2082    2.1055 C   0  0  0  0  0  0  0  0  0  0  0  0
   -1.7889    0.9864    2.0348 C   0  0  0  0  0  0  0  0  0  0  0  0
   -1.1427    2.2051    2.2027 C   0  0  0  0  0  0  0  0  0  0  0  0
    0.2409    2.2258    2.3576 C   0  0  0  0  0  0  0  0  0  0  0  0
   -3.1285    1.0150    1.7866 O   0  0  0  0  0  0  0  0  0  0  0  0
    4.5230    1.1638    0.8722 N   0  0  0  0  0  0  0  0  0  0  0  0
    1.1483    2.9743   -1.1202 H   0  0  0  0  0  0  0  0  0  0  0  0
    2.2361    3.2367    0.8200 H   0  0  0  0  0  0  0  0  0  0  0  0
    3.3544    2.9060   -0.4895 H   0  0  0  0  0  0  0  0  0  0  0  0
    2.8582    1.9101    2.9146 H   0  0  0  0  0  0  0  0  0  0  0  0
    2.8896    0.1660    2.7729 H   0  0  0  0  0  0  0  0  0  0  0  0
    0.8444   -1.1251    2.3610 H   0  0  0  0  0  0  0  0  0  0  0  0
   -1.5865   -1.1650    1.9923 H   0  0  0  0  0  0  0  0  0  0  0  0
   -1.7048    3.1312    2.1745 H   0  0  0  0  0  0  0  0  0  0  0  0
    0.7383    3.1911    2.4233 H   0  0  0  0  0  0  0  0  0  0  0  0
   -3.4113    0.1149    1.5528 H   0  0  0  0  0  0  0  0  0  0  0  0
    4.8453    0.3033    1.3114 H   0  0  0  0  0  0  0  0  0  0  0  0
    4.8777    1.9349    1.4342 H   0  0  0  0  0  0  0  0  0  0  0  0
  1  2  1  0  0  0  0
  1 14  1  0  0  0  0
  2 15  1  0  0  0  0
  2 16  1  0  0  0  0
  3  5  1  0  0  0  0
  3 13  1  0  0  0  0
  3  4  1  6  0  0  0
  3  2  1  0  0  0  0
  5  6  1  0  0  0  0
  5 17  1  0  0  0  0
  5 18  1  0  0  0  0
  6  7  2  0  0  0  0
  6 11  1  0  0  0  0
  7  8  1  0  0  0  0
  7 19  1  0  0  0  0
  8  9  2  0  0  0  0
  8 20  1  0  0  0  0
  9 10  1  0  0  0  0
  9 12  1  0  0  0  0
 10 11  2  0  0  0  0
 10 21  1  0  0  0  0
 11 22  1  0  0  0  0
 12 23  1  0  0  0  0
 13 24  1  0  0  0  0
 13 25  1  0  0  0  0
M  END
$$$$
