TZ4
 OpenBabel04121316203D

 95102  0  0  0  0  0  0  0  0999 V2000
    1.0429    0.0118    0.0064 N   0  0  0  0  0  0  0  0  0  0  0  0
    2.4176    0.0517    0.0414 C   0  0  0  0  0  0  0  0  0  0  0  0
    3.1270    1.2250    0.0339 C   0  0  0  0  0  0  0  0  0  0  0  0
    4.5264    1.2096    0.0375 C   0  0  0  0  0  0  0  0  0  0  0  0
    5.2926   -0.0045    0.0456 C   0  0  0  0  0  0  0  0  0  0  0  0
    4.5778   -1.2047    0.0406 C   0  0  0  0  0  0  0  0  0  0  0  0
    3.1478   -1.1332    0.0373 C   0  0  0  0  0  0  0  0  0  0  0  0
    5.2281   -2.4464    0.0392 N   0  3  0  0  0  0  0  0  0  0  0  0
    4.2183   -3.5698   -0.1768 C   0  0  0  0  0  0  0  0  0  0  0  0
    4.8651   -4.8724   -0.2680 C   0  0  0  0  0  0  0  0  0  0  0  0
    4.1427   -6.1816   -0.1562 C   0  0  0  0  0  0  0  0  0  0  0  0
    5.1684   -7.3076   -0.0124 C   0  0  0  0  0  0  0  0  0  0  0  0
    4.5832   -8.6755   -0.0311 C   0  0  0  0  0  0  0  0  0  0  0  0
    5.6452   -9.8030    0.0241 C   0  0  0  0  0  0  0  0  0  0  0  0
    4.9370  -11.1006    0.0344 C   0  0  0  0  0  0  0  0  0  0  0  0
    5.5150  -12.3341    0.0449 N   0  0  0  0  0  0  0  0  0  0  0  0
    4.5396  -13.2460    0.0444 N   0  0  0  0  0  0  0  0  0  0  0  0
    3.3719  -12.5901    0.0348 N   0  0  0  0  0  0  0  0  0  0  0  0
    3.5797  -11.2542    0.0322 C   0  0  0  0  0  0  0  0  0  0  0  0
    2.0924  -13.2763    0.0321 C   0  0  0  0  0  0  0  0  0  0  0  0
    1.0046  -12.2386    0.0376 C   0  0  0  0  0  0  0  0  0  0  0  0
   -0.3430  -12.6866    0.0290 N   0  0  0  0  0  0  0  0  0  0  0  0
   -1.4331  -11.8057    0.0431 C   0  0  0  0  0  0  0  0  0  0  0  0
   -2.7029  -12.4011    0.0347 C   0  0  0  0  0  0  0  0  0  0  0  0
   -2.8121  -13.9079   -0.0098 C   0  0  0  0  0  0  0  0  0  0  0  0
   -4.1815  -14.4253    0.3615 C   0  0  0  0  0  0  0  0  0  0  0  0
   -5.2140  -13.6687   -0.4520 C   0  0  0  0  0  0  0  0  0  0  0  0
   -5.2175  -12.1960   -0.0248 C   0  0  0  0  0  0  0  0  0  0  0  0
   -3.8311  -11.5797    0.0004 C   0  0  0  0  0  0  0  0  0  0  0  0
   -3.7549  -10.2196    0.0306 N   0  0  0  0  0  0  0  0  0  0  0  0
   -2.5412   -9.6239    0.0638 C   0  0  0  0  0  0  0  0  0  0  0  0
   -1.3482  -10.3680    0.0685 C   0  0  0  0  0  0  0  0  0  0  0  0
   -0.1445   -9.6096    0.0951 C   0  0  0  0  0  0  0  0  0  0  0  0
   -0.0467   -8.2358    0.1115 C   0  0  0  0  0  0  0  0  0  0  0  0
   -1.2114   -7.5253    0.1099 C   0  0  0  0  0  0  0  0  0  0  0  0
   -2.4357   -8.2181    0.0882 C   0  0  0  0  0  0  0  0  0  0  0  0
    6.6440   -2.5392    0.2051 C   0  0  0  0  0  0  0  0  0  0  0  0
    7.3655   -1.2743    0.1819 C   0  0  0  0  0  0  0  0  0  0  0  0
    6.7019   -0.0171    0.0664 C   0  0  0  0  0  0  0  0  0  0  0  0
    7.5091    1.1540    0.0384 C   0  0  0  0  0  0  0  0  0  0  0  0
    8.9058    1.1350    0.0451 C   0  0  0  0  0  0  0  0  0  0  0  0
    9.5611   -0.0756    0.1106 C   0  0  0  0  0  0  0  0  0  0  0  0
    8.7617   -1.1893    0.3049 C   0  0  0  0  0  0  0  0  0  0  0  0
   10.9292   -0.2042    0.2835 N   0  0  0  0  0  0  0  0  0  0  0  0
    7.5119   -3.9063    0.2572 C   0  0  0  0  0  0  0  0  0  0  0  0
    8.7434   -4.0489   -0.4335 C   0  0  0  0  0  0  0  0  0  0  0  0
    9.4314   -5.2607   -0.6483 C   0  0  0  0  0  0  0  0  0  0  0  0
    8.8560   -6.4445   -0.2937 C   0  0  0  0  0  0  0  0  0  0  0  0
    7.8568   -6.3428    0.6313 C   0  0  0  0  0  0  0  0  0  0  0  0
    7.2750   -5.0921    0.9892 C   0  0  0  0  0  0  0  0  0  0  0  0
    0.5008    0.8683    0.0468 H   0  0  0  0  0  0  0  0  0  0  0  0
    0.5176   -0.8524    0.0482 H   0  0  0  0  0  0  0  0  0  0  0  0
    2.6039    2.1813    0.0317 H   0  0  0  0  0  0  0  0  0  0  0  0
    5.0089    2.1806    0.0460 H   0  0  0  0  0  0  0  0  0  0  0  0
    2.5097   -2.0090    0.0477 H   0  0  0  0  0  0  0  0  0  0  0  0
    3.6233   -3.3794   -1.0766 H   0  0  0  0  0  0  0  0  0  0  0  0
    3.5873   -3.5631    0.7283 H   0  0  0  0  0  0  0  0  0  0  0  0
    5.2360   -4.7836    0.7258 H   0  0  0  0  0  0  0  0  0  0  0  0
    5.5922   -4.8531   -1.0837 H   0  0  0  0  0  0  0  0  0  0  0  0
    3.5039   -6.3275   -1.0201 H   0  0  0  0  0  0  0  0  0  0  0  0
    3.5476   -6.1622    0.7640 H   0  0  0  0  0  0  0  0  0  0  0  0
    5.5913   -7.2337    0.9913 H   0  0  0  0  0  0  0  0  0  0  0  0
    5.9336   -7.2502   -0.7946 H   0  0  0  0  0  0  0  0  0  0  0  0
    3.9694   -8.7694   -0.9329 H   0  0  0  0  0  0  0  0  0  0  0  0
    3.9288   -8.7478    0.8484 H   0  0  0  0  0  0  0  0  0  0  0  0
    6.2661   -9.7145    0.9244 H   0  0  0  0  0  0  0  0  0  0  0  0
    6.3135   -9.7468   -0.8428 H   0  0  0  0  0  0  0  0  0  0  0  0
    2.8086  -10.5047    0.0236 H   0  0  0  0  0  0  0  0  0  0  0  0
    2.0341  -13.8888    0.9334 H   0  0  0  0  0  0  0  0  0  0  0  0
    2.0338  -13.8871   -0.8700 H   0  0  0  0  0  0  0  0  0  0  0  0
    1.1418  -11.6430   -0.8755 H   0  0  0  0  0  0  0  0  0  0  0  0
    1.1383  -11.6767    0.9717 H   0  0  0  0  0  0  0  0  0  0  0  0
   -0.4886  -13.6835   -0.0167 H   0  0  0  0  0  0  0  0  0  0  0  0
   -2.1110  -14.3679    0.6954 H   0  0  0  0  0  0  0  0  0  0  0  0
   -2.5442  -14.2363   -1.0239 H   0  0  0  0  0  0  0  0  0  0  0  0
   -4.3487  -14.2728    1.4353 H   0  0  0  0  0  0  0  0  0  0  0  0
   -4.2234  -15.5028    0.1722 H   0  0  0  0  0  0  0  0  0  0  0  0
   -6.2006  -14.1183   -0.3090 H   0  0  0  0  0  0  0  0  0  0  0  0
   -4.9682  -13.7484   -1.5197 H   0  0  0  0  0  0  0  0  0  0  0  0
   -5.6413  -12.1214    0.9845 H   0  0  0  0  0  0  0  0  0  0  0  0
   -5.8668  -11.6300   -0.7011 H   0  0  0  0  0  0  0  0  0  0  0  0
    0.8237  -10.0478    0.1066 H   0  0  0  0  0  0  0  0  0  0  0  0
    0.9421   -7.7884    0.1264 H   0  0  0  0  0  0  0  0  0  0  0  0
   -1.1619   -6.4436    0.1253 H   0  0  0  0  0  0  0  0  0  0  0  0
   -3.3473   -7.6265    0.0873 H   0  0  0  0  0  0  0  0  0  0  0  0
    7.0576    2.1504    0.0325 H   0  0  0  0  0  0  0  0  0  0  0  0
    9.4695    2.0610    0.0483 H   0  0  0  0  0  0  0  0  0  0  0  0
    9.3322   -2.0511    0.6413 H   0  0  0  0  0  0  0  0  0  0  0  0
   11.5220    0.5663   -0.0009 H   0  0  0  0  0  0  0  0  0  0  0  0
   11.3270   -1.1129    0.0449 H   0  0  0  0  0  0  0  0  0  0  0  0
    9.3086   -3.2176   -0.8340 H   0  0  0  0  0  0  0  0  0  0  0  0
   10.4187   -5.2571   -1.0952 H   0  0  0  0  0  0  0  0  0  0  0  0
    9.2382   -7.4102   -0.6075 H   0  0  0  0  0  0  0  0  0  0  0  0
    7.5013   -7.2830    1.0475 H   0  0  0  0  0  0  0  0  0  0  0  0
    6.5298   -5.1915    1.7794 H   0  0  0  0  0  0  0  0  0  0  0  0
  1  2  1  0  0  0  0
  1 51  1  0  0  0  0
  1 52  1  0  0  0  0
  2  3  2  0  0  0  0
  2  7  1  0  0  0  0
  3  4  1  0  0  0  0
  3 53  1  0  0  0  0
  4  5  2  0  0  0  0
  4 54  1  0  0  0  0
  5  6  1  0  0  0  0
  5 39  1  0  0  0  0
  6  7  2  0  0  0  0
  6  8  1  0  0  0  0
  7 55  1  0  0  0  0
  8  9  1  0  0  0  0
  8 37  2  0  0  0  0
  9 10  1  0  0  0  0
  9 56  1  0  0  0  0
  9 57  1  0  0  0  0
 10 11  1  0  0  0  0
 10 58  1  0  0  0  0
 10 59  1  0  0  0  0
 11 12  1  0  0  0  0
 11 60  1  0  0  0  0
 11 61  1  0  0  0  0
 12 13  1  0  0  0  0
 12 62  1  0  0  0  0
 12 63  1  0  0  0  0
 13 14  1  0  0  0  0
 13 64  1  0  0  0  0
 13 65  1  0  0  0  0
 14 15  1  0  0  0  0
 14 66  1  0  0  0  0
 14 67  1  0  0  0  0
 15 16  1  0  0  0  0
 15 19  2  0  0  0  0
 16 17  2  0  0  0  0
 17 18  1  0  0  0  0
 18 19  1  0  0  0  0
 18 20  1  0  0  0  0
 19 68  1  0  0  0  0
 20 21  1  0  0  0  0
 20 69  1  0  0  0  0
 20 70  1  0  0  0  0
 21 22  1  0  0  0  0
 21 71  1  0  0  0  0
 21 72  1  0  0  0  0
 22 23  1  0  0  0  0
 22 73  1  0  0  0  0
 23 24  2  0  0  0  0
 23 32  1  0  0  0  0
 24 25  1  0  0  0  0
 24 29  1  0  0  0  0
 25 26  1  0  0  0  0
 25 74  1  0  0  0  0
 25 75  1  0  0  0  0
 26 27  1  0  0  0  0
 26 76  1  0  0  0  0
 26 77  1  0  0  0  0
 27 28  1  0  0  0  0
 27 78  1  0  0  0  0
 27 79  1  0  0  0  0
 28 29  1  0  0  0  0
 28 80  1  0  0  0  0
 28 81  1  0  0  0  0
 29 30  2  0  0  0  0
 30 31  1  0  0  0  0
 31 32  2  0  0  0  0
 31 36  1  0  0  0  0
 32 33  1  0  0  0  0
 33 34  2  0  0  0  0
 33 82  1  0  0  0  0
 34 35  1  0  0  0  0
 34 83  1  0  0  0  0
 35 36  2  0  0  0  0
 35 84  1  0  0  0  0
 36 85  1  0  0  0  0
 37 38  1  0  0  0  0
 37 45  1  0  0  0  0
 38 39  2  0  0  0  0
 38 43  1  0  0  0  0
 39 40  1  0  0  0  0
 40 41  2  0  0  0  0
 40 86  1  0  0  0  0
 41 42  1  0  0  0  0
 41 87  1  0  0  0  0
 42 43  2  0  0  0  0
 42 44  1  0  0  0  0
 43 88  1  0  0  0  0
 44 89  1  0  0  0  0
 44 90  1  0  0  0  0
 45 46  2  0  0  0  0
 45 50  1  0  0  0  0
 46 47  1  0  0  0  0
 46 91  1  0  0  0  0
 47 48  2  0  0  0  0
 47 92  1  0  0  0  0
 48 49  1  0  0  0  0
 48 93  1  0  0  0  0
 49 50  2  0  0  0  0
 49 94  1  0  0  0  0
 50 95  1  0  0  0  0
M  CHG  1   8   1
M  END
$$$$
