TZ5
 OpenBabel04121316203D

 95102  0  0  0  0  0  0  0  0999 V2000
    1.0948    0.2272    0.1973 N   0  0  0  0  0  0  0  0  0  0  0  0
    2.4774    0.2844    0.0298 C   0  0  0  0  0  0  0  0  0  0  0  0
    3.1159    1.4961   -0.0071 C   0  0  0  0  0  0  0  0  0  0  0  0
    4.5143    1.5204    0.0026 C   0  0  0  0  0  0  0  0  0  0  0  0
    5.3855    0.3574    0.1287 C   0  0  0  0  0  0  0  0  0  0  0  0
    4.7666   -0.8733    0.3280 C   0  0  0  0  0  0  0  0  0  0  0  0
    3.3553   -0.8012    0.2171 C   0  0  0  0  0  0  0  0  0  0  0  0
    5.5045   -2.0711    0.6202 N   0  3  0  0  0  0  0  0  0  0  0  0
    4.6587   -3.2635    0.5064 C   0  0  0  0  0  0  0  0  0  0  0  0
    5.3419   -4.5780    0.7214 C   0  0  0  0  0  0  0  0  0  0  0  0
    4.9124   -6.0523    0.8583 C   0  0  0  0  0  0  0  0  0  0  0  0
    5.7788   -7.3861    0.7716 C   0  0  0  0  0  0  0  0  0  0  0  0
    5.1171   -8.6880    0.4889 C   0  0  0  0  0  0  0  0  0  0  0  0
    5.8135   -9.9717    0.2930 C   0  0  0  0  0  0  0  0  0  0  0  0
    4.8052  -11.0931    0.1561 C   0  0  0  0  0  0  0  0  0  0  0  0
    5.2306  -12.3973    0.0385 C   0  0  0  0  0  0  0  0  0  0  0  0
    4.1759  -13.2324   -0.0233 N   0  0  0  0  0  0  0  0  0  0  0  0
    3.0704  -12.5064    0.0054 N   0  0  0  0  0  0  0  0  0  0  0  0
    3.3945  -11.1938    0.0596 N   0  0  0  0  0  0  0  0  0  0  0  0
    2.2072  -10.2832    0.0084 C   0  0  0  0  0  0  0  0  0  0  0  0
    2.6042   -8.8566   -0.0940 C   0  0  0  0  0  0  0  0  0  0  0  0
    1.8681   -7.6511   -0.2761 N   0  0  0  0  0  0  0  0  0  0  0  0
    2.3127   -6.3959   -0.7508 C   0  0  0  0  0  0  0  0  0  0  0  0
    1.6099   -5.3462   -0.1198 C   0  0  0  0  0  0  0  0  0  0  0  0
    0.1899   -5.6020    0.3231 C   0  0  0  0  0  0  0  0  0  0  0  0
   -0.5598   -4.3872    0.8307 C   0  0  0  0  0  0  0  0  0  0  0  0
   -0.2708   -3.2099   -0.0647 C   0  0  0  0  0  0  0  0  0  0  0  0
    1.1749   -2.9239    0.1037 C   0  0  0  0  0  0  0  0  0  0  0  0
    1.9919   -4.0897   -0.4084 C   0  0  0  0  0  0  0  0  0  0  0  0
    2.9545   -3.7730   -1.3472 N   0  0  0  0  0  0  0  0  0  0  0  0
    3.8301   -4.7066   -1.8762 C   0  0  0  0  0  0  0  0  0  0  0  0
    3.4864   -5.9943   -1.6934 C   0  0  0  0  0  0  0  0  0  0  0  0
    4.5780   -6.8648   -2.0966 C   0  0  0  0  0  0  0  0  0  0  0  0
    5.9797   -6.5246   -2.2480 C   0  0  0  0  0  0  0  0  0  0  0  0
    6.3382   -5.2411   -2.2565 C   0  0  0  0  0  0  0  0  0  0  0  0
    5.2681   -4.3221   -2.1972 C   0  0  0  0  0  0  0  0  0  0  0  0
    6.8739   -2.1632    0.6793 C   0  0  0  0  0  0  0  0  0  0  0  0
    7.4961   -0.9352    0.3132 C   0  0  0  0  0  0  0  0  0  0  0  0
    6.7519    0.2829    0.1078 C   0  0  0  0  0  0  0  0  0  0  0  0
    7.5348    1.4531   -0.0190 C   0  0  0  0  0  0  0  0  0  0  0  0
    8.9154    1.3884   -0.0187 C   0  0  0  0  0  0  0  0  0  0  0  0
    9.5935    0.1874    0.0226 C   0  0  0  0  0  0  0  0  0  0  0  0
    8.8141   -0.9226    0.2572 C   0  0  0  0  0  0  0  0  0  0  0  0
   10.9353    0.0020    0.2183 N   0  0  0  0  0  0  0  0  0  0  0  0
    7.8154   -3.5508    0.8992 C   0  0  0  0  0  0  0  0  0  0  0  0
    8.8869   -3.8137   -0.0075 C   0  0  0  0  0  0  0  0  0  0  0  0
    9.5310   -5.0391   -0.2413 C   0  0  0  0  0  0  0  0  0  0  0  0
    8.9961   -6.1627    0.2907 C   0  0  0  0  0  0  0  0  0  0  0  0
    8.1364   -5.9709    1.3379 C   0  0  0  0  0  0  0  0  0  0  0  0
    7.6375   -4.6977    1.7411 C   0  0  0  0  0  0  0  0  0  0  0  0
    0.5513    1.0497   -0.0574 H   0  0  0  0  0  0  0  0  0  0  0  0
    0.5584   -0.5971   -0.0448 H   0  0  0  0  0  0  0  0  0  0  0  0
    2.5252    2.4082   -0.0202 H   0  0  0  0  0  0  0  0  0  0  0  0
    4.9535    2.5207   -0.0377 H   0  0  0  0  0  0  0  0  0  0  0  0
    2.8915   -1.7423    0.3335 H   0  0  0  0  0  0  0  0  0  0  0  0
    4.4264   -2.9773   -0.4994 H   0  0  0  0  0  0  0  0  0  0  0  0
    3.8757   -3.1408    1.2450 H   0  0  0  0  0  0  0  0  0  0  0  0
    5.5399   -4.2727    1.7175 H   0  0  0  0  0  0  0  0  0  0  0  0
    6.1437   -4.6078   -0.0044 H   0  0  0  0  0  0  0  0  0  0  0  0
    4.6316   -6.1077   -0.1190 H   0  0  0  0  0  0  0  0  0  0  0  0
    4.0178   -6.1453    1.4589 H   0  0  0  0  0  0  0  0  0  0  0  0
    6.1247   -7.6056    1.7657 H   0  0  0  0  0  0  0  0  0  0  0  0
    6.5497   -7.4060    0.0052 H   0  0  0  0  0  0  0  0  0  0  0  0
    4.7204   -8.7452   -0.4863 H   0  0  0  0  0  0  0  0  0  0  0  0
    4.4910   -8.7850    1.3522 H   0  0  0  0  0  0  0  0  0  0  0  0
    6.5138  -10.1030    1.1146 H   0  0  0  0  0  0  0  0  0  0  0  0
    6.4034   -9.9382   -0.6412 H   0  0  0  0  0  0  0  0  0  0  0  0
    6.2616  -12.7256    0.0115 H   0  0  0  0  0  0  0  0  0  0  0  0
    1.6274  -10.4635    0.9221 H   0  0  0  0  0  0  0  0  0  0  0  0
    1.6168  -10.5310   -0.8763 H   0  0  0  0  0  0  0  0  0  0  0  0
    3.1271   -8.9058   -1.0236 H   0  0  0  0  0  0  0  0  0  0  0  0
    2.9286   -8.7598    0.9291 H   0  0  0  0  0  0  0  0  0  0  0  0
    0.8858   -7.7660   -0.0915 H   0  0  0  0  0  0  0  0  0  0  0  0
    0.0643   -6.4254    1.0291 H   0  0  0  0  0  0  0  0  0  0  0  0
   -0.2475   -5.8799   -0.6446 H   0  0  0  0  0  0  0  0  0  0  0  0
   -0.2276   -4.1752    1.8555 H   0  0  0  0  0  0  0  0  0  0  0  0
   -1.6290   -4.5903    0.8308 H   0  0  0  0  0  0  0  0  0  0  0  0
   -0.8626   -2.3284    0.1864 H   0  0  0  0  0  0  0  0  0  0  0  0
   -0.3951   -3.4274   -1.1311 H   0  0  0  0  0  0  0  0  0  0  0  0
    1.3766   -2.5701    1.1413 H   0  0  0  0  0  0  0  0  0  0  0  0
    1.3720   -2.1476   -0.6219 H   0  0  0  0  0  0  0  0  0  0  0  0
    4.3988   -7.8033   -1.7258 H   0  0  0  0  0  0  0  0  0  0  0  0
    6.7760   -7.2280   -1.9316 H   0  0  0  0  0  0  0  0  0  0  0  0
    7.3550   -4.9689   -1.9186 H   0  0  0  0  0  0  0  0  0  0  0  0
    5.6670   -3.3394   -1.9516 H   0  0  0  0  0  0  0  0  0  0  0  0
    7.0532    2.4253   -0.0237 H   0  0  0  0  0  0  0  0  0  0  0  0
    9.4847    2.3108    0.0162 H   0  0  0  0  0  0  0  0  0  0  0  0
    9.4232   -1.7656    0.5661 H   0  0  0  0  0  0  0  0  0  0  0  0
   11.5543    0.7536   -0.0400 H   0  0  0  0  0  0  0  0  0  0  0  0
   11.2956   -0.9314    0.0044 H   0  0  0  0  0  0  0  0  0  0  0  0
    9.2462   -3.0832   -0.7188 H   0  0  0  0  0  0  0  0  0  0  0  0
   10.3096   -5.1120   -0.9884 H   0  0  0  0  0  0  0  0  0  0  0  0
    9.1834   -7.1474   -0.1281 H   0  0  0  0  0  0  0  0  0  0  0  0
    7.7248   -6.8842    1.7350 H   0  0  0  0  0  0  0  0  0  0  0  0
    6.8814   -4.8417    2.5253 H   0  0  0  0  0  0  0  0  0  0  0  0
  1  2  1  0  0  0  0
  1 51  1  0  0  0  0
  1 52  1  0  0  0  0
  2  3  2  0  0  0  0
  2  7  1  0  0  0  0
  3  4  1  0  0  0  0
  3 53  1  0  0  0  0
  4  5  2  0  0  0  0
  4 54  1  0  0  0  0
  5  6  1  0  0  0  0
  5 39  1  0  0  0  0
  6  7  2  0  0  0  0
  6  8  1  0  0  0  0
  7 55  1  0  0  0  0
  8  9  1  0  0  0  0
  8 37  2  0  0  0  0
  9 10  1  0  0  0  0
  9 56  1  0  0  0  0
  9 57  1  0  0  0  0
 10 11  1  0  0  0  0
 10 58  1  0  0  0  0
 10 59  1  0  0  0  0
 11 12  1  0  0  0  0
 11 60  1  0  0  0  0
 11 61  1  0  0  0  0
 12 13  1  0  0  0  0
 12 62  1  0  0  0  0
 12 63  1  0  0  0  0
 13 14  1  0  0  0  0
 13 64  1  0  0  0  0
 13 65  1  0  0  0  0
 14 15  1  0  0  0  0
 14 66  1  0  0  0  0
 14 67  1  0  0  0  0
 15 16  2  0  0  0  0
 15 19  1  0  0  0  0
 16 17  1  0  0  0  0
 16 68  1  0  0  0  0
 17 18  2  0  0  0  0
 18 19  1  0  0  0  0
 19 20  1  0  0  0  0
 20 21  1  0  0  0  0
 20 69  1  0  0  0  0
 20 70  1  0  0  0  0
 21 22  1  0  0  0  0
 21 71  1  0  0  0  0
 21 72  1  0  0  0  0
 22 23  1  0  0  0  0
 22 73  1  0  0  0  0
 23 24  2  0  0  0  0
 23 32  1  0  0  0  0
 24 25  1  0  0  0  0
 24 29  1  0  0  0  0
 25 26  1  0  0  0  0
 25 74  1  0  0  0  0
 25 75  1  0  0  0  0
 26 27  1  0  0  0  0
 26 76  1  0  0  0  0
 26 77  1  0  0  0  0
 27 28  1  0  0  0  0
 27 78  1  0  0  0  0
 27 79  1  0  0  0  0
 28 29  1  0  0  0  0
 28 80  1  0  0  0  0
 28 81  1  0  0  0  0
 29 30  2  0  0  0  0
 30 31  1  0  0  0  0
 31 32  2  0  0  0  0
 31 36  1  0  0  0  0
 32 33  1  0  0  0  0
 33 34  2  0  0  0  0
 33 82  1  0  0  0  0
 34 35  1  0  0  0  0
 34 83  1  0  0  0  0
 35 36  2  0  0  0  0
 35 84  1  0  0  0  0
 36 85  1  0  0  0  0
 37 38  1  0  0  0  0
 37 45  1  0  0  0  0
 38 39  2  0  0  0  0
 38 43  1  0  0  0  0
 39 40  1  0  0  0  0
 40 41  2  0  0  0  0
 40 86  1  0  0  0  0
 41 42  1  0  0  0  0
 41 87  1  0  0  0  0
 42 43  2  0  0  0  0
 42 44  1  0  0  0  0
 43 88  1  0  0  0  0
 44 89  1  0  0  0  0
 44 90  1  0  0  0  0
 45 46  2  0  0  0  0
 45 50  1  0  0  0  0
 46 47  1  0  0  0  0
 46 91  1  0  0  0  0
 47 48  2  0  0  0  0
 47 92  1  0  0  0  0
 48 49  1  0  0  0  0
 48 93  1  0  0  0  0
 49 50  2  0  0  0  0
 49 94  1  0  0  0  0
 50 95  1  0  0  0  0
M  CHG  1   8   1
M  END
$$$$
