TZA
 OpenBabel04121316203D

 30 30  0  0  1  0  0  0  0  0999 V2000
    8.3739    0.1629    3.9451 N   0  0  0  0  0  0  0  0  0  0  0  0
    6.9871    0.6292    4.1538 C   0  0  2  0  0  0  0  0  0  0  0  0
    6.9678    1.7219    4.0863 H   0  0  0  0  0  0  0  0  0  0  0  0
    6.4375    0.2331    5.5440 C   0  0  0  0  0  0  0  0  0  0  0  0
    5.3740   -0.3449    5.7489 O   0  0  0  0  0  0  0  0  0  0  0  0
    7.2320    0.6088    6.5700 O   0  0  0  0  0  0  0  0  0  0  0  0
    6.0889    0.0679    3.0504 C   0  0  0  0  0  0  0  0  0  0  0  0
    6.0942   -1.4601    3.0489 C   0  0  0  0  0  0  0  0  0  0  0  0
    5.0875   -1.9890    2.0427 C   0  0  2  0  0  0  0  0  0  0  0  0
    4.7313   -1.2050    1.3626 H   0  0  0  0  0  0  0  0  0  0  0  0
    3.9210   -2.5112    2.8408 C   0  0  0  0  0  0  0  0  0  0  0  0
    3.4592   -3.7615    2.7072 C   0  0  0  0  0  0  0  0  0  0  0  0
    4.0003   -4.7166    1.6792 C   0  0  1  0  0  0  0  0  0  0  0  0
    3.2642   -4.7869    0.8716 H   0  0  0  0  0  0  0  0  0  0  0  0
    5.3019   -4.2767    1.0728 C   0  0  0  0  0  0  0  0  0  0  0  0
    5.7850   -3.0361    1.2185 C   0  0  0  0  0  0  0  0  0  0  0  0
    4.1868   -6.0268    2.2741 N   0  0  0  0  0  0  0  0  0  0  0  0
    8.4060   -0.8582    3.9836 H   0  0  0  0  0  0  0  0  0  0  0  0
    9.0235    0.4896    4.6482 H   0  0  0  0  0  0  0  0  0  0  0  0
    7.9916    1.1459    6.2856 H   0  0  0  0  0  0  0  0  0  0  0  0
    6.4180    0.4249    2.0645 H   0  0  0  0  0  0  0  0  0  0  0  0
    5.0632    0.4381    3.1855 H   0  0  0  0  0  0  0  0  0  0  0  0
    5.8634   -1.8505    4.0470 H   0  0  0  0  0  0  0  0  0  0  0  0
    7.1000   -1.8366    2.8388 H   0  0  0  0  0  0  0  0  0  0  0  0
    3.5048   -1.8568    3.6068 H   0  0  0  0  0  0  0  0  0  0  0  0
    2.6575   -4.0869    3.3628 H   0  0  0  0  0  0  0  0  0  0  0  0
    5.8632   -4.9946    0.4828 H   0  0  0  0  0  0  0  0  0  0  0  0
    6.7309   -2.7610    0.7556 H   0  0  0  0  0  0  0  0  0  0  0  0
    3.3053   -6.3176    2.6881 H   0  0  0  0  0  0  0  0  0  0  0  0
    4.8504   -5.9348    3.0408 H   0  0  0  0  0  0  0  0  0  0  0  0
  1 18  1  0  0  0  0
  1 19  1  0  0  0  0
  2  4  1  0  0  0  0
  2  7  1  0  0  0  0
  2  3  1  6  0  0  0
  2  1  1  0  0  0  0
  4  5  2  0  0  0  0
  4  6  1  0  0  0  0
  6 20  1  0  0  0  0
  7  8  1  0  0  0  0
  7 21  1  0  0  0  0
  7 22  1  0  0  0  0
  8 23  1  0  0  0  0
  8 24  1  0  0  0  0
  9 11  1  0  0  0  0
  9 16  1  0  0  0  0
  9 10  1  6  0  0  0
  9  8  1  0  0  0  0
 11 12  2  0  0  0  0
 11 25  1  0  0  0  0
 12 13  1  0  0  0  0
 12 26  1  0  0  0  0
 13 14  1  6  0  0  0
 13 15  1  0  0  0  0
 13 17  1  0  0  0  0
 15 16  2  0  0  0  0
 15 27  1  0  0  0  0
 16 28  1  0  0  0  0
 17 29  1  0  0  0  0
 17 30  1  0  0  0  0
M  END
$$$$
