TZD
 OpenBabel04121316203D

 45 46  0  0  0  0  0  0  0  0999 V2000
    3.2462   -7.7955   -5.7152 C   0  0  0  0  0  0  0  0  0  0  0  0
    3.1889   -9.0985   -4.9606 C   0  0  0  0  0  0  0  0  0  0  0  0
    3.5344  -10.2552   -5.5601 N   0  0  0  0  0  0  0  0  0  0  0  0
    3.5558  -11.3805   -4.7765 C   0  0  0  0  0  0  0  0  0  0  0  0
    3.3197  -11.3658   -3.4316 C   0  0  0  0  0  0  0  0  0  0  0  0
    2.5286  -10.2876   -3.1545 C   0  0  0  0  0  0  0  0  0  0  0  0
    2.5994   -9.0930   -3.7672 N   0  0  0  0  0  0  0  0  0  0  0  0
    1.6257  -10.5670   -2.0920 N   0  0  0  0  0  0  0  0  0  0  0  0
    3.4857  -12.4070   -2.3158 C   0  0  0  0  0  0  0  0  0  0  0  0
    3.5226  -11.8604   -0.7492 N   0  0  0  0  0  0  0  0  0  0  0  0
    3.2274  -12.8489    0.2670 C   0  0  0  0  0  0  0  0  0  0  0  0
    3.1311  -14.0289    0.1623 O   0  0  0  0  0  0  0  0  0  0  0  0
    2.9065  -12.0033    1.7998 S   0  0  0  0  0  0  0  0  0  0  0  0
    3.1480  -10.4116    1.1168 C   0  0  0  0  0  0  0  0  0  0  0  0
    3.5633  -10.4547   -0.1902 C   0  0  0  0  0  0  0  0  0  0  0  0
    3.7062   -9.1719   -1.1014 C   0  0  0  0  0  0  0  0  0  0  0  0
    2.7519   -9.2110    1.9915 C   0  0  0  0  0  0  0  0  0  0  0  0
    2.7104   -7.9617    1.1592 C   0  0  0  0  0  0  0  0  0  0  0  0
    2.6374   -6.6474    1.6477 O   0  0  0  0  0  0  0  0  0  0  0  0
    2.8118   -5.5986    0.4088 P   0  0  2  0  0  0  0  0  0  0  0  0
    3.5342   -6.0911   -0.7953 O   0  0  0  0  0  0  0  0  0  0  0  0
    3.4381   -4.2591    1.0155 O   0  0  0  0  0  0  0  0  0  0  0  0
    4.8201   -3.7462    0.3708 P   0  0  0  0  0  0  0  0  0  0  0  0
    5.6319   -4.6600   -0.4744 O   0  0  0  0  0  0  0  0  0  0  0  0
    4.4654   -2.3359   -0.2837 O   0  0  0  0  0  0  0  0  0  0  0  0
    5.7372   -3.3071    1.6017 O   0  0  0  0  0  0  0  0  0  0  0  0
    1.2692   -5.3179    0.0729 O   0  0  0  0  0  0  0  0  0  0  0  0
    3.3474   -7.9862   -6.7861 H   0  0  0  0  0  0  0  0  0  0  0  0
    4.0767   -7.1507   -5.3977 H   0  0  0  0  0  0  0  0  0  0  0  0
    2.3182   -7.2307   -5.5604 H   0  0  0  0  0  0  0  0  0  0  0  0
    3.6584  -12.3120   -5.3251 H   0  0  0  0  0  0  0  0  0  0  0  0
    2.2549  -11.0705   -1.4836 H   0  0  0  0  0  0  0  0  0  0  0  0
    1.3069   -9.8308   -1.4837 H   0  0  0  0  0  0  0  0  0  0  0  0
    4.3553  -13.0569   -2.4534 H   0  0  0  0  0  0  0  0  0  0  0  0
    2.5931  -13.0672   -2.3834 H   0  0  0  0  0  0  0  0  0  0  0  0
    3.8205   -8.1619   -0.7685 H   0  0  0  0  0  0  0  0  0  0  0  0
    2.7440   -8.8366   -1.5050 H   0  0  0  0  0  0  0  0  0  0  0  0
    4.5206   -9.2109   -1.8122 H   0  0  0  0  0  0  0  0  0  0  0  0
    3.5183   -9.0818    2.7578 H   0  0  0  0  0  0  0  0  0  0  0  0
    1.7735   -9.3347    2.4707 H   0  0  0  0  0  0  0  0  0  0  0  0
    1.9446   -8.0917    0.3757 H   0  0  0  0  0  0  0  0  0  0  0  0
    3.7454   -7.9539    0.8458 H   0  0  0  0  0  0  0  0  0  0  0  0
    3.5533   -2.2654   -0.6099 H   0  0  0  0  0  0  0  0  0  0  0  0
    6.6209   -3.6830    1.3926 H   0  0  0  0  0  0  0  0  0  0  0  0
    1.0540   -4.8499   -0.7531 H   0  0  0  0  0  0  0  0  0  0  0  0
  1  2  1  0  0  0  0
  1 28  1  0  0  0  0
  1 29  1  0  0  0  0
  1 30  1  0  0  0  0
  2  3  2  0  0  0  0
  2  7  1  0  0  0  0
  3  4  1  0  0  0  0
  4  5  2  0  0  0  0
  4 31  1  0  0  0  0
  5  6  1  0  0  0  0
  5  9  1  0  0  0  0
  6  7  2  0  0  0  0
  6  8  1  0  0  0  0
  8 32  1  0  0  0  0
  8 33  1  0  0  0  0
  9 10  1  0  0  0  0
  9 34  1  0  0  0  0
  9 35  1  0  0  0  0
 10 11  1  0  0  0  0
 10 15  1  0  0  0  0
 11 12  2  0  0  0  0
 11 13  1  0  0  0  0
 13 14  1  0  0  0  0
 14 15  2  0  0  0  0
 14 17  1  0  0  0  0
 15 16  1  0  0  0  0
 16 36  1  0  0  0  0
 16 37  1  0  0  0  0
 16 38  1  0  0  0  0
 17 18  1  0  0  0  0
 17 39  1  0  0  0  0
 17 40  1  0  0  0  0
 18 19  1  0  0  0  0
 18 41  1  0  0  0  0
 18 42  1  0  0  0  0
 20 22  1  1  0  0  0
 20 27  1  0  0  0  0
 20 21  2  0  0  0  0
 20 19  1  0  0  0  0
 22 23  1  0  0  0  0
 23 24  2  0  0  0  0
 23 25  1  0  0  0  0
 23 26  1  0  0  0  0
 25 43  1  0  0  0  0
 26 44  1  0  0  0  0
 27 45  1  0  0  0  0
M  END
$$$$
