TZP
 OpenBabel04121316203D

 23 23  0  0  0  0  0  0  0  0999 V2000
    1.0529    0.3570   -0.1019 C   0  0  0  0  0  0  0  0  0  0  0  0
    2.5341    0.1190   -0.0978 C   0  0  0  0  0  0  0  0  0  0  0  0
    3.3506    1.2372   -0.0983 N   0  0  0  0  0  0  0  0  0  0  0  0
    4.6003    0.8750   -0.1078 C   0  0  0  0  0  0  0  0  0  0  0  0
    4.9234   -0.8009   -0.1028 S   0  0  0  0  0  0  0  0  0  0  0  0
    3.2338   -1.0887   -0.0930 C   0  0  0  0  0  0  0  0  0  0  0  0
    2.7564   -2.5027   -0.0879 C   0  0  0  0  0  0  0  0  0  0  0  0
    1.2553   -2.5083   -0.0801 C   0  0  0  0  0  0  0  0  0  0  0  0
    0.7429   -3.7886   -0.0810 O   0  0  0  0  0  0  0  0  0  0  0  0
   -0.9870   -3.7830   -0.0729 P   0  0  0  0  0  0  0  0  0  0  0  0
   -1.0329   -3.4437   -1.5576 O   0  0  0  0  0  0  0  0  0  0  0  0
   -0.9575   -5.3906    0.1307 O   0  0  0  0  0  0  0  0  0  0  0  0
   -2.7170   -3.7774   -0.0648 O   0  0  0  0  0  0  0  0  0  0  0  0
    0.7949    1.4160   -0.0999 H   0  0  0  0  0  0  0  0  0  0  0  0
    0.5824   -0.0742    0.7884 H   0  0  0  0  0  0  0  0  0  0  0  0
    0.5858   -0.0712   -0.9954 H   0  0  0  0  0  0  0  0  0  0  0  0
    5.4137    1.5949   -0.1174 H   0  0  0  0  0  0  0  0  0  0  0  0
    3.1317   -3.0502    0.7868 H   0  0  0  0  0  0  0  0  0  0  0  0
    3.1212   -3.0513   -0.9667 H   0  0  0  0  0  0  0  0  0  0  0  0
    0.8868   -2.0276   -0.9850 H   0  0  0  0  0  0  0  0  0  0  0  0
    0.8749   -2.0401    0.8283 H   0  0  0  0  0  0  0  0  0  0  0  0
   -0.0909   -5.7336   -0.1539 H   0  0  0  0  0  0  0  0  0  0  0  0
   -3.0068   -2.9735   -0.5322 H   0  0  0  0  0  0  0  0  0  0  0  0
  1  2  1  0  0  0  0
  1 14  1  0  0  0  0
  1 15  1  0  0  0  0
  1 16  1  0  0  0  0
  2  3  1  0  0  0  0
  2  6  2  0  0  0  0
  3  4  2  0  0  0  0
  4  5  1  0  0  0  0
  4 17  1  0  0  0  0
  5  6  1  0  0  0  0
  6  7  1  0  0  0  0
  7  8  1  0  0  0  0
  7 18  1  0  0  0  0
  7 19  1  0  0  0  0
  8  9  1  0  0  0  0
  8 20  1  0  0  0  0
  8 21  1  0  0  0  0
  9 10  1  0  0  0  0
 10 11  2  0  0  0  0
 10 12  1  0  0  0  0
 10 13  1  0  0  0  0
 12 22  1  0  0  0  0
 13 23  1  0  0  0  0
M  END
$$$$
