U05
 OpenBabel04121316203D

 36 38  0  0  0  0  0  0  0  0999 V2000
    0.8397   -0.3215    0.9315 C   0  0  0  0  0  0  0  0  0  0  0  0
    2.3826   -0.2716    0.8012 C   0  0  0  0  0  0  0  0  0  0  0  0
    2.7913    0.7832   -0.1458 N   0  0  0  0  0  0  0  0  0  0  0  0
    4.2945    0.9665   -0.3189 C   0  0  0  0  0  0  0  0  0  0  0  0
    4.8163    2.2438   -0.3898 N   0  0  0  0  0  0  0  0  0  0  0  0
    6.1426    2.4578   -0.7353 C   0  0  0  0  0  0  0  0  0  0  0  0
    7.0943    1.4670   -0.7711 C   0  0  0  0  0  0  0  0  0  0  0  0
    6.5891    0.1922   -0.8776 C   0  0  0  0  0  0  0  0  0  0  0  0
    5.1795   -0.0186   -0.7962 C   0  0  0  0  0  0  0  0  0  0  0  0
    4.6990   -1.1845   -1.4993 C   0  0  0  0  0  0  0  0  0  0  0  0
    5.3974   -2.2279   -1.4086 O   0  0  0  0  0  0  0  0  0  0  0  0
    3.4839   -1.1288   -2.1871 N   0  0  0  0  0  0  0  0  0  0  0  0
    2.6938    0.1268   -2.4087 C   0  0  0  0  0  0  0  0  0  0  0  0
    1.7432    0.2233   -1.4420 C   0  0  0  0  0  0  0  0  0  0  0  0
    0.5942    1.1172   -1.5273 C   0  0  0  0  0  0  0  0  0  0  0  0
    0.8587    2.4171   -1.8150 C   0  0  0  0  0  0  0  0  0  0  0  0
    2.1548    2.6288   -2.2352 C   0  0  0  0  0  0  0  0  0  0  0  0
    3.0216    1.4936   -2.6427 C   0  0  0  0  0  0  0  0  0  0  0  0
   -0.0747    3.5026   -1.5166 N   0  3  0  0  0  0  0  0  0  0  0  0
    0.3776    4.6536   -1.4791 O   0  0  0  0  0  0  0  0  0  0  0  0
   -1.2701    3.2092   -1.3425 O   0  5  0  0  0  0  0  0  0  0  0  0
    2.7497   -2.4198   -2.0204 C   0  0  0  0  0  0  0  0  0  0  0  0
    0.4861   -0.9704    1.7221 H   0  0  0  0  0  0  0  0  0  0  0  0
    0.3455   -0.7539    0.0463 H   0  0  0  0  0  0  0  0  0  0  0  0
    0.4482    0.6976    1.0591 H   0  0  0  0  0  0  0  0  0  0  0  0
    2.7656   -1.2508    0.5054 H   0  0  0  0  0  0  0  0  0  0  0  0
    2.8090   -0.0277    1.7724 H   0  0  0  0  0  0  0  0  0  0  0  0
    6.4239    3.4643   -1.0624 H   0  0  0  0  0  0  0  0  0  0  0  0
    8.1605    1.6789   -0.7982 H   0  0  0  0  0  0  0  0  0  0  0  0
    7.2710   -0.6270   -1.1216 H   0  0  0  0  0  0  0  0  0  0  0  0
   -0.4060    0.7816   -1.2553 H   0  0  0  0  0  0  0  0  0  0  0  0
    2.6169    3.5676   -1.9128 H   0  0  0  0  0  0  0  0  0  0  0  0
    4.0571    1.8207   -2.6023 H   0  0  0  0  0  0  0  0  0  0  0  0
    3.4461   -3.2731   -1.9681 H   0  0  0  0  0  0  0  0  0  0  0  0
    2.0618   -2.5871   -2.8434 H   0  0  0  0  0  0  0  0  0  0  0  0
    2.2014   -2.4870   -1.0658 H   0  0  0  0  0  0  0  0  0  0  0  0
  1  2  1  0  0  0  0
  1 23  1  0  0  0  0
  1 24  1  0  0  0  0
  1 25  1  0  0  0  0
  2  3  1  0  0  0  0
  2 26  1  0  0  0  0
  2 27  1  0  0  0  0
  3  4  1  0  0  0  0
  3 14  1  0  0  0  0
  4  5  2  0  0  0  0
  4  9  1  0  0  0  0
  5  6  1  0  0  0  0
  6  7  2  0  0  0  0
  6 28  1  0  0  0  0
  7  8  1  0  0  0  0
  7 29  1  0  0  0  0
  8  9  2  0  0  0  0
  8 30  1  0  0  0  0
  9 10  1  0  0  0  0
 10 11  2  0  0  0  0
 10 12  1  0  0  0  0
 12 13  1  0  0  0  0
 12 22  1  0  0  0  0
 13 14  2  0  0  0  0
 13 18  1  0  0  0  0
 14 15  1  0  0  0  0
 15 16  2  0  0  0  0
 15 31  1  0  0  0  0
 16 17  1  0  0  0  0
 16 19  1  0  0  0  0
 17 18  2  0  0  0  0
 17 32  1  0  0  0  0
 18 33  1  0  0  0  0
 19 20  2  0  0  0  0
 19 21  1  0  0  0  0
 22 34  1  0  0  0  0
 22 35  1  0  0  0  0
 22 36  1  0  0  0  0
M  CHG  2  19   1  21  -1
M  END
$$$$
