U20
 OpenBabel04121316203D

108110  0  0  1  0  0  0  0  0999 V2000
    3.1195  -11.1449    5.1800 C   0  0  0  0  0  0  0  0  0  0  0  0
    3.2400  -10.8862    3.6904 C   0  0  0  0  0  0  0  0  0  0  0  0
    4.7016  -10.7702    3.2998 C   0  0  0  0  0  0  0  0  0  0  0  0
    4.8589  -10.5177    1.8075 C   0  0  0  0  0  0  0  0  0  0  0  0
    6.3450  -10.4465    1.5110 C   0  0  0  0  0  0  0  0  0  0  0  0
    6.6433  -10.2814    0.0412 C   0  0  0  0  0  0  0  0  0  0  0  0
    8.1816  -10.3642   -0.1415 C   0  0  0  0  0  0  0  0  0  0  0  0
    8.4941  -10.2456   -1.6107 C   0  0  0  0  0  0  0  0  0  0  0  0
    9.9446  -10.0575   -2.1343 C   0  0  0  0  0  0  0  0  0  0  0  0
   10.0589   -9.9333   -3.6959 C   0  0  0  0  0  0  0  0  0  0  0  0
   11.3875   -9.6113   -4.3544 C   0  0  0  0  0  0  0  0  0  0  0  0
   11.3047   -9.2683   -5.8977 C   0  0  2  0  0  0  0  0  0  0  0  0
   11.8422   -8.3190   -6.0146 H   0  0  0  0  0  0  0  0  0  0  0  0
    9.9501   -9.1613   -6.6994 C   0  0  0  0  0  0  0  0  0  0  0  0
    9.3726   -7.7141   -6.6916 C   0  0  0  0  0  0  0  0  0  0  0  0
   10.0628   -6.7942   -6.7402 O   0  0  0  0  0  0  0  0  0  0  0  0
    7.9822   -7.6865   -6.4245 O   0  0  0  0  0  0  0  0  0  0  0  0
    7.1795   -6.4709   -5.9108 C   0  0  1  0  0  0  0  0  0  0  0  0
    6.4949   -6.2380   -6.7269 H   0  0  0  0  0  0  0  0  0  0  0  0
    6.2063   -6.7184   -4.6481 C   0  0  2  0  0  0  0  0  0  0  0  0
    5.5104   -7.5502   -4.8185 H   0  0  0  0  0  0  0  0  0  0  0  0
    5.3907   -5.5975   -4.2589 O   0  0  0  0  0  0  0  0  0  0  0  0
    7.0139   -6.9732   -3.4126 C   0  0  1  0  0  0  0  0  0  0  0  0
    6.4532   -6.8632   -2.4715 H   0  0  0  0  0  0  0  0  0  0  0  0
    7.3766   -8.4153   -3.4418 C   0  0  0  0  0  0  0  0  0  0  0  0
    7.4611   -9.1217   -4.6496 O   0  0  0  0  0  0  0  0  0  0  0  0
    8.0962   -6.0120   -3.2488 O   0  0  0  0  0  0  0  0  0  0  0  0
    9.0052   -5.8482   -4.3634 C   0  0  1  0  0  0  0  0  0  0  0  0
    9.4321   -6.8398   -4.5028 H   0  0  0  0  0  0  0  0  0  0  0  0
    8.1433   -5.3308   -5.5445 C   0  0  2  0  0  0  0  0  0  0  0  0
    8.7453   -5.0498   -6.4064 H   0  0  0  0  0  0  0  0  0  0  0  0
    7.4344   -4.1047   -5.1662 N   0  0  0  0  0  0  0  0  0  0  0  0
    6.4506   -3.5604   -5.9568 C   0  0  0  0  0  0  0  0  0  0  0  0
    6.1066   -4.0195   -7.0406 O   0  0  0  0  0  0  0  0  0  0  0  0
    5.7642   -2.3832   -5.3418 C   0  0  0  0  0  0  0  0  0  0  0  0
   10.1675   -4.9888   -4.2053 O   0  0  0  0  0  0  0  0  0  0  0  0
   11.3087   -5.5822   -3.1398 P   0  0  2  0  0  0  0  0  0  0  0  0
   10.2897   -5.4698   -1.9849 O   0  0  0  0  0  0  0  0  0  0  0  0
   12.0412   -4.1058   -2.5898 O   0  0  0  0  0  0  0  0  0  0  0  0
   11.4751   -3.8885   -0.9444 P   0  0  2  0  0  0  0  0  0  0  0  0
   10.4031   -4.9738   -1.1846 O   0  0  0  0  0  0  0  0  0  0  0  0
   10.3816   -2.6116   -1.1459 O   0  0  0  0  0  0  0  0  0  0  0  0
    9.0008   -3.0449   -1.2781 C   0  0  0  0  0  0  0  0  0  0  0  0
    7.9010   -2.0106   -1.2811 C   0  0  1  0  0  0  0  0  0  0  0  0
    7.2479   -2.2235   -2.1405 H   0  0  0  0  0  0  0  0  0  0  0  0
    7.0643   -2.1653   -0.1154 O   0  0  0  0  0  0  0  0  0  0  0  0
    6.3167   -0.9472   -0.0313 C   0  0  2  0  0  0  0  0  0  0  0  0
    5.4564   -1.0117   -0.7125 H   0  0  0  0  0  0  0  0  0  0  0  0
    7.3089    0.1499   -0.4924 C   0  0  1  0  0  0  0  0  0  0  0  0
    7.7904    0.6050    0.3805 H   0  0  0  0  0  0  0  0  0  0  0  0
    8.3760   -0.5846   -1.2959 C   0  0  2  0  0  0  0  0  0  0  0  0
    9.3373   -0.4728   -0.7864 H   0  0  0  0  0  0  0  0  0  0  0  0
    8.5218   -0.1310   -2.6358 O   0  0  0  0  0  0  0  0  0  0  0  0
    6.7141    1.1891   -1.2666 O   0  0  0  0  0  0  0  0  0  0  0  0
    5.7785   -0.7593    1.3222 N   0  0  0  0  0  0  0  0  0  0  0  0
    5.6517   -1.8202    2.2059 C   0  0  0  0  0  0  0  0  0  0  0  0
    5.0157   -1.6956    3.3746 C   0  0  0  0  0  0  0  0  0  0  0  0
    4.4477   -0.3889    3.7378 C   0  0  0  0  0  0  0  0  0  0  0  0
    3.7587   -0.2480    4.7400 O   0  0  0  0  0  0  0  0  0  0  0  0
    4.7181    0.6302    2.8757 N   0  0  0  0  0  0  0  0  0  0  0  0
    4.3024    1.5234    3.0882 H   0  0  0  0  0  0  0  0  0  0  0  0
    5.2147    0.4767    1.6133 C   0  0  0  0  0  0  0  0  0  0  0  0
    5.1458    1.4040    0.8079 O   0  0  0  0  0  0  0  0  0  0  0  0
   12.6761   -2.6726   -0.6753 O   0  0  0  0  0  0  0  0  0  0  0  0
   12.4502   -5.7081   -4.4336 O   0  0  0  0  0  0  0  0  0  0  0  0
   12.1326  -10.2487   -6.5439 O   0  0  0  0  0  0  0  0  0  0  0  0
    2.0682  -11.2290    5.4652 H   0  0  0  0  0  0  0  0  0  0  0  0
    3.5703  -10.3279    5.7530 H   0  0  0  0  0  0  0  0  0  0  0  0
    3.6285  -12.0748    5.4546 H   0  0  0  0  0  0  0  0  0  0  0  0
    2.7110   -9.9630    3.4296 H   0  0  0  0  0  0  0  0  0  0  0  0
    2.7704  -11.7048    3.1336 H   0  0  0  0  0  0  0  0  0  0  0  0
    5.2316  -11.6929    3.5701 H   0  0  0  0  0  0  0  0  0  0  0  0
    5.1767   -9.9548    3.8603 H   0  0  0  0  0  0  0  0  0  0  0  0
    4.3603   -9.5840    1.5199 H   0  0  0  0  0  0  0  0  0  0  0  0
    4.3937  -11.3285    1.2339 H   0  0  0  0  0  0  0  0  0  0  0  0
    6.8283  -11.3660    1.8584 H   0  0  0  0  0  0  0  0  0  0  0  0
    6.7906   -9.6101    2.0633 H   0  0  0  0  0  0  0  0  0  0  0  0
    6.2381   -9.3160   -0.3046 H   0  0  0  0  0  0  0  0  0  0  0  0
    6.1349  -11.0532   -0.5512 H   0  0  0  0  0  0  0  0  0  0  0  0
    8.5877  -11.2844    0.2710 H   0  0  0  0  0  0  0  0  0  0  0  0
    8.6208   -9.5051    0.3852 H   0  0  0  0  0  0  0  0  0  0  0  0
    8.0129   -9.2914   -1.6649 H   0  0  0  0  0  0  0  0  0  0  0  0
    7.9289  -10.9659   -2.2149 H   0  0  0  0  0  0  0  0  0  0  0  0
   10.5465  -10.8944   -1.7839 H   0  0  0  0  0  0  0  0  0  0  0  0
   10.3343   -9.1331   -1.6895 H   0  0  0  0  0  0  0  0  0  0  0  0
    9.5721   -9.0288   -3.9999 H   0  0  0  0  0  0  0  0  0  0  0  0
    9.5639  -10.7766   -4.1856 H   0  0  0  0  0  0  0  0  0  0  0  0
   12.1077  -10.4112   -4.1537 H   0  0  0  0  0  0  0  0  0  0  0  0
   11.7828   -8.7145   -3.8539 H   0  0  0  0  0  0  0  0  0  0  0  0
    9.2362   -9.9341   -6.3999 H   0  0  0  0  0  0  0  0  0  0  0  0
   10.1581   -9.3655   -7.7609 H   0  0  0  0  0  0  0  0  0  0  0  0
    5.9671   -5.0256   -3.7068 H   0  0  0  0  0  0  0  0  0  0  0  0
    8.3509   -8.3404   -2.9966 H   0  0  0  0  0  0  0  0  0  0  0  0
    6.6274   -9.0002   -2.9106 H   0  0  0  0  0  0  0  0  0  0  0  0
    8.0126   -8.5788   -5.2204 H   0  0  0  0  0  0  0  0  0  0  0  0
    7.7892   -3.6035   -4.3596 H   0  0  0  0  0  0  0  0  0  0  0  0
    6.2036   -2.1230   -4.3763 H   0  0  0  0  0  0  0  0  0  0  0  0
    4.7097   -2.6303   -5.1871 H   0  0  0  0  0  0  0  0  0  0  0  0
    5.8638   -1.5400   -6.0255 H   0  0  0  0  0  0  0  0  0  0  0  0
    8.7716   -3.7362   -0.4560 H   0  0  0  0  0  0  0  0  0  0  0  0
    8.9137   -3.5516   -2.2429 H   0  0  0  0  0  0  0  0  0  0  0  0
    8.4195    0.8389   -2.6006 H   0  0  0  0  0  0  0  0  0  0  0  0
    5.9910    1.5543   -0.7078 H   0  0  0  0  0  0  0  0  0  0  0  0
    6.0660   -2.7816    1.9115 H   0  0  0  0  0  0  0  0  0  0  0  0
    4.8715   -2.5132    4.0686 H   0  0  0  0  0  0  0  0  0  0  0  0
   12.3949   -2.1239    0.0784 H   0  0  0  0  0  0  0  0  0  0  0  0
   13.3485   -5.8323   -4.0803 H   0  0  0  0  0  0  0  0  0  0  0  0
   12.3121   -9.9377   -7.4485 H   0  0  0  0  0  0  0  0  0  0  0  0
  1  2  1  0  0  0  0
  1 67  1  0  0  0  0
  1 68  1  0  0  0  0
  1 69  1  0  0  0  0
  2  3  1  0  0  0  0
  2 70  1  0  0  0  0
  2 71  1  0  0  0  0
  3  4  1  0  0  0  0
  3 72  1  0  0  0  0
  3 73  1  0  0  0  0
  4  5  1  0  0  0  0
  4 74  1  0  0  0  0
  4 75  1  0  0  0  0
  5  6  1  0  0  0  0
  5 76  1  0  0  0  0
  5 77  1  0  0  0  0
  6  7  1  0  0  0  0
  6 78  1  0  0  0  0
  6 79  1  0  0  0  0
  7  8  1  0  0  0  0
  7 80  1  0  0  0  0
  7 81  1  0  0  0  0
  8  9  1  0  0  0  0
  8 82  1  0  0  0  0
  8 83  1  0  0  0  0
  9 10  1  0  0  0  0
  9 84  1  0  0  0  0
  9 85  1  0  0  0  0
 10 11  1  0  0  0  0
 10 86  1  0  0  0  0
 10 87  1  0  0  0  0
 11 88  1  0  0  0  0
 11 89  1  0  0  0  0
 12 14  1  0  0  0  0
 12 66  1  0  0  0  0
 12 13  1  6  0  0  0
 12 11  1  0  0  0  0
 14 15  1  0  0  0  0
 14 90  1  0  0  0  0
 14 91  1  0  0  0  0
 15 16  2  0  0  0  0
 15 17  1  0  0  0  0
 17 18  1  0  0  0  0
 18 19  1  6  0  0  0
 18 20  1  0  0  0  0
 18 30  1  0  0  0  0
 20 23  1  0  0  0  0
 20 22  1  0  0  0  0
 20 21  1  6  0  0  0
 22 92  1  0  0  0  0
 23 27  1  0  0  0  0
 23 25  1  0  0  0  0
 23 24  1  1  0  0  0
 25 26  1  0  0  0  0
 25 93  1  0  0  0  0
 25 94  1  0  0  0  0
 26 95  1  0  0  0  0
 27 28  1  0  0  0  0
 28 29  1  6  0  0  0
 28 30  1  0  0  0  0
 28 36  1  0  0  0  0
 30 31  1  6  0  0  0
 30 32  1  0  0  0  0
 32 33  1  0  0  0  0
 32 96  1  0  0  0  0
 33 34  2  0  0  0  0
 33 35  1  0  0  0  0
 35 97  1  0  0  0  0
 35 98  1  0  0  0  0
 35 99  1  0  0  0  0
 37 39  1  1  0  0  0
 37 65  1  0  0  0  0
 37 38  2  0  0  0  0
 37 36  1  0  0  0  0
 40 42  1  6  0  0  0
 40 64  1  0  0  0  0
 40 41  2  0  0  0  0
 40 39  1  0  0  0  0
 42 43  1  0  0  0  0
 43 44  1  0  0  0  0
 43100  1  0  0  0  0
 43101  1  0  0  0  0
 44 45  1  6  0  0  0
 44 46  1  0  0  0  0
 44 51  1  0  0  0  0
 46 47  1  0  0  0  0
 47 49  1  0  0  0  0
 47 55  1  0  0  0  0
 47 48  1  6  0  0  0
 49 50  1  1  0  0  0
 49 51  1  0  0  0  0
 49 54  1  0  0  0  0
 51 52  1  1  0  0  0
 51 53  1  0  0  0  0
 53102  1  0  0  0  0
 54103  1  0  0  0  0
 55 56  1  0  0  0  0
 55 62  1  0  0  0  0
 56 57  2  0  0  0  0
 56104  1  0  0  0  0
 57 58  1  0  0  0  0
 57105  1  0  0  0  0
 58 59  2  0  0  0  0
 58 60  1  0  0  0  0
 60 61  1  0  0  0  0
 60 62  1  0  0  0  0
 62 63  2  0  0  0  0
 64106  1  0  0  0  0
 65107  1  0  0  0  0
 66108  1  0  0  0  0
M  END
$$$$
