U3P
 OpenBabel04121316203D

 34 35  0  0  1  0  0  0  0  0999 V2000
    1.2308    0.0355    0.3683 O   0  0  0  0  0  0  0  0  0  0  0  0
    2.6297   -0.0195    0.1672 C   0  0  0  0  0  0  0  0  0  0  0  0
    3.1256   -1.4215   -0.2860 C   0  0  1  0  0  0  0  0  0  0  0  0
    3.6521   -1.3383   -1.2435 H   0  0  0  0  0  0  0  0  0  0  0  0
    4.1943   -1.8320    0.5607 O   0  0  0  0  0  0  0  0  0  0  0  0
    4.3446   -3.2274    0.2990 C   0  0  2  0  0  0  0  0  0  0  0  0
    4.9249   -3.3494   -0.6289 H   0  0  0  0  0  0  0  0  0  0  0  0
    2.9289   -3.8002    0.1101 C   0  0  1  0  0  0  0  0  0  0  0  0
    2.5392   -4.1623    1.0685 H   0  0  0  0  0  0  0  0  0  0  0  0
    2.0999   -2.5932   -0.3318 C   0  0  2  0  0  0  0  0  0  0  0  0
    1.3349   -2.4383    0.4354 H   0  0  0  0  0  0  0  0  0  0  0  0
    1.4436   -2.8397   -1.6132 O   0  0  0  0  0  0  0  0  0  0  0  0
    0.4808   -1.4955   -2.1222 P   0  0  0  0  0  0  0  0  0  0  0  0
   -0.3761   -1.5442   -0.8720 O   0  0  0  0  0  0  0  0  0  0  0  0
    1.7091   -0.4612   -2.1830 O   0  0  0  0  0  0  0  0  0  0  0  0
   -0.4821   -0.1513   -2.6312 O   0  0  0  0  0  0  0  0  0  0  0  0
    2.8759   -4.8752   -0.8254 O   0  0  0  0  0  0  0  0  0  0  0  0
    5.0894   -3.8269    1.3862 N   0  0  0  0  0  0  0  0  0  0  0  0
    5.3232   -3.1258    2.5539 C   0  0  0  0  0  0  0  0  0  0  0  0
    6.1781   -3.5631    3.4722 C   0  0  0  0  0  0  0  0  0  0  0  0
    6.8006   -4.8859    3.2843 C   0  0  0  0  0  0  0  0  0  0  0  0
    7.6531   -5.2913    4.0403 O   0  0  0  0  0  0  0  0  0  0  0  0
    6.3337   -5.6067    2.2141 N   0  0  0  0  0  0  0  0  0  0  0  0
    6.7223   -6.5262    2.0871 H   0  0  0  0  0  0  0  0  0  0  0  0
    5.6080   -5.0915    1.1794 C   0  0  0  0  0  0  0  0  0  0  0  0
    5.4315   -5.7336    0.1417 O   0  0  0  0  0  0  0  0  0  0  0  0
    0.8978    0.9303    0.1791 H   0  0  0  0  0  0  0  0  0  0  0  0
    3.0677    0.2802    1.1162 H   0  0  0  0  0  0  0  0  0  0  0  0
    2.9201    0.7376   -0.5772 H   0  0  0  0  0  0  0  0  0  0  0  0
    2.5299   -0.8360   -2.5229 H   0  0  0  0  0  0  0  0  0  0  0  0
   -1.4060   -0.4587   -2.6433 H   0  0  0  0  0  0  0  0  0  0  0  0
    3.5177   -5.5534   -0.5365 H   0  0  0  0  0  0  0  0  0  0  0  0
    4.8157   -2.1722    2.6869 H   0  0  0  0  0  0  0  0  0  0  0  0
    6.4398   -2.9949    4.3535 H   0  0  0  0  0  0  0  0  0  0  0  0
  1  2  1  0  0  0  0
  1 27  1  0  0  0  0
  2  3  1  0  0  0  0
  2 28  1  0  0  0  0
  2 29  1  0  0  0  0
  3  4  1  6  0  0  0
  3  5  1  0  0  0  0
  3 10  1  0  0  0  0
  5  6  1  0  0  0  0
  6  8  1  0  0  0  0
  6 18  1  0  0  0  0
  6  7  1  6  0  0  0
  8  9  1  1  0  0  0
  8 10  1  0  0  0  0
  8 17  1  0  0  0  0
 10 11  1  1  0  0  0
 10 12  1  0  0  0  0
 12 13  1  0  0  0  0
 13 14  2  0  0  0  0
 13 15  1  0  0  0  0
 13 16  1  0  0  0  0
 15 30  1  0  0  0  0
 16 31  1  0  0  0  0
 17 32  1  0  0  0  0
 18 19  1  0  0  0  0
 18 25  1  0  0  0  0
 19 20  2  0  0  0  0
 19 33  1  0  0  0  0
 20 21  1  0  0  0  0
 20 34  1  0  0  0  0
 21 22  2  0  0  0  0
 21 23  1  0  0  0  0
 23 24  1  0  0  0  0
 23 25  1  0  0  0  0
 25 26  2  0  0  0  0
M  END
$$$$
