U51
 OpenBabel04121316203D

 56 57  0  0  1  0  0  0  0  0999 V2000
    1.0319   -0.0394   -0.0284 C   0  0  0  0  0  0  0  0  0  0  0  0
    2.5457   -0.0418   -0.0346 C   0  0  0  0  0  0  0  0  0  0  0  0
    3.0744   -0.9246   -1.1558 C   0  0  0  0  0  0  0  0  0  0  0  0
    4.5909   -0.9068   -1.1355 C   0  0  0  0  0  0  0  0  0  0  0  0
    5.1655   -1.7963   -2.2158 C   0  0  0  0  0  0  0  0  0  0  0  0
    6.6937   -1.7841   -2.0843 C   0  0  0  0  0  0  0  0  0  0  0  0
    7.2727   -2.8359   -2.9456 C   0  0  0  0  0  0  0  0  0  0  0  0
    8.5788   -3.0688   -3.1840 C   0  0  0  0  0  0  0  0  0  0  0  0
    9.0665   -3.9741   -4.2901 C   0  0  1  0  0  0  0  0  0  0  0  0
    9.7222   -3.4370   -4.9516 H   0  0  0  0  0  0  0  0  0  0  0  0
   10.0491   -5.1163   -4.1489 C   0  0  2  0  0  0  0  0  0  0  0  0
   10.9300   -4.8374   -3.5706 H   0  0  0  0  0  0  0  0  0  0  0  0
   10.4476   -5.5627   -5.5365 N   0  0  0  0  0  0  0  0  0  0  0  0
    9.4436   -6.1049   -6.0815 N   0  0  0  0  0  0  0  0  0  0  0  0
    8.3497   -6.0114   -5.1164 C   0  0  2  0  0  0  0  0  0  0  0  0
    7.5666   -6.7709   -5.2095 H   0  0  0  0  0  0  0  0  0  0  0  0
    7.8755   -4.5311   -5.0771 C   0  0  2  0  0  0  0  0  0  0  0  0
    6.9276   -4.7221   -4.5546 H   0  0  0  0  0  0  0  0  0  0  0  0
    7.5192   -3.3575   -6.0845 C   0  0  0  0  0  0  0  0  0  0  0  0
    8.3902   -2.0418   -6.0123 C   0  0  0  0  0  0  0  0  0  0  0  0
    8.0185   -0.8055   -6.1146 C   0  0  0  0  0  0  0  0  0  0  0  0
    6.6758   -0.4594   -6.5927 C   0  0  0  0  0  0  0  0  0  0  0  0
    6.7252    0.9926   -6.9480 C   0  0  0  0  0  0  0  0  0  0  0  0
    5.3975    1.3669   -7.5416 C   0  0  0  0  0  0  0  0  0  0  0  0
    5.4451    2.8239   -7.8985 C   0  0  0  0  0  0  0  0  0  0  0  0
    6.3938    3.5580   -7.7253 O   0  0  0  0  0  0  0  0  0  0  0  0
    4.2821    3.2393   -8.4463 O   0  0  0  0  0  0  0  0  0  0  0  0
    9.1156   -6.1939   -3.7572 C   0  0  0  0  0  0  0  0  0  0  0  0
    0.6595    0.5977    0.7777 H   0  0  0  0  0  0  0  0  0  0  0  0
    0.6452   -1.0521    0.1226 H   0  0  0  0  0  0  0  0  0  0  0  0
    0.6435    0.3397   -0.9787 H   0  0  0  0  0  0  0  0  0  0  0  0
    2.9182   -0.4042    0.9312 H   0  0  0  0  0  0  0  0  0  0  0  0
    2.9174    0.9818   -0.1616 H   0  0  0  0  0  0  0  0  0  0  0  0
    2.7083   -0.5684   -2.1262 H   0  0  0  0  0  0  0  0  0  0  0  0
    2.7105   -1.9520   -1.0285 H   0  0  0  0  0  0  0  0  0  0  0  0
    4.9478   -1.2594   -0.1602 H   0  0  0  0  0  0  0  0  0  0  0  0
    4.9611    0.1156   -1.2719 H   0  0  0  0  0  0  0  0  0  0  0  0
    4.8493   -1.4485   -3.2107 H   0  0  0  0  0  0  0  0  0  0  0  0
    4.7663   -2.8150   -2.1041 H   0  0  0  0  0  0  0  0  0  0  0  0
    6.9836   -1.9993   -1.0544 H   0  0  0  0  0  0  0  0  0  0  0  0
    7.0726   -0.8010   -2.3822 H   0  0  0  0  0  0  0  0  0  0  0  0
    6.4836   -3.3711   -3.4602 H   0  0  0  0  0  0  0  0  0  0  0  0
    9.3262   -2.4395   -2.7160 H   0  0  0  0  0  0  0  0  0  0  0  0
    7.3515   -3.6716   -7.1137 H   0  0  0  0  0  0  0  0  0  0  0  0
    6.5267   -3.0060   -5.7373 H   0  0  0  0  0  0  0  0  0  0  0  0
    9.4093   -1.9925   -5.6252 H   0  0  0  0  0  0  0  0  0  0  0  0
    8.7287    0.0028   -5.8616 H   0  0  0  0  0  0  0  0  0  0  0  0
    5.9452   -0.6618   -5.8061 H   0  0  0  0  0  0  0  0  0  0  0  0
    6.4546   -1.0743   -7.4726 H   0  0  0  0  0  0  0  0  0  0  0  0
    7.5412    1.1891   -7.6601 H   0  0  0  0  0  0  0  0  0  0  0  0
    6.9394    1.5921   -6.0508 H   0  0  0  0  0  0  0  0  0  0  0  0
    4.6047    1.1782   -6.8096 H   0  0  0  0  0  0  0  0  0  0  0  0
    5.2152    0.7623   -8.4373 H   0  0  0  0  0  0  0  0  0  0  0  0
    3.6198    2.5280   -8.5184 H   0  0  0  0  0  0  0  0  0  0  0  0
    9.6602   -7.1311   -3.6302 H   0  0  0  0  0  0  0  0  0  0  0  0
    8.5676   -5.9320   -2.8444 H   0  0  0  0  0  0  0  0  0  0  0  0
  1  2  1  0  0  0  0
  1 29  1  0  0  0  0
  1 30  1  0  0  0  0
  1 31  1  0  0  0  0
  2  3  1  0  0  0  0
  2 32  1  0  0  0  0
  2 33  1  0  0  0  0
  3  4  1  0  0  0  0
  3 34  1  0  0  0  0
  3 35  1  0  0  0  0
  4  5  1  0  0  0  0
  4 36  1  0  0  0  0
  4 37  1  0  0  0  0
  5  6  1  0  0  0  0
  5 38  1  0  0  0  0
  5 39  1  0  0  0  0
  6  7  1  0  0  0  0
  6 40  1  0  0  0  0
  6 41  1  0  0  0  0
  7  8  2  0  0  0  0
  7 42  1  0  0  0  0
  8  9  1  0  0  0  0
  8 43  1  0  0  0  0
  9 11  1  0  0  0  0
  9 17  1  0  0  0  0
  9 10  1  6  0  0  0
 11 13  1  0  0  0  0
 11 28  1  0  0  0  0
 11 12  1  1  0  0  0
 13 14  2  0  0  0  0
 14 15  1  0  0  0  0
 15 17  1  0  0  0  0
 15 28  1  0  0  0  0
 15 16  1  6  0  0  0
 17 18  1  1  0  0  0
 17 19  1  0  0  0  0
 19 20  1  0  0  0  0
 19 44  1  0  0  0  0
 19 45  1  0  0  0  0
 20 21  2  0  0  0  0
 20 46  1  0  0  0  0
 21 22  1  0  0  0  0
 21 47  1  0  0  0  0
 22 23  1  0  0  0  0
 22 48  1  0  0  0  0
 22 49  1  0  0  0  0
 23 24  1  0  0  0  0
 23 50  1  0  0  0  0
 23 51  1  0  0  0  0
 24 25  1  0  0  0  0
 24 52  1  0  0  0  0
 24 53  1  0  0  0  0
 25 26  2  0  0  0  0
 25 27  1  0  0  0  0
 27 54  1  0  0  0  0
 28 55  1  0  0  0  0
 28 56  1  0  0  0  0
M  END
$$$$
