U5P
 OpenBabel04121316203D

 34 35  0  0  1  0  0  0  0  0999 V2000
    2.9561    0.2645   -1.4580 O   0  0  0  0  0  0  0  0  0  0  0  0
    2.4689    0.1392   -0.1153 C   0  0  2  0  0  0  0  0  0  0  0  0
    1.3867    0.2362   -0.1831 H   0  0  0  0  0  0  0  0  0  0  0  0
    3.0074    1.2424    0.7689 C   0  0  2  0  0  0  0  0  0  0  0  0
    2.3607    1.3115    1.6517 H   0  0  0  0  0  0  0  0  0  0  0  0
    3.0749    2.5194    0.1580 O   0  0  0  0  0  0  0  0  0  0  0  0
    4.3638    0.6899    1.1242 C   0  0  2  0  0  0  0  0  0  0  0  0
    5.0859    0.8056    0.3055 H   0  0  0  0  0  0  0  0  0  0  0  0
    4.1669   -0.7192    1.3132 O   0  0  0  0  0  0  0  0  0  0  0  0
    2.9834   -1.1446    0.6024 C   0  0  1  0  0  0  0  0  0  0  0  0
    3.2954   -1.9173   -0.1106 H   0  0  0  0  0  0  0  0  0  0  0  0
    1.9952   -1.7564    1.5189 N   0  0  0  0  0  0  0  0  0  0  0  0
    0.6614   -1.7775    1.1352 C   0  0  0  0  0  0  0  0  0  0  0  0
   -0.3191   -2.1181    1.9716 C   0  0  0  0  0  0  0  0  0  0  0  0
    0.0459   -2.6815    3.2709 C   0  0  0  0  0  0  0  0  0  0  0  0
   -0.8101   -2.9163    4.1215 O   0  0  0  0  0  0  0  0  0  0  0  0
    1.3689   -2.9511    3.4342 N   0  0  0  0  0  0  0  0  0  0  0  0
    1.6436   -3.3920    4.2981 H   0  0  0  0  0  0  0  0  0  0  0  0
    2.3951   -2.4170    2.6849 C   0  0  0  0  0  0  0  0  0  0  0  0
    3.5425   -2.5415    3.0974 O   0  0  0  0  0  0  0  0  0  0  0  0
    4.9634    1.3518    2.3449 C   0  0  0  0  0  0  0  0  0  0  0  0
    3.9492    1.7270    3.2985 O   0  0  0  0  0  0  0  0  0  0  0  0
    4.5727    2.5291    4.6987 P   0  0  0  0  0  0  0  0  0  0  0  0
    5.8813    1.7476    4.6836 O   0  0  0  0  0  0  0  0  0  0  0  0
    4.7499    3.8905    3.8263 O   0  0  0  0  0  0  0  0  0  0  0  0
    5.1962    3.3312    6.0990 O   0  0  0  0  0  0  0  0  0  0  0  0
    3.9144    0.1008   -1.4684 H   0  0  0  0  0  0  0  0  0  0  0  0
    3.4526    2.3976   -0.7324 H   0  0  0  0  0  0  0  0  0  0  0  0
    0.4064   -1.4610    0.1290 H   0  0  0  0  0  0  0  0  0  0  0  0
   -1.3679   -2.0210    1.7283 H   0  0  0  0  0  0  0  0  0  0  0  0
    5.6766    0.6533    2.7927 H   0  0  0  0  0  0  0  0  0  0  0  0
    5.4898    2.2646    2.0428 H   0  0  0  0  0  0  0  0  0  0  0  0
    4.1730    3.8771    3.0409 H   0  0  0  0  0  0  0  0  0  0  0  0
    5.3459    2.6531    6.7810 H   0  0  0  0  0  0  0  0  0  0  0  0
  1 27  1  0  0  0  0
  2  4  1  0  0  0  0
  2 10  1  0  0  0  0
  2  3  1  1  0  0  0
  2  1  1  0  0  0  0
  4  7  1  0  0  0  0
  4  6  1  0  0  0  0
  4  5  1  1  0  0  0
  6 28  1  0  0  0  0
  7  9  1  0  0  0  0
  7 21  1  0  0  0  0
  7  8  1  6  0  0  0
  9 10  1  0  0  0  0
 10 12  1  0  0  0  0
 10 11  1  6  0  0  0
 12 13  1  0  0  0  0
 12 19  1  0  0  0  0
 13 14  2  0  0  0  0
 13 29  1  0  0  0  0
 14 15  1  0  0  0  0
 14 30  1  0  0  0  0
 15 16  2  0  0  0  0
 15 17  1  0  0  0  0
 17 18  1  0  0  0  0
 17 19  1  0  0  0  0
 19 20  2  0  0  0  0
 21 22  1  0  0  0  0
 21 31  1  0  0  0  0
 21 32  1  0  0  0  0
 22 23  1  0  0  0  0
 23 24  2  0  0  0  0
 23 25  1  0  0  0  0
 23 26  1  0  0  0  0
 25 33  1  0  0  0  0
 26 34  1  0  0  0  0
M  END
$$$$
