U94
 OpenBabel04121316203D

 50 51  0  0  1  0  0  0  0  0999 V2000
    9.1116   -4.1613   -3.4705 C   0  0  0  0  0  0  0  0  0  0  0  0
    7.7912   -3.8034   -3.0676 O   0  0  0  0  0  0  0  0  0  0  0  0
    7.8706   -2.7491   -2.1455 C   0  0  0  0  0  0  0  0  0  0  0  0
    6.6397   -2.2311   -1.4380 C   0  0  0  0  0  0  0  0  0  0  0  0
    5.5454   -2.7739   -1.4580 O   0  0  0  0  0  0  0  0  0  0  0  0
    6.8204   -1.1103   -0.6739 N   0  0  0  0  0  0  0  0  0  0  0  0
    8.0052   -0.2518   -0.4635 C   0  0  2  0  0  0  0  0  0  0  0  0
    8.2817    0.1360   -1.4543 H   0  0  0  0  0  0  0  0  0  0  0  0
    9.4174   -1.0360    0.0964 C   0  0  1  0  0  0  0  0  0  0  0  0
   10.0982   -0.2028    0.2717 H   0  0  0  0  0  0  0  0  0  0  0  0
    9.3103   -1.8535    1.4292 C   0  0  2  0  0  0  0  0  0  0  0  0
    8.2383   -2.1000    1.4052 H   0  0  0  0  0  0  0  0  0  0  0  0
    9.9211   -0.9549    2.6846 C   0  0  0  0  0  0  0  0  0  0  0  0
   10.3331   -1.4663    3.6979 O   0  0  0  0  0  0  0  0  0  0  0  0
    9.8709    0.4200    2.6463 O   0  0  0  0  0  0  0  0  0  0  0  0
    9.6351   -3.2252    1.5865 O   0  0  0  0  0  0  0  0  0  0  0  0
   10.1028   -1.8616   -0.8346 O   0  0  0  0  0  0  0  0  0  0  0  0
    7.4586    1.0493    0.4027 C   0  0  0  0  0  0  0  0  0  0  0  0
    6.7228    0.7219    1.7186 C   0  0  0  0  0  0  0  0  0  0  0  0
    7.1621   -0.4274    2.2776 C   0  0  0  0  0  0  0  0  0  0  0  0
    7.0081   -1.1256    3.4411 C   0  0  0  0  0  0  0  0  0  0  0  0
    6.1609   -0.5371    4.2908 C   0  0  0  0  0  0  0  0  0  0  0  0
    5.7152    0.7714    3.9043 C   0  0  0  0  0  0  0  0  0  0  0  0
    5.9800    1.3922    2.6265 C   0  0  0  0  0  0  0  0  0  0  0  0
    5.7974   -1.2970    5.4789 C   0  0  0  0  0  0  0  0  0  0  0  0
    5.9193   -2.7143    5.5495 C   0  0  0  0  0  0  0  0  0  0  0  0
    5.4110   -3.4131    6.6348 C   0  0  0  0  0  0  0  0  0  0  0  0
    5.5214   -5.1299    6.6802 Cl  0  0  0  0  0  0  0  0  0  0  0  0
    4.7831   -2.7205    7.6592 C   0  0  0  0  0  0  0  0  0  0  0  0
    4.7024   -1.3316    7.6080 C   0  0  0  0  0  0  0  0  0  0  0  0
    5.2259   -0.6250    6.5434 C   0  0  0  0  0  0  0  0  0  0  0  0
    3.9132   -0.4433    8.8441 Cl  0  0  0  0  0  0  0  0  0  0  0  0
    9.0473   -5.0779   -4.0540 H   0  0  0  0  0  0  0  0  0  0  0  0
    9.7708   -4.3357   -2.6093 H   0  0  0  0  0  0  0  0  0  0  0  0
    9.5325   -3.3598   -4.0862 H   0  0  0  0  0  0  0  0  0  0  0  0
    8.3333   -1.8912   -2.6503 H   0  0  0  0  0  0  0  0  0  0  0  0
    8.4649   -3.1305   -1.3156 H   0  0  0  0  0  0  0  0  0  0  0  0
    5.9536   -0.8610   -0.2008 H   0  0  0  0  0  0  0  0  0  0  0  0
    9.1347    0.9668    2.3120 H   0  0  0  0  0  0  0  0  0  0  0  0
    9.1174   -3.4884    2.3859 H   0  0  0  0  0  0  0  0  0  0  0  0
   10.0675   -1.4922   -1.7249 H   0  0  0  0  0  0  0  0  0  0  0  0
    6.7785    1.6374   -0.2168 H   0  0  0  0  0  0  0  0  0  0  0  0
    8.3471    1.6590    0.6034 H   0  0  0  0  0  0  0  0  0  0  0  0
    8.0400   -0.5340    1.7745 H   0  0  0  0  0  0  0  0  0  0  0  0
    7.6313   -1.9863    3.6924 H   0  0  0  0  0  0  0  0  0  0  0  0
    5.1611    1.3655    4.6175 H   0  0  0  0  0  0  0  0  0  0  0  0
    5.6393    2.3925    2.4094 H   0  0  0  0  0  0  0  0  0  0  0  0
    6.3688   -3.3031    4.7470 H   0  0  0  0  0  0  0  0  0  0  0  0
    4.3535   -3.2576    8.4941 H   0  0  0  0  0  0  0  0  0  0  0  0
    5.1588    0.4563    6.5214 H   0  0  0  0  0  0  0  0  0  0  0  0
  1  2  1  0  0  0  0
  1 33  1  0  0  0  0
  1 34  1  0  0  0  0
  1 35  1  0  0  0  0
  2  3  1  0  0  0  0
  3  4  1  0  0  0  0
  3 36  1  0  0  0  0
  3 37  1  0  0  0  0
  4  5  2  0  0  0  0
  4  6  1  0  0  0  0
  6 38  1  0  0  0  0
  7  9  1  0  0  0  0
  7 18  1  0  0  0  0
  7  8  1  6  0  0  0
  7  6  1  0  0  0  0
  9 10  1  1  0  0  0
  9 17  1  0  0  0  0
 11 13  1  0  0  0  0
 11 16  1  0  0  0  0
 11 12  1  1  0  0  0
 11  9  1  0  0  0  0
 13 14  2  0  0  0  0
 13 15  1  0  0  0  0
 15 39  1  0  0  0  0
 16 40  1  0  0  0  0
 17 41  1  0  0  0  0
 18 19  1  0  0  0  0
 18 42  1  0  0  0  0
 18 43  1  0  0  0  0
 19 20  2  0  0  0  0
 19 24  1  0  0  0  0
 20 21  1  0  0  0  0
 20 44  1  0  0  0  0
 21 22  2  0  0  0  0
 21 45  1  0  0  0  0
 22 23  1  0  0  0  0
 22 25  1  0  0  0  0
 23 24  2  0  0  0  0
 23 46  1  0  0  0  0
 24 47  1  0  0  0  0
 25 26  2  0  0  0  0
 25 31  1  0  0  0  0
 26 27  1  0  0  0  0
 26 48  1  0  0  0  0
 27 28  1  0  0  0  0
 27 29  2  0  0  0  0
 29 30  1  0  0  0  0
 29 49  1  0  0  0  0
 30 31  2  0  0  0  0
 30 32  1  0  0  0  0
 31 50  1  0  0  0  0
M  END
$$$$
