UA1
 OpenBabel04121316203D

 69 70  0  0  1  0  0  0  0  0999 V2000
    3.1663    5.3819   -0.4898 C   0  0  0  0  0  0  0  0  0  0  0  0
    3.1204    4.5416   -1.6501 N   0  0  0  0  0  0  0  0  0  0  0  0
    2.0844    3.6388   -1.8081 C   0  0  0  0  0  0  0  0  0  0  0  0
    1.1569    3.5482   -1.0072 O   0  0  0  0  0  0  0  0  0  0  0  0
    2.1878    2.7340   -3.0376 C   0  0  1  0  0  0  0  0  0  0  0  0
    2.3552    3.3490   -3.9322 H   0  0  0  0  0  0  0  0  0  0  0  0
    3.3229    1.8930   -2.7856 N   0  0  0  0  0  0  0  0  0  0  0  0
    4.6021    2.2794   -3.0402 C   0  0  0  0  0  0  0  0  0  0  0  0
    4.8664    3.3977   -3.4516 O   0  0  0  0  0  0  0  0  0  0  0  0
    5.4785    1.0359   -2.8023 C   0  0  2  0  0  0  0  0  0  0  0  0
    5.1239    0.5909   -1.8612 H   0  0  0  0  0  0  0  0  0  0  0  0
    6.9872    1.1687   -2.7263 C   0  0  0  0  0  0  0  0  0  0  0  0
    7.4099    2.0333   -1.5792 C   0  0  0  0  0  0  0  0  0  0  0  0
    7.0509    3.3860   -1.5604 C   0  0  0  0  0  0  0  0  0  0  0  0
    7.4306    4.2419   -0.5517 C   0  0  0  0  0  0  0  0  0  0  0  0
    8.1978    3.7350    0.4721 C   0  0  0  0  0  0  0  0  0  0  0  0
    8.5357    2.3833    0.5146 C   0  0  0  0  0  0  0  0  0  0  0  0
    8.1745    1.5323   -0.5319 C   0  0  0  0  0  0  0  0  0  0  0  0
    8.6636    4.5747    1.4352 O   0  0  0  0  0  0  0  0  0  0  0  0
    5.0605    0.1557   -3.8853 N   0  0  0  0  0  0  0  0  0  0  0  0
    5.3586    0.6094   -5.1358 C   0  0  0  0  0  0  0  0  0  0  0  0
    5.9649    1.6474   -5.3418 O   0  0  0  0  0  0  0  0  0  0  0  0
    4.9231   -0.2245   -6.0819 O   0  0  0  0  0  0  0  0  0  0  0  0
    5.3200    0.1529   -7.4188 C   0  0  0  0  0  0  0  0  0  0  0  0
    4.6992    1.5092   -7.8431 C   0  0  0  0  0  0  0  0  0  0  0  0
    6.8248    0.1504   -7.6159 C   0  0  0  0  0  0  0  0  0  0  0  0
    4.8765   -1.0329   -8.2421 C   0  0  0  0  0  0  0  0  0  0  0  0
    1.0050    1.7653   -3.1582 C   0  0  0  0  0  0  0  0  0  0  0  0
    1.1743    0.8193   -4.3364 C   0  0  0  0  0  0  0  0  0  0  0  0
    1.1251   -0.5766   -4.2014 C   0  0  0  0  0  0  0  0  0  0  0  0
    1.4077   -1.4102   -5.3028 C   0  0  0  0  0  0  0  0  0  0  0  0
    1.5841   -0.8546   -6.5791 C   0  0  0  0  0  0  0  0  0  0  0  0
    1.5359    0.5240   -6.6997 C   0  0  0  0  0  0  0  0  0  0  0  0
    1.4249    1.3522   -5.5949 C   0  0  0  0  0  0  0  0  0  0  0  0
    1.7574   -1.7003   -7.7279 N   0  0  0  0  0  0  0  0  0  0  0  0
    1.8812   -1.0762   -9.3148 S   0  0  0  0  0  0  0  0  0  0  0  0
    0.5491   -1.0627   -9.8794 O   0  0  0  0  0  0  0  0  0  0  0  0
    2.7115    0.0921   -9.4146 O   0  0  0  0  0  0  0  0  0  0  0  0
    2.6890   -2.2649  -10.0419 O   0  0  0  0  0  0  0  0  0  0  0  0
    4.0689    5.9954   -0.5135 H   0  0  0  0  0  0  0  0  0  0  0  0
    3.1568    4.7584    0.4091 H   0  0  0  0  0  0  0  0  0  0  0  0
    2.2757    6.0136   -0.5030 H   0  0  0  0  0  0  0  0  0  0  0  0
    3.9224    4.5010   -2.2848 H   0  0  0  0  0  0  0  0  0  0  0  0
    3.1896    0.9057   -2.9519 H   0  0  0  0  0  0  0  0  0  0  0  0
    7.4427    1.5597   -3.6392 H   0  0  0  0  0  0  0  0  0  0  0  0
    7.3842    0.1488   -2.6146 H   0  0  0  0  0  0  0  0  0  0  0  0
    6.4906    3.8443   -2.3553 H   0  0  0  0  0  0  0  0  0  0  0  0
    7.1268    5.2801   -0.6212 H   0  0  0  0  0  0  0  0  0  0  0  0
    9.0941    1.9942    1.3575 H   0  0  0  0  0  0  0  0  0  0  0  0
    8.5048    0.4959   -0.5328 H   0  0  0  0  0  0  0  0  0  0  0  0
    8.4511    5.4806    1.1488 H   0  0  0  0  0  0  0  0  0  0  0  0
    4.4087   -0.6101   -3.7772 H   0  0  0  0  0  0  0  0  0  0  0  0
    5.0787    2.3554   -7.2613 H   0  0  0  0  0  0  0  0  0  0  0  0
    3.6273    1.5623   -7.6726 H   0  0  0  0  0  0  0  0  0  0  0  0
    4.8919    1.7463   -8.8920 H   0  0  0  0  0  0  0  0  0  0  0  0
    7.3369    0.8835   -6.9980 H   0  0  0  0  0  0  0  0  0  0  0  0
    7.0511    0.3589   -8.6654 H   0  0  0  0  0  0  0  0  0  0  0  0
    7.2214   -0.8355   -7.3508 H   0  0  0  0  0  0  0  0  0  0  0  0
    3.8811   -1.2232   -7.9160 H   0  0  0  0  0  0  0  0  0  0  0  0
    5.3538   -1.9879   -7.9984 H   0  0  0  0  0  0  0  0  0  0  0  0
    4.9597   -0.8589   -9.3169 H   0  0  0  0  0  0  0  0  0  0  0  0
    0.0635    2.3085   -3.2462 H   0  0  0  0  0  0  0  0  0  0  0  0
    0.9657    1.1633   -2.2390 H   0  0  0  0  0  0  0  0  0  0  0  0
    0.8615   -1.0227   -3.2425 H   0  0  0  0  0  0  0  0  0  0  0  0
    1.4440   -2.4862   -5.1420 H   0  0  0  0  0  0  0  0  0  0  0  0
    1.6219    1.0193   -7.6556 H   0  0  0  0  0  0  0  0  0  0  0  0
    1.5334    2.4212   -5.7569 H   0  0  0  0  0  0  0  0  0  0  0  0
    2.2750   -2.5645   -7.5654 H   0  0  0  0  0  0  0  0  0  0  0  0
    2.0787   -2.9976  -10.2347 H   0  0  0  0  0  0  0  0  0  0  0  0
  1  2  1  0  0  0  0
  1 40  1  0  0  0  0
  1 41  1  0  0  0  0
  1 42  1  0  0  0  0
  2  3  1  0  0  0  0
  2 43  1  0  0  0  0
  3  4  2  0  0  0  0
  3  5  1  0  0  0  0
  5  6  1  6  0  0  0
  5  7  1  0  0  0  0
  5 28  1  0  0  0  0
  7  8  1  0  0  0  0
  7 44  1  0  0  0  0
  8  9  2  0  0  0  0
 10 12  1  0  0  0  0
 10 20  1  0  0  0  0
 10 11  1  1  0  0  0
 10  8  1  0  0  0  0
 12 13  1  0  0  0  0
 12 45  1  0  0  0  0
 12 46  1  0  0  0  0
 13 14  2  0  0  0  0
 13 18  1  0  0  0  0
 14 15  1  0  0  0  0
 14 47  1  0  0  0  0
 15 16  2  0  0  0  0
 15 48  1  0  0  0  0
 16 17  1  0  0  0  0
 16 19  1  0  0  0  0
 17 18  2  0  0  0  0
 17 49  1  0  0  0  0
 18 50  1  0  0  0  0
 19 51  1  0  0  0  0
 20 21  1  0  0  0  0
 20 52  1  0  0  0  0
 21 22  2  0  0  0  0
 21 23  1  0  0  0  0
 23 24  1  0  0  0  0
 24 25  1  0  0  0  0
 24 26  1  0  0  0  0
 24 27  1  0  0  0  0
 25 53  1  0  0  0  0
 25 54  1  0  0  0  0
 25 55  1  0  0  0  0
 26 56  1  0  0  0  0
 26 57  1  0  0  0  0
 26 58  1  0  0  0  0
 27 59  1  0  0  0  0
 27 60  1  0  0  0  0
 27 61  1  0  0  0  0
 28 29  1  0  0  0  0
 28 62  1  0  0  0  0
 28 63  1  0  0  0  0
 29 30  2  0  0  0  0
 29 34  1  0  0  0  0
 30 31  1  0  0  0  0
 30 64  1  0  0  0  0
 31 32  2  0  0  0  0
 31 65  1  0  0  0  0
 32 33  1  0  0  0  0
 32 35  1  0  0  0  0
 33 34  2  0  0  0  0
 33 66  1  0  0  0  0
 34 67  1  0  0  0  0
 35 36  1  0  0  0  0
 35 68  1  0  0  0  0
 36 37  2  0  0  0  0
 36 38  2  0  0  0  0
 36 39  1  0  0  0  0
 39 69  1  0  0  0  0
M  END
$$$$
