UA3
 OpenBabel04121316203D

 34 35  0  0  1  0  0  0  0  0999 V2000
    0.5393    0.1852    0.2370 O   0  0  0  0  0  0  0  0  0  0  0  0
    1.9534    0.2282    0.2416 C   0  0  0  0  0  0  0  0  0  0  0  0
    2.6972   -0.9262    1.0675 C   0  0  1  0  0  0  0  0  0  0  0  0
    3.6735   -0.5306    1.3884 H   0  0  0  0  0  0  0  0  0  0  0  0
    1.9435   -1.1545    2.2557 O   0  0  0  0  0  0  0  0  0  0  0  0
    2.1507   -2.4806    2.7211 C   0  0  2  0  0  0  0  0  0  0  0  0
    2.9911   -2.4246    3.4238 H   0  0  0  0  0  0  0  0  0  0  0  0
    2.5406   -3.3344    1.4918 C   0  0  2  0  0  0  0  0  0  0  0  0
    3.3189   -4.0584    1.7587 H   0  0  0  0  0  0  0  0  0  0  0  0
    2.9699   -2.3403    0.4307 C   0  0  2  0  0  0  0  0  0  0  0  0
    2.3581   -2.4912   -0.4654 H   0  0  0  0  0  0  0  0  0  0  0  0
    4.3705   -2.6114    0.0423 O   0  0  0  0  0  0  0  0  0  0  0  0
    4.9043   -1.5053   -1.1761 P   0  0  0  0  0  0  0  0  0  0  0  0
    4.5972   -2.5185   -2.2703 O   0  0  0  0  0  0  0  0  0  0  0  0
    3.6607   -0.5719   -1.1492 O   0  0  0  0  0  0  0  0  0  0  0  0
    5.4381   -0.3993   -2.3946 O   0  0  0  0  0  0  0  0  0  0  0  0
    1.4431   -4.0984    0.9529 O   0  0  0  0  0  0  0  0  0  0  0  0
    0.9762   -2.9886    3.4512 N   0  0  0  0  0  0  0  0  0  0  0  0
    0.9596   -4.3333    3.8034 C   0  0  0  0  0  0  0  0  0  0  0  0
   -0.1402   -4.9358    4.2529 C   0  0  0  0  0  0  0  0  0  0  0  0
   -1.3368   -4.1212    4.5173 C   0  0  0  0  0  0  0  0  0  0  0  0
   -2.3937   -4.6264    4.8265 O   0  0  0  0  0  0  0  0  0  0  0  0
   -1.1459   -2.7733    4.4061 N   0  0  0  0  0  0  0  0  0  0  0  0
   -1.9373   -2.1803    4.5926 H   0  0  0  0  0  0  0  0  0  0  0  0
   -0.1095   -2.1665    3.7499 C   0  0  0  0  0  0  0  0  0  0  0  0
   -0.2410   -0.9745    3.4793 O   0  0  0  0  0  0  0  0  0  0  0  0
    0.2812    0.7302   -0.5342 H   0  0  0  0  0  0  0  0  0  0  0  0
    2.3468    1.2055    0.5580 H   0  0  0  0  0  0  0  0  0  0  0  0
    2.0876    0.2899   -0.8332 H   0  0  0  0  0  0  0  0  0  0  0  0
    3.0432   -0.9863   -1.7769 H   0  0  0  0  0  0  0  0  0  0  0  0
    6.2872   -0.7169   -2.7517 H   0  0  0  0  0  0  0  0  0  0  0  0
    0.6959   -3.4815    0.8289 H   0  0  0  0  0  0  0  0  0  0  0  0
    1.8641   -4.9110    3.6264 H   0  0  0  0  0  0  0  0  0  0  0  0
   -0.2120   -5.9999    4.4293 H   0  0  0  0  0  0  0  0  0  0  0  0
  1  2  1  0  0  0  0
  1 27  1  0  0  0  0
  2  3  1  0  0  0  0
  2 28  1  0  0  0  0
  2 29  1  0  0  0  0
  3  4  1  1  0  0  0
  3  5  1  0  0  0  0
  3 10  1  0  0  0  0
  5  6  1  0  0  0  0
  6  8  1  0  0  0  0
  6 18  1  0  0  0  0
  6  7  1  1  0  0  0
  8 10  1  0  0  0  0
  8 17  1  0  0  0  0
  8  9  1  1  0  0  0
 10 11  1  6  0  0  0
 10 12  1  0  0  0  0
 12 13  1  0  0  0  0
 13 14  2  0  0  0  0
 13 15  1  0  0  0  0
 13 16  1  0  0  0  0
 15 30  1  0  0  0  0
 16 31  1  0  0  0  0
 17 32  1  0  0  0  0
 18 19  1  0  0  0  0
 18 25  1  0  0  0  0
 19 20  2  0  0  0  0
 19 33  1  0  0  0  0
 20 21  1  0  0  0  0
 20 34  1  0  0  0  0
 21 22  2  0  0  0  0
 21 23  1  0  0  0  0
 23 24  1  0  0  0  0
 23 25  1  0  0  0  0
 25 26  2  0  0  0  0
M  END
$$$$
