UB2
 OpenBabel04121316203D

 57 57  0  0  1  0  0  0  0  0999 V2000
    9.1341    0.3359    5.6167 C   0  0  0  0  0  0  0  0  0  0  0  0
    8.8555   -1.1512    5.5787 C   0  0  0  0  0  0  0  0  0  0  0  0
    8.0089   -1.5045    4.3580 C   0  0  0  0  0  0  0  0  0  0  0  0
    6.5209   -1.1330    4.4010 C   0  0  1  0  0  0  0  0  0  0  0  0
    6.0255   -1.5851    5.2705 H   0  0  0  0  0  0  0  0  0  0  0  0
    6.2724    0.3779    4.3717 C   0  0  0  0  0  0  0  0  0  0  0  0
    6.1780    1.0344    3.3415 O   0  0  0  0  0  0  0  0  0  0  0  0
    6.2001    0.9368    5.6043 O   0  0  0  0  0  0  0  0  0  0  0  0
    5.8472   -1.6718    3.2238 N   0  0  0  0  0  0  0  0  0  0  0  0
    4.4974   -1.4367    3.0712 C   0  0  0  0  0  0  0  0  0  0  0  0
    3.8261   -0.8818    3.9344 O   0  0  0  0  0  0  0  0  0  0  0  0
    3.9606   -1.9212    1.7318 C   0  0  1  0  0  0  0  0  0  0  0  0
    4.5220   -1.4798    0.8983 H   0  0  0  0  0  0  0  0  0  0  0  0
    4.0208   -3.3726    1.7053 N   0  0  0  0  0  0  0  0  0  0  0  0
    5.2055   -4.4725    1.7896 P   0  0  2  0  0  0  0  0  0  0  0  0
    4.6766   -5.7850    2.2888 O   0  0  0  0  0  0  0  0  0  0  0  0
    6.8619   -4.2858    2.4899 C   0  0  0  0  0  0  0  0  0  0  0  0
    6.9030   -4.6736    3.8974 N   0  0  0  0  0  0  0  0  0  0  0  0
    8.0648   -4.7268    4.6055 C   0  0  0  0  0  0  0  0  0  0  0  0
    9.1715   -4.5255    4.0935 O   0  0  0  0  0  0  0  0  0  0  0  0
    7.8331   -4.8439    5.9340 O   0  0  0  0  0  0  0  0  0  0  0  0
    8.9872   -4.5821    6.7435 C   0  0  0  0  0  0  0  0  0  0  0  0
    8.7659   -5.0004    8.1603 C   0  0  0  0  0  0  0  0  0  0  0  0
    9.0885   -6.3023    8.5351 C   0  0  0  0  0  0  0  0  0  0  0  0
    8.7470   -6.7542    9.8009 C   0  0  0  0  0  0  0  0  0  0  0  0
    8.2085   -5.8698   10.7352 C   0  0  0  0  0  0  0  0  0  0  0  0
    8.0219   -4.5275   10.4106 C   0  0  0  0  0  0  0  0  0  0  0  0
    8.2445   -4.1032    9.1059 C   0  0  0  0  0  0  0  0  0  0  0  0
    5.5693   -4.5295    0.2190 O   0  0  0  0  0  0  0  0  0  0  0  0
    2.4938   -1.4719    1.6382 C   0  0  0  0  0  0  0  0  0  0  0  0
   10.2645   -1.7713    5.5534 C   0  0  0  0  0  0  0  0  0  0  0  0
    8.2887    0.9613    5.4102 H   0  0  0  0  0  0  0  0  0  0  0  0
    9.8421    0.5978    4.8273 H   0  0  0  0  0  0  0  0  0  0  0  0
    9.5116    0.6238    6.5977 H   0  0  0  0  0  0  0  0  0  0  0  0
    8.3132   -1.4897    6.4747 H   0  0  0  0  0  0  0  0  0  0  0  0
    8.0117   -2.5702    4.3081 H   0  0  0  0  0  0  0  0  0  0  0  0
    8.4956   -1.1926    3.4274 H   0  0  0  0  0  0  0  0  0  0  0  0
    6.5265    0.3523    6.3165 H   0  0  0  0  0  0  0  0  0  0  0  0
    6.3662   -1.7109    2.3591 H   0  0  0  0  0  0  0  0  0  0  0  0
    3.4128   -3.6781    0.9477 H   0  0  0  0  0  0  0  0  0  0  0  0
    7.3745   -3.3386    2.3110 H   0  0  0  0  0  0  0  0  0  0  0  0
    7.5159   -5.0061    1.9801 H   0  0  0  0  0  0  0  0  0  0  0  0
    6.0468   -4.9742    4.3539 H   0  0  0  0  0  0  0  0  0  0  0  0
    9.1428   -3.5116    6.8075 H   0  0  0  0  0  0  0  0  0  0  0  0
    9.8890   -5.0571    6.3389 H   0  0  0  0  0  0  0  0  0  0  0  0
    9.5887   -6.9629    7.8312 H   0  0  0  0  0  0  0  0  0  0  0  0
    8.9002   -7.7982   10.0532 H   0  0  0  0  0  0  0  0  0  0  0  0
    7.9380   -6.2306   11.7223 H   0  0  0  0  0  0  0  0  0  0  0  0
    7.6860   -3.8221   11.1657 H   0  0  0  0  0  0  0  0  0  0  0  0
    8.0161   -3.0746    8.8335 H   0  0  0  0  0  0  0  0  0  0  0  0
    6.4683   -4.8250   -0.0143 H   0  0  0  0  0  0  0  0  0  0  0  0
    2.4255   -0.3768    1.6568 H   0  0  0  0  0  0  0  0  0  0  0  0
    1.9157   -1.8411    2.4956 H   0  0  0  0  0  0  0  0  0  0  0  0
    2.0021   -1.8245    0.7264 H   0  0  0  0  0  0  0  0  0  0  0  0
   10.8432   -1.3807    4.7136 H   0  0  0  0  0  0  0  0  0  0  0  0
   10.3120   -2.8506    5.4436 H   0  0  0  0  0  0  0  0  0  0  0  0
   10.7829   -1.5147    6.4860 H   0  0  0  0  0  0  0  0  0  0  0  0
  1  2  1  0  0  0  0
  1 32  1  0  0  0  0
  1 33  1  0  0  0  0
  1 34  1  0  0  0  0
  2  3  1  0  0  0  0
  2 31  1  0  0  0  0
  2 35  1  0  0  0  0
  3  4  1  0  0  0  0
  3 36  1  0  0  0  0
  3 37  1  0  0  0  0
  4  5  1  1  0  0  0
  4  6  1  0  0  0  0
  4  9  1  0  0  0  0
  6  7  2  0  0  0  0
  6  8  1  0  0  0  0
  8 38  1  0  0  0  0
  9 10  1  0  0  0  0
  9 39  1  0  0  0  0
 10 11  2  0  0  0  0
 10 12  1  0  0  0  0
 12 13  1  6  0  0  0
 12 14  1  0  0  0  0
 12 30  1  0  0  0  0
 14 40  1  0  0  0  0
 15 17  1  1  0  0  0
 15 29  1  0  0  0  0
 15 16  2  0  0  0  0
 15 14  1  0  0  0  0
 17 18  1  0  0  0  0
 17 41  1  0  0  0  0
 17 42  1  0  0  0  0
 18 19  1  0  0  0  0
 18 43  1  0  0  0  0
 19 20  2  0  0  0  0
 19 21  1  0  0  0  0
 21 22  1  0  0  0  0
 22 23  1  0  0  0  0
 22 44  1  0  0  0  0
 22 45  1  0  0  0  0
 23 24  2  0  0  0  0
 23 28  1  0  0  0  0
 24 25  1  0  0  0  0
 24 46  1  0  0  0  0
 25 26  2  0  0  0  0
 25 47  1  0  0  0  0
 26 27  1  0  0  0  0
 26 48  1  0  0  0  0
 27 28  2  0  0  0  0
 27 49  1  0  0  0  0
 28 50  1  0  0  0  0
 29 51  1  0  0  0  0
 30 52  1  0  0  0  0
 30 53  1  0  0  0  0
 30 54  1  0  0  0  0
 31 55  1  0  0  0  0
 31 56  1  0  0  0  0
 31 57  1  0  0  0  0
M  END
$$$$
