UB3
 OpenBabel04121316203D

 63 63  0  0  1  0  0  0  0  0999 V2000
    7.1554    4.5138    4.1209 C   0  0  0  0  0  0  0  0  0  0  0  0
    7.1692    3.2339    4.9511 C   0  0  0  0  0  0  0  0  0  0  0  0
    5.7787    2.8815    5.4937 C   0  0  0  0  0  0  0  0  0  0  0  0
    5.2697    3.8351    6.5883 C   0  0  1  0  0  0  0  0  0  0  0  0
    5.9116    3.7477    7.4778 H   0  0  0  0  0  0  0  0  0  0  0  0
    5.0946    5.3317    6.2253 C   0  0  0  0  0  0  0  0  0  0  0  0
    4.0685    5.8230    5.7661 O   0  0  0  0  0  0  0  0  0  0  0  0
    6.1944    6.0958    6.4530 O   0  0  0  0  0  0  0  0  0  0  0  0
    3.9156    3.4703    6.9651 N   0  0  0  0  0  0  0  0  0  0  0  0
    3.4004    4.0017    8.1183 C   0  0  0  0  0  0  0  0  0  0  0  0
    4.0522    4.8530    8.7185 O   0  0  0  0  0  0  0  0  0  0  0  0
    1.9921    3.4874    8.5434 C   0  0  2  0  0  0  0  0  0  0  0  0
    1.4291    3.2037    7.6457 H   0  0  0  0  0  0  0  0  0  0  0  0
    1.2282    4.6400    9.2480 C   0  0  0  0  0  0  0  0  0  0  0  0
    1.9462    5.2049   10.4837 C   0  0  0  0  0  0  0  0  0  0  0  0
    0.9504    5.7569    8.2283 C   0  0  0  0  0  0  0  0  0  0  0  0
    2.0855    2.2519    9.3508 N   0  0  0  0  0  0  0  0  0  0  0  0
    3.0244    1.0331    8.8204 P   0  0  2  0  0  0  0  0  0  0  0  0
    3.6156    1.1875    7.4497 O   0  0  0  0  0  0  0  0  0  0  0  0
    2.3065   -0.5992    8.6980 C   0  0  0  0  0  0  0  0  0  0  0  0
    1.6853   -0.7160    7.3857 N   0  0  0  0  0  0  0  0  0  0  0  0
    1.2570   -1.9359    6.9533 C   0  0  0  0  0  0  0  0  0  0  0  0
    1.2836   -2.9375    7.6276 O   0  0  0  0  0  0  0  0  0  0  0  0
    0.7763   -1.8394    5.6909 O   0  0  0  0  0  0  0  0  0  0  0  0
    0.1432   -3.0531    5.2559 C   0  0  0  0  0  0  0  0  0  0  0  0
   -0.4256   -2.8909    3.8665 C   0  0  0  0  0  0  0  0  0  0  0  0
   -0.8038   -4.0222    3.1273 C   0  0  0  0  0  0  0  0  0  0  0  0
   -1.1397   -3.8975    1.7780 C   0  0  0  0  0  0  0  0  0  0  0  0
   -1.2368   -2.6346    1.1978 C   0  0  0  0  0  0  0  0  0  0  0  0
   -1.0245   -1.4977    1.9713 C   0  0  0  0  0  0  0  0  0  0  0  0
   -0.5752   -1.6266    3.2829 C   0  0  0  0  0  0  0  0  0  0  0  0
    4.1281    0.8809    9.9714 O   0  0  0  0  0  0  0  0  0  0  0  0
    7.6897    2.1654    3.9901 C   0  0  0  0  0  0  0  0  0  0  0  0
    6.6460    5.3501    4.5572 H   0  0  0  0  0  0  0  0  0  0  0  0
    6.6138    4.3625    3.1844 H   0  0  0  0  0  0  0  0  0  0  0  0
    8.1737    4.8583    3.9336 H   0  0  0  0  0  0  0  0  0  0  0  0
    7.8610    3.3115    5.8022 H   0  0  0  0  0  0  0  0  0  0  0  0
    5.8190    1.8618    5.9168 H   0  0  0  0  0  0  0  0  0  0  0  0
    5.0572    2.8209    4.6707 H   0  0  0  0  0  0  0  0  0  0  0  0
    7.0097    5.5758    6.5761 H   0  0  0  0  0  0  0  0  0  0  0  0
    3.5917    2.5390    6.7104 H   0  0  0  0  0  0  0  0  0  0  0  0
    0.2543    4.2608    9.5855 H   0  0  0  0  0  0  0  0  0  0  0  0
    2.8890    5.7025   10.2513 H   0  0  0  0  0  0  0  0  0  0  0  0
    2.1637    4.4145   11.2072 H   0  0  0  0  0  0  0  0  0  0  0  0
    1.3464    5.9793   10.9671 H   0  0  0  0  0  0  0  0  0  0  0  0
    1.8750    6.1801    7.8215 H   0  0  0  0  0  0  0  0  0  0  0  0
    0.3849    6.5748    8.6827 H   0  0  0  0  0  0  0  0  0  0  0  0
    0.3678    5.3703    7.3838 H   0  0  0  0  0  0  0  0  0  0  0  0
    1.2139    2.0602    9.8340 H   0  0  0  0  0  0  0  0  0  0  0  0
    1.6153   -0.8969    9.4815 H   0  0  0  0  0  0  0  0  0  0  0  0
    3.1624   -1.2900    8.6867 H   0  0  0  0  0  0  0  0  0  0  0  0
    1.8863   -0.0103    6.6795 H   0  0  0  0  0  0  0  0  0  0  0  0
   -0.6671   -3.3147    5.9464 H   0  0  0  0  0  0  0  0  0  0  0  0
    0.8972   -3.8498    5.2334 H   0  0  0  0  0  0  0  0  0  0  0  0
   -0.8102   -5.0094    3.5854 H   0  0  0  0  0  0  0  0  0  0  0  0
   -1.3204   -4.7842    1.1757 H   0  0  0  0  0  0  0  0  0  0  0  0
   -1.4847   -2.5343    0.1451 H   0  0  0  0  0  0  0  0  0  0  0  0
   -1.1827   -0.5087    1.5516 H   0  0  0  0  0  0  0  0  0  0  0  0
   -0.3216   -0.7288    3.8409 H   0  0  0  0  0  0  0  0  0  0  0  0
    4.5174   -0.0019   10.0992 H   0  0  0  0  0  0  0  0  0  0  0  0
    7.0387    2.1089    3.1096 H   0  0  0  0  0  0  0  0  0  0  0  0
    7.7466    1.1733    4.4415 H   0  0  0  0  0  0  0  0  0  0  0  0
    8.6905    2.4478    3.6414 H   0  0  0  0  0  0  0  0  0  0  0  0
  1  2  1  0  0  0  0
  1 34  1  0  0  0  0
  1 35  1  0  0  0  0
  1 36  1  0  0  0  0
  2  3  1  0  0  0  0
  2 33  1  0  0  0  0
  2 37  1  0  0  0  0
  3  4  1  0  0  0  0
  3 38  1  0  0  0  0
  3 39  1  0  0  0  0
  4  5  1  1  0  0  0
  4  6  1  0  0  0  0
  4  9  1  0  0  0  0
  6  7  2  0  0  0  0
  6  8  1  0  0  0  0
  8 40  1  0  0  0  0
  9 10  1  0  0  0  0
  9 41  1  0  0  0  0
 10 11  2  0  0  0  0
 12 14  1  0  0  0  0
 12 17  1  0  0  0  0
 12 13  1  6  0  0  0
 12 10  1  0  0  0  0
 14 15  1  0  0  0  0
 14 16  1  0  0  0  0
 14 42  1  0  0  0  0
 15 43  1  0  0  0  0
 15 44  1  0  0  0  0
 15 45  1  0  0  0  0
 16 46  1  0  0  0  0
 16 47  1  0  0  0  0
 16 48  1  0  0  0  0
 17 49  1  0  0  0  0
 18 20  1  6  0  0  0
 18 32  1  0  0  0  0
 18 19  2  0  0  0  0
 18 17  1  0  0  0  0
 20 21  1  0  0  0  0
 20 50  1  0  0  0  0
 20 51  1  0  0  0  0
 21 22  1  0  0  0  0
 21 52  1  0  0  0  0
 22 23  2  0  0  0  0
 22 24  1  0  0  0  0
 24 25  1  0  0  0  0
 25 26  1  0  0  0  0
 25 53  1  0  0  0  0
 25 54  1  0  0  0  0
 26 27  2  0  0  0  0
 26 31  1  0  0  0  0
 27 28  1  0  0  0  0
 27 55  1  0  0  0  0
 28 29  2  0  0  0  0
 28 56  1  0  0  0  0
 29 30  1  0  0  0  0
 29 57  1  0  0  0  0
 30 31  2  0  0  0  0
 30 58  1  0  0  0  0
 31 59  1  0  0  0  0
 32 60  1  0  0  0  0
 33 61  1  0  0  0  0
 33 62  1  0  0  0  0
 33 63  1  0  0  0  0
M  END
$$$$
