UBC
 OpenBabel04121316203D

 39 40  0  0  1  0  0  0  0  0999 V2000
    2.7577    0.3503    1.6387 N   0  0  0  0  0  0  0  0  0  0  0  0
    2.2716    0.0111    0.2781 C   0  0  2  0  0  0  0  0  0  0  0  0
    1.1997    0.2251    0.2282 H   0  0  0  0  0  0  0  0  0  0  0  0
    2.3255   -1.4708   -0.1167 C   0  0  0  0  0  0  0  0  0  0  0  0
    2.1775   -1.8239   -1.2625 O   0  0  0  0  0  0  0  0  0  0  0  0
    2.3601   -2.4047    0.8598 O   0  0  0  0  0  0  0  0  0  0  0  0
    3.0252    0.9119   -0.7431 C   0  0  0  0  0  0  0  0  0  0  0  0
    4.5284    0.9435   -0.6086 N   0  0  0  0  0  0  0  0  0  0  0  0
    5.1948    2.1258   -0.8825 C   0  0  0  0  0  0  0  0  0  0  0  0
    6.4982    2.2360   -0.6009 C   0  0  0  0  0  0  0  0  0  0  0  0
    7.3048    0.9914   -0.5621 C   0  0  0  0  0  0  0  0  0  0  0  0
    8.5233    1.0457   -0.6712 O   0  0  0  0  0  0  0  0  0  0  0  0
    6.5761   -0.1768   -0.5755 N   0  0  0  0  0  0  0  0  0  0  0  0
    5.2731   -0.1442   -0.1182 C   0  0  0  0  0  0  0  0  0  0  0  0
    4.8249   -1.0382    0.5897 O   0  0  0  0  0  0  0  0  0  0  0  0
    7.2337   -1.4684   -0.8698 C   0  0  0  0  0  0  0  0  0  0  0  0
    6.3152   -2.6141   -1.2922 C   0  0  0  0  0  0  0  0  0  0  0  0
    6.7045   -3.9298   -0.9286 C   0  0  0  0  0  0  0  0  0  0  0  0
    5.9032   -5.0408   -1.2133 C   0  0  0  0  0  0  0  0  0  0  0  0
    4.6235   -4.8442   -1.6948 C   0  0  0  0  0  0  0  0  0  0  0  0
    4.2257   -3.5613   -2.0570 C   0  0  0  0  0  0  0  0  0  0  0  0
    5.1056   -2.4586   -2.0140 C   0  0  0  0  0  0  0  0  0  0  0  0
    4.6652   -1.2204   -2.7915 C   0  0  0  0  0  0  0  0  0  0  0  0
    3.5595   -1.0314   -3.2667 O   0  0  0  0  0  0  0  0  0  0  0  0
    5.6343   -0.3270   -3.0833 O   0  0  0  0  0  0  0  0  0  0  0  0
    3.7830    0.3491    1.5796 H   0  0  0  0  0  0  0  0  0  0  0  0
    2.5706   -0.3869    2.3010 H   0  0  0  0  0  0  0  0  0  0  0  0
    2.0623   -2.1049    1.7274 H   0  0  0  0  0  0  0  0  0  0  0  0
    2.6668    1.9426   -0.5980 H   0  0  0  0  0  0  0  0  0  0  0  0
    2.7513    0.6807   -1.7813 H   0  0  0  0  0  0  0  0  0  0  0  0
    4.6032    2.9762   -1.2141 H   0  0  0  0  0  0  0  0  0  0  0  0
    7.0288    3.1768   -0.5709 H   0  0  0  0  0  0  0  0  0  0  0  0
    7.8776   -1.7364   -0.0243 H   0  0  0  0  0  0  0  0  0  0  0  0
    7.8989   -1.2990   -1.7277 H   0  0  0  0  0  0  0  0  0  0  0  0
    7.6474   -4.1093   -0.4141 H   0  0  0  0  0  0  0  0  0  0  0  0
    6.2532   -6.0532   -1.0271 H   0  0  0  0  0  0  0  0  0  0  0  0
    3.9301   -5.6725   -1.8207 H   0  0  0  0  0  0  0  0  0  0  0  0
    3.1883   -3.4467   -2.3656 H   0  0  0  0  0  0  0  0  0  0  0  0
    6.2290   -0.1431   -2.3459 H   0  0  0  0  0  0  0  0  0  0  0  0
  1 26  1  0  0  0  0
  1 27  1  0  0  0  0
  2  4  1  0  0  0  0
  2  7  1  0  0  0  0
  2  3  1  6  0  0  0
  2  1  1  0  0  0  0
  4  5  2  0  0  0  0
  4  6  1  0  0  0  0
  6 28  1  0  0  0  0
  7  8  1  0  0  0  0
  7 29  1  0  0  0  0
  7 30  1  0  0  0  0
  8  9  1  0  0  0  0
  8 14  1  0  0  0  0
  9 10  2  0  0  0  0
  9 31  1  0  0  0  0
 10 11  1  0  0  0  0
 10 32  1  0  0  0  0
 11 12  2  0  0  0  0
 11 13  1  0  0  0  0
 13 14  1  0  0  0  0
 13 16  1  0  0  0  0
 14 15  2  0  0  0  0
 16 17  1  0  0  0  0
 16 33  1  0  0  0  0
 16 34  1  0  0  0  0
 17 18  2  0  0  0  0
 17 22  1  0  0  0  0
 18 19  1  0  0  0  0
 18 35  1  0  0  0  0
 19 20  2  0  0  0  0
 19 36  1  0  0  0  0
 20 21  1  0  0  0  0
 20 37  1  0  0  0  0
 21 22  2  0  0  0  0
 21 38  1  0  0  0  0
 22 23  1  0  0  0  0
 23 24  2  0  0  0  0
 23 25  1  0  0  0  0
 25 39  1  0  0  0  0
M  END
$$$$
