UBP
 OpenBabel04121316203D

 32 32  0  0  1  0  0  0  0  0999 V2000
    0.8987    0.0845    0.0174 O   0  0  0  0  0  0  0  0  0  0  0  0
    2.2379    0.2498   -0.0246 C   0  0  0  0  0  0  0  0  0  0  0  0
    2.7799    1.3460    0.0165 O   0  0  0  0  0  0  0  0  0  0  0  0
    2.9424   -1.0492   -0.1158 C   0  0  0  0  0  0  0  0  0  0  0  0
    4.4786   -0.9471   -0.0653 C   0  0  0  0  0  0  0  0  0  0  0  0
    5.2309   -2.2243   -0.0260 N   0  0  0  0  0  0  0  0  0  0  0  0
    6.6081   -2.1897    0.0355 C   0  0  0  0  0  0  0  0  0  0  0  0
    7.2705   -1.1613    0.1387 O   0  0  0  0  0  0  0  0  0  0  0  0
    7.2975   -3.5011    0.0463 C   0  0  0  0  0  0  0  0  0  0  0  0
    6.5801   -4.6285    0.0385 C   0  0  0  0  0  0  0  0  0  0  0  0
    5.2221   -4.5823   -0.1556 N   0  0  0  0  0  0  0  0  0  0  0  0
    4.5474   -3.4028   -0.0528 C   0  0  0  0  0  0  0  0  0  0  0  0
    3.3352   -3.4054   -0.1885 O   0  0  0  0  0  0  0  0  0  0  0  0
    4.4828   -5.7829   -0.6312 C   0  0  0  0  0  0  0  0  0  0  0  0
    3.0663   -5.5750   -1.2975 C   0  0  1  0  0  0  0  0  0  0  0  0
    2.3623   -5.0888   -0.6181 H   0  0  0  0  0  0  0  0  0  0  0  0
    3.1031   -4.8425   -2.6959 C   0  0  0  0  0  0  0  0  0  0  0  0
    2.5899   -5.3106   -3.7081 O   0  0  0  0  0  0  0  0  0  0  0  0
    3.7290   -3.6501   -2.8054 O   0  0  0  0  0  0  0  0  0  0  0  0
    2.3766   -6.8732   -1.4962 N   0  0  0  0  0  0  0  0  0  0  0  0
    0.5498   -0.1113   -0.8762 H   0  0  0  0  0  0  0  0  0  0  0  0
    2.6179   -1.5052   -1.0627 H   0  0  0  0  0  0  0  0  0  0  0  0
    2.5867   -1.6350    0.7440 H   0  0  0  0  0  0  0  0  0  0  0  0
    4.7805   -0.3869    0.8239 H   0  0  0  0  0  0  0  0  0  0  0  0
    4.8307   -0.3818   -0.9386 H   0  0  0  0  0  0  0  0  0  0  0  0
    8.3790   -3.4858    0.0739 H   0  0  0  0  0  0  0  0  0  0  0  0
    7.0398   -5.6063    0.1491 H   0  0  0  0  0  0  0  0  0  0  0  0
    4.3901   -6.4494    0.2368 H   0  0  0  0  0  0  0  0  0  0  0  0
    5.1239   -6.2842   -1.3677 H   0  0  0  0  0  0  0  0  0  0  0  0
    3.8100   -3.1571   -1.9754 H   0  0  0  0  0  0  0  0  0  0  0  0
    2.3683   -7.4295   -0.6495 H   0  0  0  0  0  0  0  0  0  0  0  0
    2.8250   -7.3783   -2.2565 H   0  0  0  0  0  0  0  0  0  0  0  0
  1  2  1  0  0  0  0
  1 21  1  0  0  0  0
  2  3  2  0  0  0  0
  2  4  1  0  0  0  0
  4  5  1  0  0  0  0
  4 22  1  0  0  0  0
  4 23  1  0  0  0  0
  5  6  1  0  0  0  0
  5 24  1  0  0  0  0
  5 25  1  0  0  0  0
  6  7  1  0  0  0  0
  6 12  1  0  0  0  0
  7  8  2  0  0  0  0
  7  9  1  0  0  0  0
  9 10  2  0  0  0  0
  9 26  1  0  0  0  0
 10 11  1  0  0  0  0
 10 27  1  0  0  0  0
 11 12  1  0  0  0  0
 11 14  1  0  0  0  0
 12 13  2  0  0  0  0
 14 15  1  0  0  0  0
 14 28  1  0  0  0  0
 14 29  1  0  0  0  0
 15 16  1  1  0  0  0
 15 17  1  0  0  0  0
 15 20  1  0  0  0  0
 17 18  2  0  0  0  0
 17 19  1  0  0  0  0
 19 30  1  0  0  0  0
 20 31  1  0  0  0  0
 20 32  1  0  0  0  0
M  END
$$$$
