UC5
 OpenBabel04121316203D

 40 41  0  0  1  0  0  0  0  0999 V2000
    6.9360   -1.8862   -3.4810 O   0  0  0  0  0  0  0  0  0  0  0  0
    6.9295   -3.3034   -3.5371 C   0  0  1  0  0  0  0  0  0  0  0  0
    6.2190   -3.6240   -4.3094 H   0  0  0  0  0  0  0  0  0  0  0  0
    8.3142   -3.8392   -3.8271 C   0  0  0  0  0  0  0  0  0  0  0  0
    8.2368   -5.2586   -3.2749 C   0  0  1  0  0  0  0  0  0  0  0  0
    9.2268   -5.6456   -3.0104 H   0  0  0  0  0  0  0  0  0  0  0  0
    7.4821   -5.1057   -2.0655 O   0  0  0  0  0  0  0  0  0  0  0  0
    6.6260   -3.9388   -2.1799 C   0  0  2  0  0  0  0  0  0  0  0  0
    6.8472   -3.2483   -1.3588 H   0  0  0  0  0  0  0  0  0  0  0  0
    5.1915   -4.4211   -2.0599 C   0  0  0  0  0  0  0  0  0  0  0  0
    4.2241   -3.4187   -2.1339 O   0  0  0  0  0  0  0  0  0  0  0  0
    2.6286   -3.7810   -2.2697 P   0  0  2  0  0  0  0  0  0  0  0  0
    2.2604   -2.7356   -1.1943 O   0  0  0  0  0  0  0  0  0  0  0  0
    2.1854   -5.1275   -1.1124 C   0  0  0  0  0  0  0  0  0  0  0  0
    1.6263   -4.4084    0.4748 P   0  0  0  0  0  0  0  0  0  0  0  0
    0.2615   -5.0795    0.2833 O   0  0  0  0  0  0  0  0  0  0  0  0
    2.5530   -5.4478    1.3463 O   0  0  0  0  0  0  0  0  0  0  0  0
    1.0977   -3.7286    1.9752 O   0  0  0  0  0  0  0  0  0  0  0  0
    3.0412   -4.9521   -3.4743 O   0  0  0  0  0  0  0  0  0  0  0  0
    7.6285   -6.2214   -4.2329 N   0  0  0  0  0  0  0  0  0  0  0  0
    8.2590   -6.3904   -5.4628 C   0  0  0  0  0  0  0  0  0  0  0  0
    7.6787   -7.0319   -6.4820 C   0  0  0  0  0  0  0  0  0  0  0  0
    6.3696   -7.6530   -6.2642 C   0  0  0  0  0  0  0  0  0  0  0  0
    5.7258   -8.1408   -7.1928 O   0  0  0  0  0  0  0  0  0  0  0  0
    5.9449   -7.6698   -4.9768 N   0  0  0  0  0  0  0  0  0  0  0  0
    5.0781   -8.1410   -4.7737 H   0  0  0  0  0  0  0  0  0  0  0  0
    6.4875   -6.9649   -3.9338 C   0  0  0  0  0  0  0  0  0  0  0  0
    5.9124   -7.0431   -2.8538 O   0  0  0  0  0  0  0  0  0  0  0  0
    7.0890   -1.5481   -4.3793 H   0  0  0  0  0  0  0  0  0  0  0  0
    9.0532   -3.2551   -3.2635 H   0  0  0  0  0  0  0  0  0  0  0  0
    8.5821   -3.7625   -4.8838 H   0  0  0  0  0  0  0  0  0  0  0  0
    5.0449   -4.9631   -1.1262 H   0  0  0  0  0  0  0  0  0  0  0  0
    5.0256   -5.0864   -2.8921 H   0  0  0  0  0  0  0  0  0  0  0  0
    3.0332   -5.8077   -1.0121 H   0  0  0  0  0  0  0  0  0  0  0  0
    1.3841   -5.7085   -1.5846 H   0  0  0  0  0  0  0  0  0  0  0  0
    3.2235   -5.9878    0.8960 H   0  0  0  0  0  0  0  0  0  0  0  0
    0.2803   -3.2275    1.8034 H   0  0  0  0  0  0  0  0  0  0  0  0
    2.2936   -5.5436   -3.6942 H   0  0  0  0  0  0  0  0  0  0  0  0
    9.2489   -5.9570   -5.5845 H   0  0  0  0  0  0  0  0  0  0  0  0
    8.1142   -7.1201   -7.4682 H   0  0  0  0  0  0  0  0  0  0  0  0
  1  2  1  0  0  0  0
  1 29  1  0  0  0  0
  2  3  1  6  0  0  0
  2  4  1  0  0  0  0
  2  8  1  0  0  0  0
  4  5  1  0  0  0  0
  4 30  1  0  0  0  0
  4 31  1  0  0  0  0
  5  6  1  1  0  0  0
  5  7  1  0  0  0  0
  5 20  1  0  0  0  0
  7  8  1  0  0  0  0
  8  9  1  1  0  0  0
  8 10  1  0  0  0  0
 10 11  1  0  0  0  0
 10 32  1  0  0  0  0
 10 33  1  0  0  0  0
 12 14  1  1  0  0  0
 12 19  1  0  0  0  0
 12 13  2  0  0  0  0
 12 11  1  0  0  0  0
 14 15  1  0  0  0  0
 14 34  1  0  0  0  0
 14 35  1  0  0  0  0
 15 16  2  0  0  0  0
 15 17  1  0  0  0  0
 15 18  1  0  0  0  0
 17 36  1  0  0  0  0
 18 37  1  0  0  0  0
 19 38  1  0  0  0  0
 20 21  1  0  0  0  0
 20 27  1  0  0  0  0
 21 22  2  0  0  0  0
 21 39  1  0  0  0  0
 22 23  1  0  0  0  0
 22 40  1  0  0  0  0
 23 24  2  0  0  0  0
 23 25  1  0  0  0  0
 25 26  1  0  0  0  0
 25 27  1  0  0  0  0
 27 28  2  0  0  0  0
M  END
$$$$
