UCD
 OpenBabel04121316203D

 47 48  0  0  1  0  0  0  0  0999 V2000
   -1.1060    1.7018   -4.0034 O   0  0  0  0  0  0  0  0  0  0  0  0
   -1.3469    0.7999   -2.8059 C   0  0  0  0  0  0  0  0  0  0  0  0
   -1.3117    0.8568   -0.9489 C   0  0  1  0  0  0  0  0  0  0  0  0
   -2.3477    0.9936   -0.5977 H   0  0  0  0  0  0  0  0  0  0  0  0
   -0.7570   -0.4633   -0.8319 O   0  0  0  0  0  0  0  0  0  0  0  0
    0.7101   -0.5372   -1.0126 C   0  0  1  0  0  0  0  0  0  0  0  0
    0.7928   -1.6209   -1.0441 H   0  0  0  0  0  0  0  0  0  0  0  0
    1.4182   -0.2546   -2.2040 O   0  0  0  0  0  0  0  0  0  0  0  0
    1.3646    0.0491    0.2234 C   0  0  1  0  0  0  0  0  0  0  0  0
    2.4525   -0.0627    0.1931 H   0  0  0  0  0  0  0  0  0  0  0  0
    0.9850    1.5492    0.5067 C   0  0  2  0  0  0  0  0  0  0  0  0
    1.2776    1.7573    1.5511 H   0  0  0  0  0  0  0  0  0  0  0  0
   -0.5568    1.7060    0.3849 C   0  0  1  0  0  0  0  0  0  0  0  0
   -0.9268    1.1674    1.2814 H   0  0  0  0  0  0  0  0  0  0  0  0
   -0.9768    3.0529    0.6464 O   0  0  0  0  0  0  0  0  0  0  0  0
    1.7222    2.6136   -0.1420 O   0  0  0  0  0  0  0  0  0  0  0  0
    1.4626    3.0852   -1.4664 C   0  0  2  0  0  0  0  0  0  0  0  0
    2.3743    2.7781   -2.0043 H   0  0  0  0  0  0  0  0  0  0  0  0
    1.3692    4.4592   -1.6042 O   0  0  0  0  0  0  0  0  0  0  0  0
    0.1891    5.1424   -1.6556 C   0  0  0  0  0  0  0  0  0  0  0  0
   -1.0573    4.6750   -1.8632 C   0  0  0  0  0  0  0  0  0  0  0  0
   -1.2574    3.3180   -2.2607 C   0  0  1  0  0  0  0  0  0  0  0  0
   -1.6344    3.4542   -3.2778 H   0  0  0  0  0  0  0  0  0  0  0  0
    0.3255    2.4913   -2.1974 C   0  0  1  0  0  0  0  0  0  0  0  0
    0.2585    1.6458   -1.6008 H   0  0  0  0  0  0  0  0  0  0  0  0
    1.0066    1.9387   -3.4028 O   0  0  0  0  0  0  0  0  0  0  0  0
   -2.5019    2.7800   -1.7178 O   0  0  0  0  0  0  0  0  0  0  0  0
    0.4154    6.5590   -1.4837 C   0  0  0  0  0  0  0  0  0  0  0  0
    1.5753    6.9641   -1.2236 O   0  0  0  0  0  0  0  0  0  0  0  0
   -0.6256    7.3627   -1.6230 O   0  0  0  0  0  0  0  0  0  0  0  0
    0.8114   -0.8486    1.2258 N   0  0  0  0  0  0  0  0  0  0  0  0
    1.2121   -0.7998    2.5220 C   0  0  0  0  0  0  0  0  0  0  0  0
    2.0546   -0.0548    2.9243 O   0  0  0  0  0  0  0  0  0  0  0  0
    0.4655   -1.7850    3.3611 C   0  0  0  0  0  0  0  0  0  0  0  0
   -0.3595    2.3794   -4.0462 H   0  0  0  0  0  0  0  0  0  0  0  0
   -0.5805    0.0601   -2.9850 H   0  0  0  0  0  0  0  0  0  0  0  0
   -2.2367    0.2853   -3.1394 H   0  0  0  0  0  0  0  0  0  0  0  0
    1.6842    0.6758   -2.2958 H   0  0  0  0  0  0  0  0  0  0  0  0
   -0.2306    3.6662    0.4922 H   0  0  0  0  0  0  0  0  0  0  0  0
   -1.9861    5.2240   -1.9417 H   0  0  0  0  0  0  0  0  0  0  0  0
    0.5526    1.1758   -3.8588 H   0  0  0  0  0  0  0  0  0  0  0  0
   -3.0367    3.3442   -1.1273 H   0  0  0  0  0  0  0  0  0  0  0  0
   -1.4536    6.9176   -1.8749 H   0  0  0  0  0  0  0  0  0  0  0  0
   -0.0195   -1.3785    0.9592 H   0  0  0  0  0  0  0  0  0  0  0  0
   -0.2744   -2.3509    2.7835 H   0  0  0  0  0  0  0  0  0  0  0  0
   -0.0473   -1.2220    4.1390 H   0  0  0  0  0  0  0  0  0  0  0  0
    1.2109   -2.4726    3.7552 H   0  0  0  0  0  0  0  0  0  0  0  0
  1  2  1  0  0  0  0
  1 35  1  0  0  0  0
  2  3  1  0  0  0  0
  2 36  1  0  0  0  0
  2 37  1  0  0  0  0
  3  4  1  1  0  0  0
  3  5  1  0  0  0  0
  3 13  1  0  0  0  0
  5  6  1  0  0  0  0
  6  9  1  0  0  0  0
  6  8  1  0  0  0  0
  6  7  1  1  0  0  0
  8 38  1  0  0  0  0
  9 10  1  6  0  0  0
  9 11  1  0  0  0  0
  9 31  1  0  0  0  0
 11 13  1  0  0  0  0
 11 16  1  0  0  0  0
 11 12  1  1  0  0  0
 13 15  1  0  0  0  0
 13 14  1  1  0  0  0
 15 39  1  0  0  0  0
 17 19  1  0  0  0  0
 17 24  1  0  0  0  0
 17 18  1  6  0  0  0
 17 16  1  0  0  0  0
 19 20  1  0  0  0  0
 20 21  2  0  0  0  0
 20 28  1  0  0  0  0
 21 22  1  0  0  0  0
 21 40  1  0  0  0  0
 22 23  1  6  0  0  0
 22 24  1  0  0  0  0
 22 27  1  0  0  0  0
 24 26  1  0  0  0  0
 24 25  1  1  0  0  0
 26 41  1  0  0  0  0
 27 42  1  0  0  0  0
 28 29  2  0  0  0  0
 28 30  1  0  0  0  0
 30 43  1  0  0  0  0
 31 32  1  0  0  0  0
 31 44  1  0  0  0  0
 32 33  2  0  0  0  0
 32 34  1  0  0  0  0
 34 45  1  0  0  0  0
 34 46  1  0  0  0  0
 34 47  1  0  0  0  0
M  END
$$$$
