UCN
 OpenBabel04121316203D

 62 69  0  0  1  0  0  0  0  0999 V2000
    3.7228   -0.0159   -3.2644 C   0  0  0  0  0  0  0  0  0  0  0  0
    3.9284   -0.3248   -1.8109 N   0  0  0  0  0  0  0  0  0  0  0  0
    3.0961    0.4804   -0.9463 C   0  0  2  0  0  0  0  0  0  0  0  0
    2.4718   -0.0559   -0.2258 H   0  0  0  0  0  0  0  0  0  0  0  0
    2.6656    1.7453   -1.5294 C   0  0  0  0  0  0  0  0  0  0  0  0
    3.6017    3.4469   -0.6571 C   0  0  1  0  0  0  0  0  0  0  0  0
    2.5501    2.9369   -1.2507 H   0  0  0  0  0  0  0  0  0  0  0  0
    1.9228    3.5642   -0.4943 O   0  0  0  0  0  0  0  0  0  0  0  0
    2.4181    2.9401    0.5683 C   0  0  2  0  0  0  0  0  0  0  0  0
    3.7168    1.6117   -0.2916 C   0  0  2  0  0  0  0  0  0  0  0  0
    4.5742    1.4644    0.2864 H   0  0  0  0  0  0  0  0  0  0  0  0
    4.3901    2.4173   -1.8614 O   0  0  0  0  0  0  0  0  0  0  0  0
    5.5877    2.0598   -2.2904 C   0  0  0  0  0  0  0  0  0  0  0  0
    1.4682    2.1415    1.3159 C   0  0  0  0  0  0  0  0  0  0  0  0
    2.4233    4.4340    0.9182 N   0  0  0  0  0  0  0  0  0  0  0  0
    1.9278    5.7156    0.1234 C   0  0  0  0  0  0  0  0  0  0  0  0
    0.8792    6.0269   -0.8645 C   0  0  0  0  0  0  0  0  0  0  0  0
    0.5164    7.3787   -1.0761 C   0  0  0  0  0  0  0  0  0  0  0  0
    1.2048    8.3845   -0.4391 C   0  0  0  0  0  0  0  0  0  0  0  0
    2.2937    8.0930    0.3497 C   0  0  0  0  0  0  0  0  0  0  0  0
    2.7168    6.8049    0.6254 C   0  0  0  0  0  0  0  0  0  0  0  0
    3.7550    6.3333    1.4137 C   0  0  0  0  0  0  0  0  0  0  0  0
    3.4794    5.0147    1.4465 C   0  0  0  0  0  0  0  0  0  0  0  0
    4.3861    4.2273    1.9907 C   0  0  0  0  0  0  0  0  0  0  0  0
    4.8835    3.3710    1.0007 N   0  0  0  0  0  0  0  0  0  0  0  0
    6.4881    3.8393    1.8681 C   0  0  0  0  0  0  0  0  0  0  0  0
    8.0137    3.7001    2.9977 C   0  0  0  0  0  0  0  0  0  0  0  0
    8.4744    2.7010    4.0867 C   0  0  0  0  0  0  0  0  0  0  0  0
    7.4579    1.8826    4.1152 C   0  0  0  0  0  0  0  0  0  0  0  0
    6.2161    2.5418    3.8235 C   0  0  0  0  0  0  0  0  0  0  0  0
    6.0394    3.9456    3.3564 C   0  0  0  0  0  0  0  0  0  0  0  0
    5.1377    4.9031    3.0061 C   0  0  0  0  0  0  0  0  0  0  0  0
    5.5473    6.3078    2.9400 C   0  0  0  0  0  0  0  0  0  0  0  0
    4.6865    7.0554    2.1334 C   0  0  0  0  0  0  0  0  0  0  0  0
    4.8485    8.4693    2.3052 C   0  0  2  0  0  0  0  0  0  0  0  0
    4.7972    9.0113    1.3668 H   0  0  0  0  0  0  0  0  0  0  0  0
    6.1291    8.4770    2.9464 N   0  0  0  0  0  0  0  0  0  0  0  0
    6.4871    7.2352    3.5312 C   0  0  0  0  0  0  0  0  0  0  0  0
    7.3613    7.1099    4.3777 O   0  0  0  0  0  0  0  0  0  0  0  0
    3.8748    8.9342    3.2236 O   0  0  0  0  0  0  0  0  0  0  0  0
    4.5367   -0.4598   -3.8394 H   0  0  0  0  0  0  0  0  0  0  0  0
    3.7547    1.0445   -3.5906 H   0  0  0  0  0  0  0  0  0  0  0  0
    2.7387   -0.3271   -3.5963 H   0  0  0  0  0  0  0  0  0  0  0  0
    4.8650   -0.0589   -1.4997 H   0  0  0  0  0  0  0  0  0  0  0  0
    1.6187    1.0702   -1.7335 H   0  0  0  0  0  0  0  0  0  0  0  0
    2.4076    1.9262   -2.6705 H   0  0  0  0  0  0  0  0  0  0  0  0
    5.8006    2.6909   -3.1402 H   0  0  0  0  0  0  0  0  0  0  0  0
    5.3771    1.1266   -2.6859 H   0  0  0  0  0  0  0  0  0  0  0  0
    6.1008    1.9759   -1.3702 H   0  0  0  0  0  0  0  0  0  0  0  0
    1.1719    1.2195    0.8072 H   0  0  0  0  0  0  0  0  0  0  0  0
    0.5959    2.7427    1.5408 H   0  0  0  0  0  0  0  0  0  0  0  0
    2.1754    1.9418    2.1059 H   0  0  0  0  0  0  0  0  0  0  0  0
    0.2703    5.2948   -1.4058 H   0  0  0  0  0  0  0  0  0  0  0  0
   -0.3339    7.6805   -1.6917 H   0  0  0  0  0  0  0  0  0  0  0  0
    0.9293    9.4241   -0.5311 H   0  0  0  0  0  0  0  0  0  0  0  0
    2.7973    8.8906    0.8536 H   0  0  0  0  0  0  0  0  0  0  0  0
    8.5281    4.5843    3.9532 H   0  0  0  0  0  0  0  0  0  0  0  0
    9.3882    2.4592    4.7468 H   0  0  0  0  0  0  0  0  0  0  0  0
    7.6504    0.8205    4.1494 H   0  0  0  0  0  0  0  0  0  0  0  0
    5.4447    1.9229    3.4496 H   0  0  0  0  0  0  0  0  0  0  0  0
    6.7212    9.2990    2.9400 H   0  0  0  0  0  0  0  0  0  0  0  0
    3.9246    8.3913    4.0314 H   0  0  0  0  0  0  0  0  0  0  0  0
  1  2  1  0  0  0  0
  1 41  1  0  0  0  0
  1 42  1  0  0  0  0
  1 43  1  0  0  0  0
  2 44  1  0  0  0  0
  3  5  1  0  0  0  0
  3 10  1  0  0  0  0
  3  4  1  1  0  0  0
  3  2  1  0  0  0  0
  5  6  1  0  0  0  0
  5 45  1  0  0  0  0
  5 46  1  0  0  0  0
  6  7  1  6  0  0  0
  6  8  1  0  0  0  0
  6 25  1  0  0  0  0
  8  9  1  0  0  0  0
  9 10  1  0  0  0  0
  9 14  1  1  0  0  0
  9 15  1  0  0  0  0
 10 11  1  1  0  0  0
 10 12  1  0  0  0  0
 12 13  1  0  0  0  0
 13 47  1  0  0  0  0
 13 48  1  0  0  0  0
 13 49  1  0  0  0  0
 14 50  1  0  0  0  0
 14 51  1  0  0  0  0
 14 52  1  0  0  0  0
 15 16  1  0  0  0  0
 15 23  1  0  0  0  0
 16 17  2  0  0  0  0
 16 21  1  0  0  0  0
 17 18  1  0  0  0  0
 17 53  1  0  0  0  0
 18 19  2  0  0  0  0
 18 54  1  0  0  0  0
 19 20  1  0  0  0  0
 19 55  1  0  0  0  0
 20 21  2  0  0  0  0
 20 56  1  0  0  0  0
 21 22  1  0  0  0  0
 22 23  2  0  0  0  0
 22 34  1  0  0  0  0
 23 24  1  0  0  0  0
 24 25  1  0  0  0  0
 24 32  2  0  0  0  0
 25 26  1  0  0  0  0
 26 27  2  0  0  0  0
 26 31  1  0  0  0  0
 27 28  1  0  0  0  0
 27 57  1  0  0  0  0
 28 29  2  0  0  0  0
 28 58  1  0  0  0  0
 29 30  1  0  0  0  0
 29 59  1  0  0  0  0
 30 31  2  0  0  0  0
 30 60  1  0  0  0  0
 31 32  1  0  0  0  0
 32 33  1  0  0  0  0
 33 34  2  0  0  0  0
 33 38  1  0  0  0  0
 34 35  1  0  0  0  0
 35 37  1  0  0  0  0
 35 40  1  0  0  0  0
 35 36  1  6  0  0  0
 37 38  1  0  0  0  0
 37 61  1  0  0  0  0
 38 39  2  0  0  0  0
 40 62  1  0  0  0  0
M  END
$$$$
