UD1
 OpenBabel04121316203D

 66 68  0  0  1  0  0  0  0  0999 V2000
    7.5762   -8.9052   -7.7150 O   0  0  0  0  0  0  0  0  0  0  0  0
    8.3289   -9.9130   -7.1018 C   0  0  0  0  0  0  0  0  0  0  0  0
    8.8294   -9.7351   -5.6275 C   0  0  1  0  0  0  0  0  0  0  0  0
    9.9075   -9.5451   -5.7223 H   0  0  0  0  0  0  0  0  0  0  0  0
    8.4285   -8.7032   -4.6867 O   0  0  0  0  0  0  0  0  0  0  0  0
    7.1291   -8.7276   -4.0864 C   0  0  2  0  0  0  0  0  0  0  0  0
    6.4694   -8.3658   -4.8723 H   0  0  0  0  0  0  0  0  0  0  0  0
    6.8824   -7.8542   -3.0027 O   0  0  0  0  0  0  0  0  0  0  0  0
    7.3400   -6.3386   -2.8622 P   0  0  2  0  0  0  0  0  0  0  0  0
    7.5340   -5.9196   -1.4439 O   0  0  0  0  0  0  0  0  0  0  0  0
    6.3006   -5.4191   -3.6418 O   0  0  0  0  0  0  0  0  0  0  0  0
    5.0134   -4.7009   -3.0253 P   0  0  2  0  0  0  0  0  0  0  0  0
    3.7098   -5.2780   -3.4758 O   0  0  0  0  0  0  0  0  0  0  0  0
    5.2175   -3.1368   -3.3690 O   0  0  0  0  0  0  0  0  0  0  0  0
    4.1049   -2.4707   -3.9208 C   0  0  0  0  0  0  0  0  0  0  0  0
    3.9091   -1.0092   -3.5101 C   0  0  1  0  0  0  0  0  0  0  0  0
    3.6011   -0.9291   -2.4567 H   0  0  0  0  0  0  0  0  0  0  0  0
    5.0793   -0.1945   -3.6984 O   0  0  0  0  0  0  0  0  0  0  0  0
    4.5939    1.1459   -3.9391 C   0  0  2  0  0  0  0  0  0  0  0  0
    4.3423    1.6048   -2.9709 H   0  0  0  0  0  0  0  0  0  0  0  0
    3.3100    0.9675   -4.7670 C   0  0  1  0  0  0  0  0  0  0  0  0
    3.5085    0.9799   -5.8414 H   0  0  0  0  0  0  0  0  0  0  0  0
    2.8560   -0.4473   -4.4622 C   0  0  2  0  0  0  0  0  0  0  0  0
    2.8816   -1.0017   -5.4087 H   0  0  0  0  0  0  0  0  0  0  0  0
    1.5348   -0.5716   -3.9673 O   0  0  0  0  0  0  0  0  0  0  0  0
    2.3000    1.9282   -4.4741 O   0  0  0  0  0  0  0  0  0  0  0  0
    5.6929    1.9528   -4.5066 N   0  0  0  0  0  0  0  0  0  0  0  0
    6.8597    2.0427   -3.7577 C   0  0  0  0  0  0  0  0  0  0  0  0
    7.8535    2.8721   -4.0785 C   0  0  0  0  0  0  0  0  0  0  0  0
    7.7552    3.6459   -5.3237 C   0  0  0  0  0  0  0  0  0  0  0  0
    8.5941    4.4807   -5.6261 O   0  0  0  0  0  0  0  0  0  0  0  0
    6.6641    3.3699   -6.0941 N   0  0  0  0  0  0  0  0  0  0  0  0
    6.5665    3.9152   -6.9363 H   0  0  0  0  0  0  0  0  0  0  0  0
    5.5417    2.7318   -5.6457 C   0  0  0  0  0  0  0  0  0  0  0  0
    4.4770    2.9103   -6.2524 O   0  0  0  0  0  0  0  0  0  0  0  0
    5.2011   -4.5711   -1.4507 O   0  0  0  0  0  0  0  0  0  0  0  0
    8.6475   -6.1805   -3.7648 O   0  0  0  0  0  0  0  0  0  0  0  0
    6.7155  -10.1543   -3.5883 C   0  0  1  0  0  0  0  0  0  0  0  0
    5.6579  -10.1120   -3.3010 H   0  0  0  0  0  0  0  0  0  0  0  0
    6.9210  -11.0728   -4.7873 C   0  0  2  0  0  0  0  0  0  0  0  0
    6.6018  -12.0950   -4.6139 H   0  0  0  0  0  0  0  0  0  0  0  0
    8.4589  -11.1253   -5.1145 C   0  0  2  0  0  0  0  0  0  0  0  0
    8.6508  -11.8706   -5.8950 H   0  0  0  0  0  0  0  0  0  0  0  0
    9.2989  -11.5640   -4.0529 O   0  0  0  0  0  0  0  0  0  0  0  0
    6.0216  -10.6313   -5.8336 O   0  0  0  0  0  0  0  0  0  0  0  0
    7.4099  -10.6736   -2.3903 N   0  0  0  0  0  0  0  0  0  0  0  0
    7.1851  -11.9868   -2.0126 C   0  0  0  0  0  0  0  0  0  0  0  0
    6.3093  -12.6933   -2.5075 O   0  0  0  0  0  0  0  0  0  0  0  0
    8.1225  -12.5672   -0.9973 C   0  0  0  0  0  0  0  0  0  0  0  0
    7.1435   -9.3757   -8.4627 H   0  0  0  0  0  0  0  0  0  0  0  0
    9.1764  -10.2411   -7.7150 H   0  0  0  0  0  0  0  0  0  0  0  0
    7.6884  -10.8019   -7.1997 H   0  0  0  0  0  0  0  0  0  0  0  0
    3.1662   -2.9861   -3.6859 H   0  0  0  0  0  0  0  0  0  0  0  0
    4.2784   -2.5334   -4.9954 H   0  0  0  0  0  0  0  0  0  0  0  0
    0.9870    0.0039   -4.5360 H   0  0  0  0  0  0  0  0  0  0  0  0
    2.6664    2.7930   -4.7435 H   0  0  0  0  0  0  0  0  0  0  0  0
    6.9184    1.4258   -2.8634 H   0  0  0  0  0  0  0  0  0  0  0  0
    8.7410    3.0032   -3.4743 H   0  0  0  0  0  0  0  0  0  0  0  0
    5.1283   -5.3480   -0.8734 H   0  0  0  0  0  0  0  0  0  0  0  0
    8.5040   -5.7057   -4.6011 H   0  0  0  0  0  0  0  0  0  0  0  0
    9.0955  -12.5144   -3.9479 H   0  0  0  0  0  0  0  0  0  0  0  0
    6.2042   -9.7171   -6.1302 H   0  0  0  0  0  0  0  0  0  0  0  0
    8.3131  -10.2635   -2.1660 H   0  0  0  0  0  0  0  0  0  0  0  0
    8.8975  -11.8636   -0.6939 H   0  0  0  0  0  0  0  0  0  0  0  0
    8.6019  -13.4555   -1.4268 H   0  0  0  0  0  0  0  0  0  0  0  0
    7.5285  -12.8662   -0.1306 H   0  0  0  0  0  0  0  0  0  0  0  0
  1  2  1  0  0  0  0
  1 50  1  0  0  0  0
  2  3  1  0  0  0  0
  2 51  1  0  0  0  0
  2 52  1  0  0  0  0
  3  4  1  6  0  0  0
  3  5  1  0  0  0  0
  3 42  1  0  0  0  0
  5  6  1  0  0  0  0
  6  7  1  6  0  0  0
  6  8  1  0  0  0  0
  6 38  1  0  0  0  0
  9 11  1  6  0  0  0
  9 37  1  0  0  0  0
  9 10  2  0  0  0  0
  9  8  1  0  0  0  0
 12 14  1  6  0  0  0
 12 36  1  0  0  0  0
 12 13  2  0  0  0  0
 12 11  1  0  0  0  0
 14 15  1  0  0  0  0
 15 16  1  0  0  0  0
 15 53  1  0  0  0  0
 15 54  1  0  0  0  0
 16 17  1  1  0  0  0
 16 18  1  0  0  0  0
 16 23  1  0  0  0  0
 18 19  1  0  0  0  0
 19 21  1  0  0  0  0
 19 27  1  0  0  0  0
 19 20  1  1  0  0  0
 21 22  1  6  0  0  0
 21 23  1  0  0  0  0
 21 26  1  0  0  0  0
 23 24  1  6  0  0  0
 23 25  1  0  0  0  0
 25 55  1  0  0  0  0
 26 56  1  0  0  0  0
 27 28  1  0  0  0  0
 27 34  1  0  0  0  0
 28 29  2  0  0  0  0
 28 57  1  0  0  0  0
 29 30  1  0  0  0  0
 29 58  1  0  0  0  0
 30 31  2  0  0  0  0
 30 32  1  0  0  0  0
 32 33  1  0  0  0  0
 32 34  1  0  0  0  0
 34 35  2  0  0  0  0
 36 59  1  0  0  0  0
 37 60  1  0  0  0  0
 38 39  1  1  0  0  0
 38 40  1  0  0  0  0
 38 46  1  0  0  0  0
 40 42  1  0  0  0  0
 40 45  1  0  0  0  0
 40 41  1  1  0  0  0
 42 43  1  6  0  0  0
 42 44  1  0  0  0  0
 44 61  1  0  0  0  0
 45 62  1  0  0  0  0
 46 47  1  0  0  0  0
 46 63  1  0  0  0  0
 47 48  2  0  0  0  0
 47 49  1  0  0  0  0
 49 64  1  0  0  0  0
 49 65  1  0  0  0  0
 49 66  1  0  0  0  0
M  END
$$$$
