UDT
 OpenBabel04121316203D

 36 35  0  0  0  0  0  0  0  0999 V2000
    1.0099    0.0732   -0.0841 C   0  0  0  0  0  0  0  0  0  0  0  0
    2.5261    0.0697   -0.0775 C   0  0  0  0  0  0  0  0  0  0  0  0
    3.0498   -0.5916    1.1896 C   0  0  0  0  0  0  0  0  0  0  0  0
    4.5704   -0.5967    1.1994 C   0  0  0  0  0  0  0  0  0  0  0  0
    5.0851   -1.2588    2.4678 C   0  0  0  0  0  0  0  0  0  0  0  0
    6.6052   -1.2636    2.4769 C   0  0  0  0  0  0  0  0  0  0  0  0
    7.1218   -1.9255    3.7451 C   0  0  0  0  0  0  0  0  0  0  0  0
    8.6441   -1.9320    3.7574 C   0  0  0  0  0  0  0  0  0  0  0  0
    9.1651   -2.5944    5.0266 C   0  0  0  0  0  0  0  0  0  0  0  0
   10.6863   -2.6095    5.0555 C   0  0  0  0  0  0  0  0  0  0  0  0
   11.1157   -3.2439    6.2709 O   0  0  0  0  0  0  0  0  0  0  0  0
   12.4712   -3.3117    6.4007 C   0  0  0  0  0  0  0  0  0  0  0  0
   13.2594   -2.8770    5.5679 O   0  0  0  0  0  0  0  0  0  0  0  0
   13.0689   -4.0763    7.8656 S   0  0  0  0  0  0  0  0  0  0  0  0
    0.6360    0.5485   -0.9946 H   0  0  0  0  0  0  0  0  0  0  0  0
    0.6208    0.6237    0.7784 H   0  0  0  0  0  0  0  0  0  0  0  0
    0.6208   -0.9492   -0.0425 H   0  0  0  0  0  0  0  0  0  0  0  0
    2.8970    1.0994   -0.1418 H   0  0  0  0  0  0  0  0  0  0  0  0
    2.8970   -0.4662   -0.9589 H   0  0  0  0  0  0  0  0  0  0  0  0
    2.6768   -1.6213    1.2548 H   0  0  0  0  0  0  0  0  0  0  0  0
    2.6768   -0.0564    2.0716 H   0  0  0  0  0  0  0  0  0  0  0  0
    4.9475    0.4315    1.1380 H   0  0  0  0  0  0  0  0  0  0  0  0
    4.9475   -1.1343    0.3208 H   0  0  0  0  0  0  0  0  0  0  0  0
    4.7090   -2.2875    2.5304 H   0  0  0  0  0  0  0  0  0  0  0  0
    4.7090   -0.7220    3.3475 H   0  0  0  0  0  0  0  0  0  0  0  0
    6.9799   -0.2345    2.4137 H   0  0  0  0  0  0  0  0  0  0  0  0
    6.9799   -1.8001    1.5965 H   0  0  0  0  0  0  0  0  0  0  0  0
    6.7435   -2.9534    3.8061 H   0  0  0  0  0  0  0  0  0  0  0  0
    6.7435   -1.3879    4.6232 H   0  0  0  0  0  0  0  0  0  0  0  0
    9.0162   -0.9020    3.6916 H   0  0  0  0  0  0  0  0  0  0  0  0
    9.0162   -2.4669    2.8748 H   0  0  0  0  0  0  0  0  0  0  0  0
    8.7859   -3.6211    5.0993 H   0  0  0  0  0  0  0  0  0  0  0  0
    8.7859   -2.0670    5.9104 H   0  0  0  0  0  0  0  0  0  0  0  0
   11.0660   -1.5809    5.0194 H   0  0  0  0  0  0  0  0  0  0  0  0
   11.0660   -3.1681    4.1910 H   0  0  0  0  0  0  0  0  0  0  0  0
   11.8808   -4.3606    8.4103 H   0  0  0  0  0  0  0  0  0  0  0  0
  1  2  1  0  0  0  0
  1 15  1  0  0  0  0
  1 16  1  0  0  0  0
  1 17  1  0  0  0  0
  2  3  1  0  0  0  0
  2 18  1  0  0  0  0
  2 19  1  0  0  0  0
  3  4  1  0  0  0  0
  3 20  1  0  0  0  0
  3 21  1  0  0  0  0
  4  5  1  0  0  0  0
  4 22  1  0  0  0  0
  4 23  1  0  0  0  0
  5  6  1  0  0  0  0
  5 24  1  0  0  0  0
  5 25  1  0  0  0  0
  6  7  1  0  0  0  0
  6 26  1  0  0  0  0
  6 27  1  0  0  0  0
  7  8  1  0  0  0  0
  7 28  1  0  0  0  0
  7 29  1  0  0  0  0
  8  9  1  0  0  0  0
  8 30  1  0  0  0  0
  8 31  1  0  0  0  0
  9 10  1  0  0  0  0
  9 32  1  0  0  0  0
  9 33  1  0  0  0  0
 10 11  1  0  0  0  0
 10 34  1  0  0  0  0
 10 35  1  0  0  0  0
 11 12  1  0  0  0  0
 12 13  2  0  0  0  0
 12 14  1  0  0  0  0
 14 36  1  0  0  0  0
M  END
$$$$
