UFG
 OpenBabel04121316203D

 59 61  0  0  1  0  0  0  0  0999 V2000
    1.6305   -0.0467    0.7554 O   0  0  0  0  0  0  0  0  0  0  0  0
    2.8796   -0.1636    0.1252 C   0  0  0  0  0  0  0  0  0  0  0  0
    3.4267    0.8138   -1.0482 C   0  0  1  0  0  0  0  0  0  0  0  0
    4.2625    0.2460   -1.4534 H   0  0  0  0  0  0  0  0  0  0  0  0
    2.6980    1.1648   -2.3676 O   0  0  0  0  0  0  0  0  0  0  0  0
    1.6404    2.1247   -2.0476 C   0  0  2  0  0  0  0  0  0  0  0  0
    1.5119    1.4670   -1.2275 H   0  0  0  0  0  0  0  0  0  0  0  0
   -0.2273    2.1881   -2.4891 O   0  0  0  0  0  0  0  0  0  0  0  0
   -1.4914    3.1355   -1.7838 P   0  0  1  0  0  0  0  0  0  0  0  0
   -1.5479    3.4411   -0.2031 O   0  0  0  0  0  0  0  0  0  0  0  0
   -1.3996    4.2442   -3.1087 O   0  0  0  0  0  0  0  0  0  0  0  0
   -0.1772    3.7205   -4.2153 P   0  0  1  0  0  0  0  0  0  0  0  0
    0.1486    5.1490   -4.6746 O   0  0  0  0  0  0  0  0  0  0  0  0
    0.7089    3.7610   -2.4521 O   0  0  0  0  0  0  0  0  0  0  0  0
    0.4288    2.8827   -0.7975 C   0  0  0  0  0  0  0  0  0  0  0  0
   -0.1174    1.0280   -0.5456 C   0  0  1  0  0  0  0  0  0  0  0  0
    0.2190    1.0550    0.4676 H   0  0  0  0  0  0  0  0  0  0  0  0
   -1.4509    0.6742   -0.1167 O   0  0  0  0  0  0  0  0  0  0  0  0
   -1.2681   -0.6851    0.2811 C   0  0  2  0  0  0  0  0  0  0  0  0
   -0.6759   -0.7220    1.2085 H   0  0  0  0  0  0  0  0  0  0  0  0
   -0.5644   -1.3648   -0.9064 C   0  0  1  0  0  0  0  0  0  0  0  0
   -1.2403   -1.8877   -1.5948 H   0  0  0  0  0  0  0  0  0  0  0  0
    0.0802   -0.1952   -1.6287 C   0  0  2  0  0  0  0  0  0  0  0  0
   -0.4397   -0.0207   -2.5889 H   0  0  0  0  0  0  0  0  0  0  0  0
    1.3897   -0.6344   -1.9285 O   0  0  0  0  0  0  0  0  0  0  0  0
    0.4807   -2.2683   -0.4937 O   0  0  0  0  0  0  0  0  0  0  0  0
   -2.5046   -1.2850    0.6185 N   0  0  0  0  0  0  0  0  0  0  0  0
   -2.5083   -2.6253    0.9360 C   0  0  0  0  0  0  0  0  0  0  0  0
   -3.6535   -3.2915    0.9844 C   0  0  0  0  0  0  0  0  0  0  0  0
   -4.9070   -2.5190    0.8780 C   0  0  0  0  0  0  0  0  0  0  0  0
   -5.9751   -3.0778    0.7648 O   0  0  0  0  0  0  0  0  0  0  0  0
   -4.7806   -1.1638    0.9299 N   0  0  0  0  0  0  0  0  0  0  0  0
   -5.5996   -0.5881    0.8394 H   0  0  0  0  0  0  0  0  0  0  0  0
   -3.6549   -0.5150    0.5709 C   0  0  0  0  0  0  0  0  0  0  0  0
   -3.7800    0.6535    0.2121 O   0  0  0  0  0  0  0  0  0  0  0  0
    1.0451    3.1968   -5.3218 O   0  0  0  0  0  0  0  0  0  0  0  0
   -2.7554    4.0829   -1.0785 O   0  0  0  0  0  0  0  0  0  0  0  0
    2.3147    3.5484   -0.9947 C   0  0  1  0  0  0  0  0  0  0  0  0
    1.6499    4.2139   -0.4009 H   0  0  0  0  0  0  0  0  0  0  0  0
    2.9507    3.0088    0.2617 C   0  0  2  0  0  0  0  0  0  0  0  0
    3.3310    3.8957    0.7666 H   0  0  0  0  0  0  0  0  0  0  0  0
    3.9558    2.0837   -0.3493 C   0  0  2  0  0  0  0  0  0  0  0  0
    4.6503    1.8261    0.4349 H   0  0  0  0  0  0  0  0  0  0  0  0
    4.6143    2.8012   -1.3049 F   0  0  0  0  0  0  0  0  0  0  0  0
    2.0301    2.4931    1.2563 O   0  0  0  0  0  0  0  0  0  0  0  0
    2.7890    4.5828   -1.8288 O   0  0  0  0  0  0  0  0  0  0  0  0
    1.2803   -0.9540    0.8791 H   0  0  0  0  0  0  0  0  0  0  0  0
    2.9839   -1.2133   -0.1322 H   0  0  0  0  0  0  0  0  0  0  0  0
    3.4700    0.0539    1.0109 H   0  0  0  0  0  0  0  0  0  0  0  0
   -0.5075    2.2905   -0.6527 H   0  0  0  0  0  0  0  0  0  0  0  0
    0.0823    3.8763   -0.4601 H   0  0  0  0  0  0  0  0  0  0  0  0
    1.5211   -0.9899   -2.8192 H   0  0  0  0  0  0  0  0  0  0  0  0
    0.1390   -2.9933    0.0357 H   0  0  0  0  0  0  0  0  0  0  0  0
   -1.5557   -3.1333    1.0745 H   0  0  0  0  0  0  0  0  0  0  0  0
   -3.7105   -4.3623    1.0994 H   0  0  0  0  0  0  0  0  0  0  0  0
    1.3025    4.0109   -5.8063 H   0  0  0  0  0  0  0  0  0  0  0  0
   -2.8630    3.7400   -0.1662 H   0  0  0  0  0  0  0  0  0  0  0  0
    1.7300    1.5724    1.1272 H   0  0  0  0  0  0  0  0  0  0  0  0
    1.9924    4.6670   -2.4220 H   0  0  0  0  0  0  0  0  0  0  0  0
  1  2  1  0  0  0  0
  1 47  1  0  0  0  0
  2  3  1  0  0  0  0
  2 48  1  0  0  0  0
  2 49  1  0  0  0  0
  3  4  1  6  0  0  0
  3  5  1  0  0  0  0
  3 42  1  0  0  0  0
  5  6  1  0  0  0  0
  6  7  1  1  0  0  0
  6  8  1  0  0  0  0
  6 38  1  0  0  0  0
  9  8  1  6  0  0  0
  9 10  2  0  0  0  0
  9 11  1  0  0  0  0
  9 37  1  0  0  0  0
 12 11  1  6  0  0  0
 12 13  2  0  0  0  0
 12 14  1  0  0  0  0
 12 36  1  0  0  0  0
 14 15  1  0  0  0  0
 15 16  1  0  0  0  0
 15 50  1  0  0  0  0
 15 51  1  0  0  0  0
 16 17  1  1  0  0  0
 16 18  1  0  0  0  0
 16 23  1  0  0  0  0
 18 19  1  0  0  0  0
 19 21  1  0  0  0  0
 19 27  1  0  0  0  0
 19 20  1  1  0  0  0
 21 22  1  6  0  0  0
 21 23  1  0  0  0  0
 21 26  1  0  0  0  0
 23 24  1  6  0  0  0
 23 25  1  0  0  0  0
 25 52  1  0  0  0  0
 26 53  1  0  0  0  0
 27 28  1  0  0  0  0
 27 34  1  0  0  0  0
 28 29  2  0  0  0  0
 28 54  1  0  0  0  0
 29 30  1  0  0  0  0
 29 55  1  0  0  0  0
 30 31  2  0  0  0  0
 30 32  1  0  0  0  0
 32 33  1  0  0  0  0
 32 34  1  0  0  0  0
 34 35  2  0  0  0  0
 36 56  1  0  0  0  0
 37 57  1  0  0  0  0
 38 39  1  1  0  0  0
 38 40  1  0  0  0  0
 38 46  1  0  0  0  0
 40 42  1  0  0  0  0
 40 45  1  0  0  0  0
 40 41  1  1  0  0  0
 42 43  1  1  0  0  0
 42 44  1  0  0  0  0
 45 58  1  0  0  0  0
 46 59  1  0  0  0  0
M  END
$$$$
