UFT
 OpenBabel04121316203D

 33 34  0  0  1  0  0  0  0  0999 V2000
    2.8962    0.1878   -1.4038 O   0  0  0  0  0  0  0  0  0  0  0  0
    2.4346   -0.0003   -0.0610 C   0  0  2  0  0  0  0  0  0  0  0  0
    1.3425   -0.0012   -0.1019 H   0  0  0  0  0  0  0  0  0  0  0  0
    2.9830    1.0683    0.8847 C   0  0  1  0  0  0  0  0  0  0  0  0
    3.1148    2.0129    0.3427 H   0  0  0  0  0  0  0  0  0  0  0  0
    2.1876    1.3254    2.2041 C   0  0  0  0  0  0  0  0  0  0  0  0
    0.9917    2.0318    1.9523 O   0  0  0  0  0  0  0  0  0  0  0  0
   -0.3727    1.9671    2.7882 P   0  0  0  0  0  0  0  0  0  0  0  0
   -1.4573    2.8134    2.2209 O   0  0  0  0  0  0  0  0  0  0  0  0
   -0.7014    0.4108    2.8947 O   0  0  0  0  0  0  0  0  0  0  0  0
   -0.0361    2.3458    4.3013 O   0  0  0  0  0  0  0  0  0  0  0  0
    4.2863    0.5527    1.2203 O   0  0  0  0  0  0  0  0  0  0  0  0
    4.1982   -0.8839    1.3774 C   0  0  2  0  0  0  0  0  0  0  0  0
    5.1297   -1.3209    0.9960 H   0  0  0  0  0  0  0  0  0  0  0  0
    2.9794   -1.2903    0.5294 C   0  0  2  0  0  0  0  0  0  0  0  0
    2.1666   -1.7340    1.0999 H   0  0  0  0  0  0  0  0  0  0  0  0
    3.3357   -2.1874   -0.4218 F   0  0  0  0  0  0  0  0  0  0  0  0
    4.1146   -1.2131    2.8185 N   0  0  0  0  0  0  0  0  0  0  0  0
    3.2394   -2.1811    3.2872 C   0  0  0  0  0  0  0  0  0  0  0  0
    2.9854   -2.3441    4.5867 C   0  0  0  0  0  0  0  0  0  0  0  0
    3.8049   -1.6109    5.5498 C   0  0  0  0  0  0  0  0  0  0  0  0
    3.5553   -1.6578    6.7562 O   0  0  0  0  0  0  0  0  0  0  0  0
    4.8563   -0.9309    5.0230 N   0  0  0  0  0  0  0  0  0  0  0  0
    5.4671   -0.4564    5.6702 H   0  0  0  0  0  0  0  0  0  0  0  0
    5.0053   -0.5878    3.6990 C   0  0  0  0  0  0  0  0  0  0  0  0
    5.8578    0.2335    3.3861 O   0  0  0  0  0  0  0  0  0  0  0  0
    3.8660    0.0908   -1.4277 H   0  0  0  0  0  0  0  0  0  0  0  0
    2.8159    1.9447    2.8549 H   0  0  0  0  0  0  0  0  0  0  0  0
    1.9947    0.3931    2.7393 H   0  0  0  0  0  0  0  0  0  0  0  0
   -0.3605   -0.0859    2.1364 H   0  0  0  0  0  0  0  0  0  0  0  0
   -0.7808    2.8753    4.6614 H   0  0  0  0  0  0  0  0  0  0  0  0
    2.7113   -2.8115    2.5821 H   0  0  0  0  0  0  0  0  0  0  0  0
    2.2259   -3.0154    4.9634 H   0  0  0  0  0  0  0  0  0  0  0  0
  1 27  1  0  0  0  0
  2  4  1  0  0  0  0
  2 15  1  0  0  0  0
  2  3  1  1  0  0  0
  2  1  1  0  0  0  0
  4  5  1  6  0  0  0
  4  6  1  0  0  0  0
  4 12  1  0  0  0  0
  6  7  1  0  0  0  0
  6 28  1  0  0  0  0
  6 29  1  0  0  0  0
  7  8  1  0  0  0  0
  8  9  2  0  0  0  0
  8 10  1  0  0  0  0
  8 11  1  0  0  0  0
 10 30  1  0  0  0  0
 11 31  1  0  0  0  0
 12 13  1  0  0  0  0
 13 15  1  0  0  0  0
 13 18  1  0  0  0  0
 13 14  1  6  0  0  0
 15 16  1  1  0  0  0
 15 17  1  0  0  0  0
 18 19  1  0  0  0  0
 18 25  1  0  0  0  0
 19 20  2  0  0  0  0
 19 32  1  0  0  0  0
 20 21  1  0  0  0  0
 20 33  1  0  0  0  0
 21 22  2  0  0  0  0
 21 23  1  0  0  0  0
 23 24  1  0  0  0  0
 23 25  1  0  0  0  0
 25 26  2  0  0  0  0
M  END
$$$$
