UGA
 OpenBabel04121316203D

 59 61  0  0  1  0  0  0  0  0999 V2000
   -3.3484    0.5044    6.1091 O   0  0  0  0  0  0  0  0  0  0  0  0
   -2.0545    0.0699    5.6728 C   0  0  2  0  0  0  0  0  0  0  0  0
   -1.3586    0.8926    5.8535 H   0  0  0  0  0  0  0  0  0  0  0  0
   -2.1115   -0.3222    4.2040 C   0  0  1  0  0  0  0  0  0  0  0  0
   -2.8707    0.2520    3.6622 H   0  0  0  0  0  0  0  0  0  0  0  0
   -0.7597   -0.2492    3.4705 C   0  0  0  0  0  0  0  0  0  0  0  0
   -0.2457    1.0477    3.1905 O   0  0  0  0  0  0  0  0  0  0  0  0
    1.2638    1.1243    2.5864 P   0  0  2  0  0  0  0  0  0  0  0  0
    2.3707    1.0232    3.5865 O   0  0  0  0  0  0  0  0  0  0  0  0
    1.4292    2.3961    1.5124 O   0  0  0  0  0  0  0  0  0  0  0  0
    1.9964    3.7801    2.2702 P   0  0  2  0  0  0  0  0  0  0  0  0
    0.9212    3.5360    3.3514 O   0  0  0  0  0  0  0  0  0  0  0  0
    1.1135    5.0298    1.6112 O   0  0  0  0  0  0  0  0  0  0  0  0
   -0.0254    5.4324    2.4423 C   0  0  1  0  0  0  0  0  0  0  0  0
    0.2336    5.4079    3.5113 H   0  0  0  0  0  0  0  0  0  0  0  0
   -0.3577    6.8094    2.2954 O   0  0  0  0  0  0  0  0  0  0  0  0
   -0.8099    7.1545    1.0055 C   0  0  2  0  0  0  0  0  0  0  0  0
    0.0558    7.0824    0.3382 H   0  0  0  0  0  0  0  0  0  0  0  0
   -1.2773    8.6102    0.9766 C   0  0  0  0  0  0  0  0  0  0  0  0
   -1.2693    9.3709    1.9352 O   0  0  0  0  0  0  0  0  0  0  0  0
   -1.6611    9.0275   -0.2564 O   0  0  0  0  0  0  0  0  0  0  0  0
   -1.9541    6.2653    0.5183 C   0  0  2  0  0  0  0  0  0  0  0  0
   -2.8740    6.4397    1.0933 H   0  0  0  0  0  0  0  0  0  0  0  0
   -1.5802    4.8067    0.6505 C   0  0  1  0  0  0  0  0  0  0  0  0
   -0.7196    4.5634    0.0093 H   0  0  0  0  0  0  0  0  0  0  0  0
   -1.2420    4.5195    2.0926 C   0  0  1  0  0  0  0  0  0  0  0  0
   -2.0712    4.7084    2.7788 H   0  0  0  0  0  0  0  0  0  0  0  0
   -1.0533    3.1143    2.0917 O   0  0  0  0  0  0  0  0  0  0  0  0
   -2.6379    3.9518    0.2168 O   0  0  0  0  0  0  0  0  0  0  0  0
   -2.1994    6.5435   -0.8712 O   0  0  0  0  0  0  0  0  0  0  0  0
    3.2011    4.0535    1.0590 O   0  0  0  0  0  0  0  0  0  0  0  0
    1.1945   -0.1266    1.5839 O   0  0  0  0  0  0  0  0  0  0  0  0
   -2.5501   -1.7124    4.2264 O   0  0  0  0  0  0  0  0  0  0  0  0
   -1.9507   -2.3528    5.3744 C   0  0  2  0  0  0  0  0  0  0  0  0
   -2.6848   -3.0479    5.8048 H   0  0  0  0  0  0  0  0  0  0  0  0
   -1.6039   -1.2178    6.3667 C   0  0  2  0  0  0  0  0  0  0  0  0
   -0.5248   -1.1536    6.5379 H   0  0  0  0  0  0  0  0  0  0  0  0
   -2.2368   -1.4218    7.6325 O   0  0  0  0  0  0  0  0  0  0  0  0
   -0.7945   -3.1769    4.9619 N   0  0  0  0  0  0  0  0  0  0  0  0
   -0.6484   -3.5903    3.6478 C   0  0  0  0  0  0  0  0  0  0  0  0
    0.2851   -4.4712    3.2775 C   0  0  0  0  0  0  0  0  0  0  0  0
    1.2239   -4.9635    4.2886 C   0  0  0  0  0  0  0  0  0  0  0  0
    2.0387   -5.8523    4.0199 O   0  0  0  0  0  0  0  0  0  0  0  0
    1.1296   -4.3879    5.5158 N   0  0  0  0  0  0  0  0  0  0  0  0
    1.7709   -4.7172    6.2213 H   0  0  0  0  0  0  0  0  0  0  0  0
    0.0474   -3.6695    5.9585 C   0  0  0  0  0  0  0  0  0  0  0  0
   -0.1321   -3.4871    7.1592 O   0  0  0  0  0  0  0  0  0  0  0  0
   -3.9406   -0.2671    6.1114 H   0  0  0  0  0  0  0  0  0  0  0  0
   -0.9109   -0.7573    2.5127 H   0  0  0  0  0  0  0  0  0  0  0  0
    0.0021   -0.8054    4.0230 H   0  0  0  0  0  0  0  0  0  0  0  0
   -1.8118    8.2857   -0.8860 H   0  0  0  0  0  0  0  0  0  0  0  0
   -0.2414    2.9379    1.5901 H   0  0  0  0  0  0  0  0  0  0  0  0
   -2.8325    4.1644   -0.7077 H   0  0  0  0  0  0  0  0  0  0  0  0
   -1.4389    6.1968   -1.3765 H   0  0  0  0  0  0  0  0  0  0  0  0
    3.6807    4.8815    1.2537 H   0  0  0  0  0  0  0  0  0  0  0  0
    1.7862   -0.0534    0.8240 H   0  0  0  0  0  0  0  0  0  0  0  0
   -1.8224   -2.2187    8.0220 H   0  0  0  0  0  0  0  0  0  0  0  0
   -1.3297   -3.1826    2.9069 H   0  0  0  0  0  0  0  0  0  0  0  0
    0.3881   -4.8365    2.2651 H   0  0  0  0  0  0  0  0  0  0  0  0
  1 48  1  0  0  0  0
  2  4  1  0  0  0  0
  2 36  1  0  0  0  0
  2  3  1  1  0  0  0
  2  1  1  0  0  0  0
  4  5  1  6  0  0  0
  4  6  1  0  0  0  0
  4 33  1  0  0  0  0
  6  7  1  0  0  0  0
  6 49  1  0  0  0  0
  6 50  1  0  0  0  0
  8 10  1  6  0  0  0
  8 32  1  0  0  0  0
  8  9  2  0  0  0  0
  8  7  1  0  0  0  0
 11 13  1  6  0  0  0
 11 31  1  0  0  0  0
 11 12  2  0  0  0  0
 11 10  1  0  0  0  0
 13 14  1  0  0  0  0
 14 15  1  1  0  0  0
 14 16  1  0  0  0  0
 14 26  1  0  0  0  0
 16 17  1  0  0  0  0
 17 18  1  6  0  0  0
 17 19  1  0  0  0  0
 17 22  1  0  0  0  0
 19 20  2  0  0  0  0
 19 21  1  0  0  0  0
 21 51  1  0  0  0  0
 22 24  1  0  0  0  0
 22 30  1  0  0  0  0
 22 23  1  1  0  0  0
 24 25  1  6  0  0  0
 24 26  1  0  0  0  0
 24 29  1  0  0  0  0
 26 28  1  0  0  0  0
 26 27  1  1  0  0  0
 28 52  1  0  0  0  0
 29 53  1  0  0  0  0
 30 54  1  0  0  0  0
 31 55  1  0  0  0  0
 32 56  1  0  0  0  0
 33 34  1  0  0  0  0
 34 36  1  0  0  0  0
 34 39  1  0  0  0  0
 34 35  1  1  0  0  0
 36 37  1  1  0  0  0
 36 38  1  0  0  0  0
 38 57  1  0  0  0  0
 39 40  1  0  0  0  0
 39 46  1  0  0  0  0
 40 41  2  0  0  0  0
 40 58  1  0  0  0  0
 41 42  1  0  0  0  0
 41 59  1  0  0  0  0
 42 43  2  0  0  0  0
 42 44  1  0  0  0  0
 44 45  1  0  0  0  0
 44 46  1  0  0  0  0
 46 47  2  0  0  0  0
M  END
$$$$
