UIB
 OpenBabel04121316203D

 65 69  0  0  1  0  0  0  0  0999 V2000
    4.6086    3.0491    0.3205 C   0  0  0  0  0  0  0  0  0  0  0  0
    4.5359    1.4958    0.4252 C   0  0  0  0  0  0  0  0  0  0  0  0
    3.2779    0.9329    1.2421 C   0  0  1  0  0  0  0  0  0  0  0  0
    2.7887    0.2706    0.5250 H   0  0  0  0  0  0  0  0  0  0  0  0
    3.3884    0.1362    2.4484 N   0  0  0  0  0  0  0  0  0  0  0  0
    2.7459   -1.2056    2.5020 C   0  0  0  0  0  0  0  0  0  0  0  0
    1.8940   -1.6037    3.7081 C   0  0  0  0  0  0  0  0  0  0  0  0
    1.3771   -0.6951    4.6602 C   0  0  0  0  0  0  0  0  0  0  0  0
    0.7113   -1.1044    5.8212 C   0  0  0  0  0  0  0  0  0  0  0  0
    0.4546   -2.4440    5.9658 C   0  0  0  0  0  0  0  0  0  0  0  0
    0.8574   -3.3441    5.0099 C   0  0  0  0  0  0  0  0  0  0  0  0
    1.5719   -2.9630    3.8852 C   0  0  0  0  0  0  0  0  0  0  0  0
    0.4825   -4.6181    5.3080 O   0  0  0  0  0  0  0  0  0  0  0  0
   -0.1828   -4.4184    6.5725 C   0  0  0  0  0  0  0  0  0  0  0  0
   -0.2129   -3.0368    6.9912 O   0  0  0  0  0  0  0  0  0  0  0  0
    3.4830    0.9611    3.5738 C   0  0  0  0  0  0  0  0  0  0  0  0
    3.9331    0.6063    4.6782 O   0  0  0  0  0  0  0  0  0  0  0  0
    3.1007    2.3653    3.1910 C   0  0  1  0  0  0  0  0  0  0  0  0
    4.1088    2.8172    3.1658 H   0  0  0  0  0  0  0  0  0  0  0  0
    2.5114    2.1022    1.8162 C   0  0  2  0  0  0  0  0  0  0  0  0
    2.8211    3.0426    1.3647 H   0  0  0  0  0  0  0  0  0  0  0  0
    1.0345    2.3529    1.5388 C   0  0  0  0  0  0  0  0  0  0  0  0
   -0.3955    1.8283    1.2350 C   0  0  0  0  0  0  0  0  0  0  0  0
    1.3125    2.0593   -0.0521 C   0  0  0  0  0  0  0  0  0  0  0  0
    0.9218    3.4958    2.5337 N   0  0  0  0  0  0  0  0  0  0  0  0
    2.1260    3.4728    3.5844 C   0  0  1  0  0  0  0  0  0  0  0  0
    2.6882    4.3324    3.1683 H   0  0  0  0  0  0  0  0  0  0  0  0
    2.0068    4.0837    4.9978 C   0  0  0  0  0  0  0  0  0  0  0  0
    3.1427    4.5478    5.6757 C   0  0  0  0  0  0  0  0  0  0  0  0
    3.0325    5.0932    6.9701 C   0  0  0  0  0  0  0  0  0  0  0  0
    1.7779    5.3714    7.5270 C   0  0  0  0  0  0  0  0  0  0  0  0
    0.6630    5.1471    6.7689 C   0  0  0  0  0  0  0  0  0  0  0  0
    0.7982    4.3695    5.6464 C   0  0  0  0  0  0  0  0  0  0  0  0
    1.5399    5.7635    8.9379 C   0  0  0  0  0  0  0  0  0  0  0  0
    2.5031    5.8850    9.7912 N   0  0  0  0  0  0  0  0  0  0  0  0
    0.2755    5.9679    9.4011 N   0  0  0  0  0  0  0  0  0  0  0  0
   -0.2935    3.3268    3.3196 C   0  0  0  0  0  0  0  0  0  0  0  0
    5.4173    3.5124   -0.2356 H   0  0  0  0  0  0  0  0  0  0  0  0
    4.6884    3.4576    1.3294 H   0  0  0  0  0  0  0  0  0  0  0  0
    3.7102    3.4557   -0.1737 H   0  0  0  0  0  0  0  0  0  0  0  0
    5.4791    1.0819    0.7802 H   0  0  0  0  0  0  0  0  0  0  0  0
    4.4158    1.1568   -0.6193 H   0  0  0  0  0  0  0  0  0  0  0  0
    2.0831   -1.3285    1.6272 H   0  0  0  0  0  0  0  0  0  0  0  0
    3.5681   -1.9141    2.3656 H   0  0  0  0  0  0  0  0  0  0  0  0
    1.5140    0.3728    4.5619 H   0  0  0  0  0  0  0  0  0  0  0  0
    0.4302   -0.3658    6.5642 H   0  0  0  0  0  0  0  0  0  0  0  0
    1.8749   -3.7197    3.1693 H   0  0  0  0  0  0  0  0  0  0  0  0
    0.3329   -5.0132    7.3358 H   0  0  0  0  0  0  0  0  0  0  0  0
   -1.2116   -4.7898    6.4882 H   0  0  0  0  0  0  0  0  0  0  0  0
   -1.2842    2.1243    1.7664 H   0  0  0  0  0  0  0  0  0  0  0  0
   -0.4568    0.7517    1.2554 H   0  0  0  0  0  0  0  0  0  0  0  0
   -0.7578    2.3075    0.2997 H   0  0  0  0  0  0  0  0  0  0  0  0
    2.3099    2.1349   -0.4683 H   0  0  0  0  0  0  0  0  0  0  0  0
    0.7031    2.5510   -0.8001 H   0  0  0  0  0  0  0  0  0  0  0  0
    1.1169    0.9608   -0.1457 H   0  0  0  0  0  0  0  0  0  0  0  0
    4.1334    4.4849    5.2297 H   0  0  0  0  0  0  0  0  0  0  0  0
    3.9470    5.2811    7.5187 H   0  0  0  0  0  0  0  0  0  0  0  0
   -0.3484    5.4175    7.0469 H   0  0  0  0  0  0  0  0  0  0  0  0
   -0.1758    3.9972    5.4020 H   0  0  0  0  0  0  0  0  0  0  0  0
    3.4033    5.6855    9.3547 H   0  0  0  0  0  0  0  0  0  0  0  0
   -0.5669    5.7661    8.8849 H   0  0  0  0  0  0  0  0  0  0  0  0
    0.1723    6.1446   10.3888 H   0  0  0  0  0  0  0  0  0  0  0  0
   -1.2522    3.3637    2.8233 H   0  0  0  0  0  0  0  0  0  0  0  0
   -0.5066    4.2662    3.7984 H   0  0  0  0  0  0  0  0  0  0  0  0
   -0.2443    2.4093    3.9376 H   0  0  0  0  0  0  0  0  0  0  0  0
  1  2  1  0  0  0  0
  1 38  1  0  0  0  0
  1 39  1  0  0  0  0
  1 40  1  0  0  0  0
  2 41  1  0  0  0  0
  2 42  1  0  0  0  0
  3  5  1  0  0  0  0
  3 20  1  0  0  0  0
  3  4  1  6  0  0  0
  3  2  1  0  0  0  0
  5 16  1  0  0  0  0
  5  6  1  0  0  0  0
  6  7  1  0  0  0  0
  6 43  1  0  0  0  0
  6 44  1  0  0  0  0
  7  8  2  0  0  0  0
  7 12  1  0  0  0  0
  8  9  1  0  0  0  0
  8 45  1  0  0  0  0
  9 10  2  0  0  0  0
  9 46  1  0  0  0  0
 10 11  1  0  0  0  0
 10 15  1  0  0  0  0
 11 12  2  0  0  0  0
 11 13  1  0  0  0  0
 12 47  1  0  0  0  0
 13 14  1  0  0  0  0
 14 15  1  0  0  0  0
 14 48  1  0  0  0  0
 14 49  1  0  0  0  0
 16 18  1  0  0  0  0
 16 17  2  0  0  0  0
 18 20  1  0  0  0  0
 18 26  1  0  0  0  0
 18 19  1  6  0  0  0
 20 22  1  0  0  0  0
 20 21  1  6  0  0  0
 22 25  1  0  0  0  0
 22 23  1  0  0  0  0
 22 24  1  0  0  0  0
 23 50  1  0  0  0  0
 23 51  1  0  0  0  0
 23 52  1  0  0  0  0
 24 53  1  0  0  0  0
 24 54  1  0  0  0  0
 24 55  1  0  0  0  0
 25 26  1  0  0  0  0
 25 37  1  0  0  0  0
 26 28  1  0  0  0  0
 26 27  1  6  0  0  0
 28 29  2  0  0  0  0
 28 33  1  0  0  0  0
 29 30  1  0  0  0  0
 29 56  1  0  0  0  0
 30 31  2  0  0  0  0
 30 57  1  0  0  0  0
 31 32  1  0  0  0  0
 31 34  1  0  0  0  0
 32 33  2  0  0  0  0
 32 58  1  0  0  0  0
 33 59  1  0  0  0  0
 34 35  2  0  0  0  0
 34 36  1  0  0  0  0
 35 60  1  0  0  0  0
 36 61  1  0  0  0  0
 36 62  1  0  0  0  0
 37 63  1  0  0  0  0
 37 64  1  0  0  0  0
 37 65  1  0  0  0  0
M  END
$$$$
