UIR
 OpenBabel04121316203D

 64 70  0  0  1  0  0  0  0  0999 V2000
    1.0698    0.0986   -0.4044 O   0  0  0  0  0  0  0  0  0  0  0  0
    2.3056    0.2388   -0.3491 C   0  0  0  0  0  0  0  0  0  0  0  0
    2.9927    1.3345    0.1844 N   0  0  0  0  0  0  0  0  0  0  0  0
    2.5101    2.1018    1.3812 C   0  0  0  0  0  0  0  0  0  0  0  0
    1.1427    1.7173    2.0447 C   0  0  0  0  0  0  0  0  0  0  0  0
    0.2955    2.7267    2.4988 C   0  0  0  0  0  0  0  0  0  0  0  0
   -0.9993    2.4149    3.0117 C   0  0  0  0  0  0  0  0  0  0  0  0
   -1.4097    1.0924    3.1618 C   0  0  0  0  0  0  0  0  0  0  0  0
   -0.5406    0.1156    2.8776 C   0  0  0  0  0  0  0  0  0  0  0  0
    0.6658    0.4075    2.3427 C   0  0  0  0  0  0  0  0  0  0  0  0
   -0.9405   -1.1563    3.1034 O   0  0  0  0  0  0  0  0  0  0  0  0
   -2.2838   -0.8952    3.4919 C   0  0  0  0  0  0  0  0  0  0  0  0
   -2.5838    0.5365    3.5693 O   0  0  0  0  0  0  0  0  0  0  0  0
    4.4289    1.1514   -0.0701 C   0  0  1  0  0  0  0  0  0  0  0  0
    4.9632    0.8323    0.8335 H   0  0  0  0  0  0  0  0  0  0  0  0
    4.4585    0.0065   -1.1119 C   0  0  2  0  0  0  0  0  0  0  0  0
    4.3133    0.3946   -2.1283 H   0  0  0  0  0  0  0  0  0  0  0  0
    3.2856   -0.8660   -0.7039 C   0  0  1  0  0  0  0  0  0  0  0  0
    2.8854   -1.4151   -1.5681 H   0  0  0  0  0  0  0  0  0  0  0  0
    3.9198   -1.9050    0.3552 C   0  0  2  0  0  0  0  0  0  0  0  0
    3.2818   -2.8015    0.3724 H   0  0  0  0  0  0  0  0  0  0  0  0
    4.1399   -1.4887    1.8225 C   0  0  0  0  0  0  0  0  0  0  0  0
    3.3106   -0.5460    2.3142 C   0  0  0  0  0  0  0  0  0  0  0  0
    3.3470    0.1777    3.4976 C   0  0  0  0  0  0  0  0  0  0  0  0
    4.3719   -0.0250    4.3206 C   0  0  0  0  0  0  0  0  0  0  0  0
    5.0928   -1.1984    4.0599 C   0  0  0  0  0  0  0  0  0  0  0  0
    4.9950   -1.9137    2.8085 C   0  0  0  0  0  0  0  0  0  0  0  0
    4.5251    0.9886    5.3984 C   0  0  0  0  0  0  0  0  0  0  0  0
    3.9752    2.1690    5.4486 N   0  0  0  0  0  0  0  0  0  0  0  0
    5.3394    0.6755    6.4146 N   0  0  0  0  0  0  0  0  0  0  0  0
    5.2575   -2.1285   -0.2083 N   0  0  3  0  0  0  0  0  0  0  0  0
    5.6201   -0.9493   -1.0328 C   0  0  1  0  0  0  0  0  0  0  0  0
    6.5084   -0.4895   -0.5907 H   0  0  0  0  0  0  0  0  0  0  0  0
    5.9653   -1.5516   -2.3901 C   0  0  0  0  0  0  0  0  0  0  0  0
    6.6180   -2.8346   -1.9300 C   0  0  0  0  0  0  0  0  0  0  0  0
    5.4845   -3.3305   -1.0225 C   0  0  0  0  0  0  0  0  0  0  0  0
    5.0507    2.4103   -0.5962 C   0  0  0  0  0  0  0  0  0  0  0  0
    6.2046    3.0074    0.1794 C   0  0  0  0  0  0  0  0  0  0  0  0
    4.9326    3.7813    0.0367 C   0  0  0  0  0  0  0  0  0  0  0  0
    2.4933    3.1628    1.1285 H   0  0  0  0  0  0  0  0  0  0  0  0
    3.3415    2.0826    2.1093 H   0  0  0  0  0  0  0  0  0  0  0  0
    0.6284    3.7620    2.4375 H   0  0  0  0  0  0  0  0  0  0  0  0
   -1.6592    3.2323    3.2648 H   0  0  0  0  0  0  0  0  0  0  0  0
    1.1139   -0.5632    2.2309 H   0  0  0  0  0  0  0  0  0  0  0  0
   -2.4320   -1.3628    4.4711 H   0  0  0  0  0  0  0  0  0  0  0  0
   -2.9328   -1.3959    2.7615 H   0  0  0  0  0  0  0  0  0  0  0  0
    2.5822   -0.3189    1.6030 H   0  0  0  0  0  0  0  0  0  0  0  0
    2.6167    0.9334    3.7457 H   0  0  0  0  0  0  0  0  0  0  0  0
    5.7198   -1.6107    4.8338 H   0  0  0  0  0  0  0  0  0  0  0  0
    5.6053   -2.7874    2.6276 H   0  0  0  0  0  0  0  0  0  0  0  0
    3.3853    2.4334    4.6556 H   0  0  0  0  0  0  0  0  0  0  0  0
    5.7699   -0.2291    6.4646 H   0  0  0  0  0  0  0  0  0  0  0  0
    5.3924    1.3272    7.1815 H   0  0  0  0  0  0  0  0  0  0  0  0
    6.5798   -0.8882   -2.9986 H   0  0  0  0  0  0  0  0  0  0  0  0
    5.0670   -1.8083   -2.9756 H   0  0  0  0  0  0  0  0  0  0  0  0
    7.5270   -2.5965   -1.3538 H   0  0  0  0  0  0  0  0  0  0  0  0
    6.9066   -3.4828   -2.7588 H   0  0  0  0  0  0  0  0  0  0  0  0
    5.7459   -4.2048   -0.4200 H   0  0  0  0  0  0  0  0  0  0  0  0
    4.6021   -3.5858   -1.6279 H   0  0  0  0  0  0  0  0  0  0  0  0
    5.0313    2.4431   -1.6791 H   0  0  0  0  0  0  0  0  0  0  0  0
    7.0753    3.3523   -0.3612 H   0  0  0  0  0  0  0  0  0  0  0  0
    6.4310    2.6155    1.1688 H   0  0  0  0  0  0  0  0  0  0  0  0
    4.9113    4.6255   -0.6450 H   0  0  0  0  0  0  0  0  0  0  0  0
    4.3644    3.9637    0.9355 H   0  0  0  0  0  0  0  0  0  0  0  0
  1  2  2  0  0  0  0
  2  3  1  0  0  0  0
  2 18  1  0  0  0  0
  3  4  1  0  0  0  0
  3 14  1  0  0  0  0
  4  5  1  0  0  0  0
  4 40  1  0  0  0  0
  4 41  1  0  0  0  0
  5  6  2  0  0  0  0
  5 10  1  0  0  0  0
  6  7  1  0  0  0  0
  6 42  1  0  0  0  0
  7  8  2  0  0  0  0
  7 43  1  0  0  0  0
  8  9  1  0  0  0  0
  8 13  1  0  0  0  0
  9 10  2  0  0  0  0
  9 11  1  0  0  0  0
 10 44  1  0  0  0  0
 11 12  1  0  0  0  0
 12 13  1  0  0  0  0
 12 45  1  0  0  0  0
 12 46  1  0  0  0  0
 14 16  1  0  0  0  0
 14 37  1  0  0  0  0
 14 15  1  1  0  0  0
 16 17  1  6  0  0  0
 16 18  1  0  0  0  0
 16 32  1  0  0  0  0
 18 19  1  6  0  0  0
 18 20  1  0  0  0  0
 20 31  1  0  0  0  0
 20 22  1  0  0  0  0
 20 21  1  6  0  0  0
 22 23  2  0  0  0  0
 22 27  1  0  0  0  0
 23 24  1  0  0  0  0
 23 47  1  0  0  0  0
 24 25  2  0  0  0  0
 24 48  1  0  0  0  0
 25 26  1  0  0  0  0
 25 28  1  0  0  0  0
 26 27  2  0  0  0  0
 26 49  1  0  0  0  0
 27 50  1  0  0  0  0
 28 29  2  0  0  0  0
 28 30  1  0  0  0  0
 29 51  1  0  0  0  0
 30 52  1  0  0  0  0
 30 53  1  0  0  0  0
 31 32  1  0  0  0  0
 31 36  1  0  0  0  0
 32 33  1  1  0  0  0
 32 34  1  0  0  0  0
 34 35  1  0  0  0  0
 34 54  1  0  0  0  0
 34 55  1  0  0  0  0
 35 36  1  0  0  0  0
 35 56  1  0  0  0  0
 35 57  1  0  0  0  0
 36 58  1  0  0  0  0
 36 59  1  0  0  0  0
 37 38  1  0  0  0  0
 37 39  1  0  0  0  0
 37 60  1  0  0  0  0
 38 39  1  0  0  0  0
 38 61  1  0  0  0  0
 38 62  1  0  0  0  0
 39 63  1  0  0  0  0
 39 64  1  0  0  0  0
M  END
$$$$
