UKW
 OpenBabel04121316203D

 31 31  0  0  1  0  0  0  0  0999 V2000
    3.0826    0.9738   -1.1391 C   0  0  0  0  0  0  0  0  0  0  0  0
    2.5898    0.0777   -0.0030 C   0  0  2  0  0  0  0  0  0  0  0  0
    1.4932    0.0862   -0.0055 H   0  0  0  0  0  0  0  0  0  0  0  0
    3.1072    0.5723    1.3658 C   0  0  1  0  0  0  0  0  0  0  0  0
    2.7743   -0.1075    2.1612 H   0  0  0  0  0  0  0  0  0  0  0  0
    4.6603    0.5650    1.3602 C   0  0  0  0  0  0  0  0  0  0  0  0
    5.3431    1.5878    1.3896 O   0  0  0  0  0  0  0  0  0  0  0  0
    5.3271   -0.6770    1.2572 N   0  0  0  0  0  0  0  0  0  0  0  0
    6.5560   -0.5981    1.1528 O   0  0  0  0  0  0  0  0  0  0  0  0
    2.5549    1.8985    1.6844 N   0  0  0  0  0  0  0  0  0  0  0  0
    2.9133    2.5051    2.8673 C   0  0  0  0  0  0  0  0  0  0  0  0
    3.6045    1.9734    3.7223 O   0  0  0  0  0  0  0  0  0  0  0  0
    2.4344    3.8839    3.0291 C   0  0  0  0  0  0  0  0  0  0  0  0
    1.0841    4.1033    3.3014 C   0  0  0  0  0  0  0  0  0  0  0  0
    0.5992    5.4085    3.3148 C   0  0  0  0  0  0  0  0  0  0  0  0
    1.4861    6.4822    3.1943 C   0  0  0  0  0  0  0  0  0  0  0  0
    2.8604    6.2511    3.0773 C   0  0  0  0  0  0  0  0  0  0  0  0
    3.3326    4.9475    2.9206 C   0  0  0  0  0  0  0  0  0  0  0  0
    0.9768    7.8127    3.1503 C   0  0  0  0  0  0  0  0  0  0  0  0
    0.5301    8.9294    3.0663 C   0  0  0  0  0  0  0  0  0  0  0  0
    2.9757   -1.2653   -0.2892 O   0  0  0  0  0  0  0  0  0  0  0  0
    4.1766    0.9837   -1.1916 H   0  0  0  0  0  0  0  0  0  0  0  0
    2.7409    2.0049   -1.0099 H   0  0  0  0  0  0  0  0  0  0  0  0
    2.7272    0.6106   -2.1067 H   0  0  0  0  0  0  0  0  0  0  0  0
    2.0493    2.4315    0.9843 H   0  0  0  0  0  0  0  0  0  0  0  0
    0.4202    3.2694    3.5086 H   0  0  0  0  0  0  0  0  0  0  0  0
   -0.4672    5.5883    3.4258 H   0  0  0  0  0  0  0  0  0  0  0  0
    3.5611    7.0828    3.0939 H   0  0  0  0  0  0  0  0  0  0  0  0
    4.3864    4.7649    2.7207 H   0  0  0  0  0  0  0  0  0  0  0  0
    0.1353    9.9110    2.9826 H   0  0  0  0  0  0  0  0  0  0  0  0
    2.7017   -1.8498    0.4405 H   0  0  0  0  0  0  0  0  0  0  0  0
  1 22  1  0  0  0  0
  1 23  1  0  0  0  0
  1 24  1  0  0  0  0
  2  4  1  0  0  0  0
  2 21  1  0  0  0  0
  2  3  1  1  0  0  0
  2  1  1  0  0  0  0
  4  5  1  1  0  0  0
  4  6  1  0  0  0  0
  4 10  1  0  0  0  0
  6  7  2  0  0  0  0
  6  8  1  0  0  0  0
  8  9  2  0  0  0  0
 10 11  1  0  0  0  0
 10 25  1  0  0  0  0
 11 12  2  0  0  0  0
 11 13  1  0  0  0  0
 13 14  2  0  0  0  0
 13 18  1  0  0  0  0
 14 15  1  0  0  0  0
 14 26  1  0  0  0  0
 15 16  2  0  0  0  0
 15 27  1  0  0  0  0
 16 17  1  0  0  0  0
 16 19  1  0  0  0  0
 17 18  2  0  0  0  0
 17 28  1  0  0  0  0
 18 29  1  0  0  0  0
 19 20  3  0  0  0  0
 20 30  1  0  0  0  0
 21 31  1  0  0  0  0
M  END
$$$$
