UM1
 OpenBabel04121316203D

 30 29  0  0  1  0  0  0  0  0999 V2000
    0.9231   -0.1384    0.0247 N   0  0  0  0  0  0  0  0  0  0  0  0
    2.3869   -0.1191   -0.0453 C   0  0  0  0  0  0  0  0  0  0  0  0
    2.8399    1.1979   -0.6755 C   0  0  0  0  0  0  0  0  0  0  0  0
    2.0506    1.9941   -1.1873 O   0  0  0  0  0  0  0  0  0  0  0  0
    4.1911    1.4563   -0.6128 N   0  0  0  0  0  0  0  0  0  0  0  0
    4.7372    2.7171   -1.1118 C   0  0  1  0  0  0  0  0  0  0  0  0
    4.3302    2.9116   -2.1125 H   0  0  0  0  0  0  0  0  0  0  0  0
    4.3173    3.8575   -0.1634 C   0  0  0  0  0  0  0  0  0  0  0  0
    5.1221    4.5203    0.4936 O   0  0  0  0  0  0  0  0  0  0  0  0
    2.9837    4.1679   -0.1392 N   0  0  0  0  0  0  0  0  0  0  0  0
    2.4183    5.1899    0.7289 C   0  0  1  0  0  0  0  0  0  0  0  0
    2.8082    5.0418    1.7440 H   0  0  0  0  0  0  0  0  0  0  0  0
    2.8348    6.5860    0.2280 C   0  0  0  0  0  0  0  0  0  0  0  0
    2.0416    7.4730   -0.0826 O   0  0  0  0  0  0  0  0  0  0  0  0
    4.1691    6.8078    0.1884 O   0  0  0  0  0  0  0  0  0  0  0  0
    0.8937    5.0891    0.7574 C   0  0  0  0  0  0  0  0  0  0  0  0
    6.2620    2.6913   -1.1665 C   0  0  0  0  0  0  0  0  0  0  0  0
    0.5790   -1.0615    0.2685 H   0  0  0  0  0  0  0  0  0  0  0  0
    0.5556    0.0949   -0.9017 H   0  0  0  0  0  0  0  0  0  0  0  0
    2.7535   -0.9369   -0.6705 H   0  0  0  0  0  0  0  0  0  0  0  0
    2.7985   -0.2072    0.9649 H   0  0  0  0  0  0  0  0  0  0  0  0
    4.8314    0.7379   -0.2992 H   0  0  0  0  0  0  0  0  0  0  0  0
    2.3370    3.5228   -0.6032 H   0  0  0  0  0  0  0  0  0  0  0  0
    4.6987    6.0149    0.4550 H   0  0  0  0  0  0  0  0  0  0  0  0
    0.5544    4.1152    1.1261 H   0  0  0  0  0  0  0  0  0  0  0  0
    0.4746    5.2262   -0.2464 H   0  0  0  0  0  0  0  0  0  0  0  0
    0.4678    5.8651    1.4031 H   0  0  0  0  0  0  0  0  0  0  0  0
    6.6348    1.8950   -1.8149 H   0  0  0  0  0  0  0  0  0  0  0  0
    6.6844    2.5386   -0.1659 H   0  0  0  0  0  0  0  0  0  0  0  0
    6.6479    3.6492   -1.5379 H   0  0  0  0  0  0  0  0  0  0  0  0
  1  2  1  0  0  0  0
  1 18  1  0  0  0  0
  1 19  1  0  0  0  0
  2  3  1  0  0  0  0
  2 20  1  0  0  0  0
  2 21  1  0  0  0  0
  3  4  2  0  0  0  0
  3  5  1  0  0  0  0
  5  6  1  0  0  0  0
  5 22  1  0  0  0  0
  6  7  1  6  0  0  0
  6  8  1  0  0  0  0
  6 17  1  0  0  0  0
  8  9  2  0  0  0  0
  8 10  1  0  0  0  0
 10 11  1  0  0  0  0
 10 23  1  0  0  0  0
 11 12  1  1  0  0  0
 11 13  1  0  0  0  0
 11 16  1  0  0  0  0
 13 14  2  0  0  0  0
 13 15  1  0  0  0  0
 15 24  1  0  0  0  0
 16 25  1  0  0  0  0
 16 26  1  0  0  0  0
 16 27  1  0  0  0  0
 17 28  1  0  0  0  0
 17 29  1  0  0  0  0
 17 30  1  0  0  0  0
M  END
$$$$
