UN4
 OpenBabel04121316203D

 30 32  0  0  1  0  0  0  0  0999 V2000
    1.1606    0.0662   -0.0716 N   0  0  0  0  0  0  0  0  0  0  0  0
    2.5278    0.0570   -0.0581 C   0  0  0  0  0  0  0  0  0  0  0  0
    3.1391    1.2617   -0.0572 N   0  0  0  0  0  0  0  0  0  0  0  0
    4.4953    1.2917   -0.0489 C   0  0  0  0  0  0  0  0  0  0  0  0
    5.1909    2.4769   -0.0644 O   0  0  0  0  0  0  0  0  0  0  0  0
    4.4210    3.6828   -0.0280 C   0  0  0  0  0  0  0  0  0  0  0  0
    5.4522    4.8207    0.0020 C   0  0  1  0  0  0  0  0  0  0  0  0
    6.1176    4.7285   -0.8673 H   0  0  0  0  0  0  0  0  0  0  0  0
    4.9166    6.2458    0.0858 C   0  0  0  0  0  0  0  0  0  0  0  0
    6.1061    7.0192    0.6718 C   0  0  0  0  0  0  0  0  0  0  0  0
    6.7169    5.9980    1.5991 C   0  0  0  0  0  0  0  0  0  0  0  0
    7.4675    6.2145    2.5286 O   0  0  0  0  0  0  0  0  0  0  0  0
    6.2883    4.7574    1.1782 N   0  0  0  0  0  0  0  0  0  0  0  0
    5.2142    0.0966   -0.0406 C   0  0  0  0  0  0  0  0  0  0  0  0
    4.4585   -1.0591   -0.0442 C   0  0  0  0  0  0  0  0  0  0  0  0
    3.1212   -1.1535   -0.0531 N   0  0  0  0  0  0  0  0  0  0  0  0
    5.3715   -2.0776   -0.0385 N   0  0  0  0  0  0  0  0  0  0  0  0
    5.1584   -3.0637   -0.0402 H   0  0  0  0  0  0  0  0  0  0  0  0
    6.6197   -1.5140   -0.0295 C   0  0  0  0  0  0  0  0  0  0  0  0
    6.5615   -0.2001   -0.0315 N   0  0  0  0  0  0  0  0  0  0  0  0
    0.6892    0.9533   -0.0524 H   0  0  0  0  0  0  0  0  0  0  0  0
    0.6736   -0.8130   -0.0527 H   0  0  0  0  0  0  0  0  0  0  0  0
    3.7916    3.7060    0.8695 H   0  0  0  0  0  0  0  0  0  0  0  0
    3.8019    3.7574   -0.9288 H   0  0  0  0  0  0  0  0  0  0  0  0
    4.0714    6.3069    0.7831 H   0  0  0  0  0  0  0  0  0  0  0  0
    4.5975    6.6488   -0.8791 H   0  0  0  0  0  0  0  0  0  0  0  0
    5.7957    7.9135    1.2157 H   0  0  0  0  0  0  0  0  0  0  0  0
    6.8418    7.2783   -0.0977 H   0  0  0  0  0  0  0  0  0  0  0  0
    6.6286    3.8987    1.5962 H   0  0  0  0  0  0  0  0  0  0  0  0
    7.5283   -2.1033   -0.0220 H   0  0  0  0  0  0  0  0  0  0  0  0
  1  2  1  0  0  0  0
  1 21  1  0  0  0  0
  1 22  1  0  0  0  0
  2  3  2  0  0  0  0
  2 16  1  0  0  0  0
  3  4  1  0  0  0  0
  4  5  1  0  0  0  0
  4 14  2  0  0  0  0
  5  6  1  0  0  0  0
  6  7  1  0  0  0  0
  6 23  1  0  0  0  0
  6 24  1  0  0  0  0
  7  8  1  6  0  0  0
  7  9  1  0  0  0  0
  7 13  1  0  0  0  0
  9 10  1  0  0  0  0
  9 25  1  0  0  0  0
  9 26  1  0  0  0  0
 10 11  1  0  0  0  0
 10 27  1  0  0  0  0
 10 28  1  0  0  0  0
 11 12  2  0  0  0  0
 11 13  1  0  0  0  0
 13 29  1  0  0  0  0
 14 15  1  0  0  0  0
 14 20  1  0  0  0  0
 15 16  2  0  0  0  0
 15 17  1  0  0  0  0
 17 18  1  0  0  0  0
 17 19  1  0  0  0  0
 19 20  2  0  0  0  0
 19 30  1  0  0  0  0
M  END
$$$$
