UN5
 OpenBabel04121316203D

 58 60  0  0  1  0  0  0  0  0999 V2000
    6.2607   -2.4806   -4.0070 C   0  0  0  0  0  0  0  0  0  0  0  0
    5.7010   -2.2667   -2.7033 N   0  0  0  0  0  0  0  0  0  0  0  0
    4.9507   -1.1580   -2.3845 C   0  0  0  0  0  0  0  0  0  0  0  0
    4.6016   -0.3403   -3.2336 O   0  0  0  0  0  0  0  0  0  0  0  0
    4.5795   -0.9970   -0.8803 C   0  0  2  0  0  0  0  0  0  0  0  0
    3.4856   -1.0088   -0.8575 H   0  0  0  0  0  0  0  0  0  0  0  0
    5.0570    0.3847   -0.3776 C   0  0  0  0  0  0  0  0  0  0  0  0
    6.5465    0.3972   -0.1169 C   0  0  0  0  0  0  0  0  0  0  0  0
    7.2664    1.5962   -0.0562 C   0  0  0  0  0  0  0  0  0  0  0  0
    8.6562    1.5810    0.1479 C   0  0  0  0  0  0  0  0  0  0  0  0
    9.3376    0.3679    0.2724 C   0  0  0  0  0  0  0  0  0  0  0  0
    8.6089   -0.8105    0.2322 C   0  0  0  0  0  0  0  0  0  0  0  0
    7.2268   -0.8081    0.0838 C   0  0  0  0  0  0  0  0  0  0  0  0
    6.5675   -2.1543    0.0829 C   0  0  0  0  0  0  0  0  0  0  0  0
    5.1153   -2.0679    0.0018 N   0  0  0  0  0  0  0  0  0  0  0  0
    4.3865   -2.8087    0.9199 C   0  0  0  0  0  0  0  0  0  0  0  0
    4.9230   -3.6522    1.6400 O   0  0  0  0  0  0  0  0  0  0  0  0
    2.9012   -2.5443    1.0293 C   0  0  0  0  0  0  0  0  0  0  0  0
    2.2545   -3.4475    2.0986 C   0  0  0  0  0  0  0  0  0  0  0  0
    0.7702   -3.2120    2.2084 C   0  0  0  0  0  0  0  0  0  0  0  0
   -0.1500   -4.2579    2.1818 C   0  0  0  0  0  0  0  0  0  0  0  0
   -1.5176   -3.9790    2.1928 C   0  0  0  0  0  0  0  0  0  0  0  0
   -1.9673   -2.6555    2.1107 C   0  0  0  0  0  0  0  0  0  0  0  0
   -1.0515   -1.6048    2.1506 C   0  0  0  0  0  0  0  0  0  0  0  0
    0.2960   -1.9045    2.3226 C   0  0  0  0  0  0  0  0  0  0  0  0
   -1.5217   -0.2575    2.0860 N   0  0  0  0  0  0  0  0  0  0  0  0
   -0.4318    1.0089    1.9853 S   0  0  0  0  0  0  0  0  0  0  0  0
    0.0957    1.2195    3.3175 O   0  0  0  0  0  0  0  0  0  0  0  0
    0.4334    0.8319    0.8475 O   0  0  0  0  0  0  0  0  0  0  0  0
   -1.4000    2.2532    1.6890 O   0  0  0  0  0  0  0  0  0  0  0  0
   10.7407    0.3506    0.5093 N   0  0  0  0  0  0  0  0  0  0  0  0
   11.5800   -1.0901    0.6041 S   0  0  0  0  0  0  0  0  0  0  0  0
   11.2131   -1.7315    1.8484 O   0  0  0  0  0  0  0  0  0  0  0  0
   11.4929   -1.7796   -0.6583 O   0  0  0  0  0  0  0  0  0  0  0  0
   13.0889   -0.5837    0.7989 O   0  0  0  0  0  0  0  0  0  0  0  0
    6.9525   -3.3257   -3.9502 H   0  0  0  0  0  0  0  0  0  0  0  0
    6.7971   -1.5861   -4.3363 H   0  0  0  0  0  0  0  0  0  0  0  0
    5.4410   -2.7049   -4.6889 H   0  0  0  0  0  0  0  0  0  0  0  0
    5.6861   -3.0486   -2.0632 H   0  0  0  0  0  0  0  0  0  0  0  0
    4.5511    0.6345    0.5633 H   0  0  0  0  0  0  0  0  0  0  0  0
    4.8053    1.1630   -1.1087 H   0  0  0  0  0  0  0  0  0  0  0  0
    6.7486    2.5469   -0.1710 H   0  0  0  0  0  0  0  0  0  0  0  0
    9.1847    2.5283    0.1993 H   0  0  0  0  0  0  0  0  0  0  0  0
    9.0849   -1.7839    0.3056 H   0  0  0  0  0  0  0  0  0  0  0  0
    6.8926   -2.7412    0.9477 H   0  0  0  0  0  0  0  0  0  0  0  0
    6.9668   -2.6948   -0.7775 H   0  0  0  0  0  0  0  0  0  0  0  0
    2.4244   -2.7259    0.0595 H   0  0  0  0  0  0  0  0  0  0  0  0
    2.7719   -1.4868    1.2885 H   0  0  0  0  0  0  0  0  0  0  0  0
    2.7112   -3.2769    3.0812 H   0  0  0  0  0  0  0  0  0  0  0  0
    2.4396   -4.4960    1.8353 H   0  0  0  0  0  0  0  0  0  0  0  0
    0.1917   -5.2899    2.1469 H   0  0  0  0  0  0  0  0  0  0  0  0
   -2.2314   -4.7976    2.2407 H   0  0  0  0  0  0  0  0  0  0  0  0
   -3.0330   -2.4675    2.0238 H   0  0  0  0  0  0  0  0  0  0  0  0
    1.0248   -1.1197    2.4934 H   0  0  0  0  0  0  0  0  0  0  0  0
   -2.4357   -0.0891    1.6751 H   0  0  0  0  0  0  0  0  0  0  0  0
   -1.7944    2.5352    2.5376 H   0  0  0  0  0  0  0  0  0  0  0  0
   11.2782    1.2077    0.4501 H   0  0  0  0  0  0  0  0  0  0  0  0
   13.2198   -0.4010    1.7502 H   0  0  0  0  0  0  0  0  0  0  0  0
  1  2  1  0  0  0  0
  1 36  1  0  0  0  0
  1 37  1  0  0  0  0
  1 38  1  0  0  0  0
  2  3  1  0  0  0  0
  2 39  1  0  0  0  0
  3  4  2  0  0  0  0
  5  7  1  0  0  0  0
  5 15  1  0  0  0  0
  5  6  1  1  0  0  0
  5  3  1  0  0  0  0
  7  8  1  0  0  0  0
  7 40  1  0  0  0  0
  7 41  1  0  0  0  0
  8  9  2  0  0  0  0
  8 13  1  0  0  0  0
  9 10  1  0  0  0  0
  9 42  1  0  0  0  0
 10 11  2  0  0  0  0
 10 43  1  0  0  0  0
 11 12  1  0  0  0  0
 11 31  1  0  0  0  0
 12 13  2  0  0  0  0
 12 44  1  0  0  0  0
 13 14  1  0  0  0  0
 14 15  1  0  0  0  0
 14 45  1  0  0  0  0
 14 46  1  0  0  0  0
 15 16  1  0  0  0  0
 16 17  2  0  0  0  0
 16 18  1  0  0  0  0
 18 19  1  0  0  0  0
 18 47  1  0  0  0  0
 18 48  1  0  0  0  0
 19 20  1  0  0  0  0
 19 49  1  0  0  0  0
 19 50  1  0  0  0  0
 20 21  2  0  0  0  0
 20 25  1  0  0  0  0
 21 22  1  0  0  0  0
 21 51  1  0  0  0  0
 22 23  2  0  0  0  0
 22 52  1  0  0  0  0
 23 24  1  0  0  0  0
 23 53  1  0  0  0  0
 24 25  2  0  0  0  0
 24 26  1  0  0  0  0
 25 54  1  0  0  0  0
 26 27  1  0  0  0  0
 26 55  1  0  0  0  0
 27 28  2  0  0  0  0
 27 29  2  0  0  0  0
 27 30  1  0  0  0  0
 30 56  1  0  0  0  0
 31 32  1  0  0  0  0
 31 57  1  0  0  0  0
 32 33  2  0  0  0  0
 32 34  2  0  0  0  0
 32 35  1  0  0  0  0
 35 58  1  0  0  0  0
M  END
$$$$
