UN6
 OpenBabel04121316203D

 47 48  0  0  0  0  0  0  0  0999 V2000
    0.9895   -0.0738   -0.0316 O   0  0  0  0  0  0  0  0  0  0  0  0
    2.2181   -0.0597    0.0112 C   0  0  0  0  0  0  0  0  0  0  0  0
    2.9037    0.4772    1.0682 N   0  0  0  0  0  0  0  0  0  0  0  0
    2.1989    1.0099    2.2035 C   0  0  0  0  0  0  0  0  0  0  0  0
    3.1720    1.5183    3.2268 C   0  0  0  0  0  0  0  0  0  0  0  0
    3.2860    2.8781    3.5064 C   0  0  0  0  0  0  0  0  0  0  0  0
    4.2270    3.3207    4.4337 C   0  0  0  0  0  0  0  0  0  0  0  0
    5.1527    2.4245    4.9791 C   0  0  0  0  0  0  0  0  0  0  0  0
    5.0686    1.0628    4.6823 C   0  0  0  0  0  0  0  0  0  0  0  0
    4.0160    0.6159    3.8831 C   0  0  0  0  0  0  0  0  0  0  0  0
    6.0153    0.1688    5.2678 N   0  0  0  0  0  0  0  0  0  0  0  0
    6.0213   -1.4482    4.8454 S   0  0  0  0  0  0  0  0  0  0  0  0
    4.9274   -2.0714    5.5442 O   0  0  0  0  0  0  0  0  0  0  0  0
    6.1890   -1.5697    3.4127 O   0  0  0  0  0  0  0  0  0  0  0  0
    7.3669   -1.9684    5.5481 O   0  0  0  0  0  0  0  0  0  0  0  0
    3.0452   -0.6255   -1.1207 C   0  0  0  0  0  0  0  0  0  0  0  0
    4.5577   -0.5200   -0.9150 C   0  0  0  0  0  0  0  0  0  0  0  0
    5.2861   -1.1099   -2.0810 C   0  0  0  0  0  0  0  0  0  0  0  0
    5.8470   -0.3161   -3.0760 C   0  0  0  0  0  0  0  0  0  0  0  0
    6.3698   -0.9184   -4.2158 C   0  0  0  0  0  0  0  0  0  0  0  0
    6.2120   -2.2958   -4.4155 C   0  0  0  0  0  0  0  0  0  0  0  0
    5.6517   -3.0930   -3.4150 C   0  0  0  0  0  0  0  0  0  0  0  0
    5.2978   -2.4972   -2.2115 C   0  0  0  0  0  0  0  0  0  0  0  0
    5.5107   -4.4967   -3.6307 N   0  0  0  0  0  0  0  0  0  0  0  0
    4.7278   -5.4465   -2.4967 S   0  0  0  0  0  0  0  0  0  0  0  0
    5.6486   -5.6559   -1.4103 O   0  0  0  0  0  0  0  0  0  0  0  0
    3.3849   -4.9495   -2.2811 O   0  0  0  0  0  0  0  0  0  0  0  0
    4.6119   -6.8484   -3.2680 O   0  0  0  0  0  0  0  0  0  0  0  0
    3.9124    0.4504    1.1192 H   0  0  0  0  0  0  0  0  0  0  0  0
    1.5702    0.2214    2.6294 H   0  0  0  0  0  0  0  0  0  0  0  0
    1.5492    1.8114    1.8406 H   0  0  0  0  0  0  0  0  0  0  0  0
    2.6353    3.5924    3.0076 H   0  0  0  0  0  0  0  0  0  0  0  0
    4.2423    4.3692    4.7193 H   0  0  0  0  0  0  0  0  0  0  0  0
    5.9275    2.8098    5.6357 H   0  0  0  0  0  0  0  0  0  0  0  0
    3.8421   -0.4435    3.7114 H   0  0  0  0  0  0  0  0  0  0  0  0
    6.8936    0.5453    5.6136 H   0  0  0  0  0  0  0  0  0  0  0  0
    7.1682   -2.1332    6.4913 H   0  0  0  0  0  0  0  0  0  0  0  0
    2.7541   -0.0956   -2.0373 H   0  0  0  0  0  0  0  0  0  0  0  0
    2.7431   -1.6743   -1.2467 H   0  0  0  0  0  0  0  0  0  0  0  0
    4.8579   -1.0554   -0.0046 H   0  0  0  0  0  0  0  0  0  0  0  0
    4.8541    0.5269   -0.7877 H   0  0  0  0  0  0  0  0  0  0  0  0
    5.8621    0.7659   -2.9708 H   0  0  0  0  0  0  0  0  0  0  0  0
    6.8697   -0.3065   -4.9614 H   0  0  0  0  0  0  0  0  0  0  0  0
    6.5301   -2.7254   -5.3600 H   0  0  0  0  0  0  0  0  0  0  0  0
    4.9462   -3.0788   -1.3636 H   0  0  0  0  0  0  0  0  0  0  0  0
    5.4970   -4.8381   -4.5869 H   0  0  0  0  0  0  0  0  0  0  0  0
    5.4748   -7.3005   -3.1895 H   0  0  0  0  0  0  0  0  0  0  0  0
  1  2  2  0  0  0  0
  2  3  1  0  0  0  0
  2 16  1  0  0  0  0
  3  4  1  0  0  0  0
  3 29  1  0  0  0  0
  4  5  1  0  0  0  0
  4 30  1  0  0  0  0
  4 31  1  0  0  0  0
  5  6  2  0  0  0  0
  5 10  1  0  0  0  0
  6  7  1  0  0  0  0
  6 32  1  0  0  0  0
  7  8  2  0  0  0  0
  7 33  1  0  0  0  0
  8  9  1  0  0  0  0
  8 34  1  0  0  0  0
  9 10  2  0  0  0  0
  9 11  1  0  0  0  0
 10 35  1  0  0  0  0
 11 12  1  0  0  0  0
 11 36  1  0  0  0  0
 12 13  2  0  0  0  0
 12 14  2  0  0  0  0
 12 15  1  0  0  0  0
 15 37  1  0  0  0  0
 16 17  1  0  0  0  0
 16 38  1  0  0  0  0
 16 39  1  0  0  0  0
 17 18  1  0  0  0  0
 17 40  1  0  0  0  0
 17 41  1  0  0  0  0
 18 19  2  0  0  0  0
 18 23  1  0  0  0  0
 19 20  1  0  0  0  0
 19 42  1  0  0  0  0
 20 21  2  0  0  0  0
 20 43  1  0  0  0  0
 21 22  1  0  0  0  0
 21 44  1  0  0  0  0
 22 23  2  0  0  0  0
 22 24  1  0  0  0  0
 23 45  1  0  0  0  0
 24 25  1  0  0  0  0
 24 46  1  0  0  0  0
 25 26  2  0  0  0  0
 25 27  2  0  0  0  0
 25 28  1  0  0  0  0
 28 47  1  0  0  0  0
M  END
$$$$
