UNC
 OpenBabel04121316203D

 16 16  0  0  0  0  0  0  0  0999 V2000
    0.9656   -0.1292   -0.0138 O   0  0  0  0  0  0  0  0  0  0  0  0
    2.1886   -0.1018   -0.0120 C   0  0  0  0  0  0  0  0  0  0  0  0
    2.8886    1.0636   -0.0093 N   0  0  0  0  0  0  0  0  0  0  0  0
    2.3611    1.9243   -0.0107 H   0  0  0  0  0  0  0  0  0  0  0  0
    4.2465    1.1644   -0.0099 C   0  0  0  0  0  0  0  0  0  0  0  0
    4.8098    2.2583   -0.0137 O   0  0  0  0  0  0  0  0  0  0  0  0
    5.0493   -0.1153   -0.0051 C   0  0  0  0  0  0  0  0  0  0  0  0
    4.3150   -1.2474   -0.0075 C   0  0  0  0  0  0  0  0  0  0  0  0
    2.9377   -1.2333   -0.0128 N   0  0  0  0  0  0  0  0  0  0  0  0
    2.4455   -2.1231   -0.0149 H   0  0  0  0  0  0  0  0  0  0  0  0
    5.0483   -2.5329   -0.0031 N   0  3  0  0  0  0  0  0  0  0  0  0
    6.2882   -2.5480    0.0023 O   0  0  0  0  0  0  0  0  0  0  0  0
    4.3358   -3.5481   -0.0050 O   0  5  0  0  0  0  0  0  0  0  0  0
    6.4134    0.0545    0.0013 N   0  0  0  0  0  0  0  0  0  0  0  0
    6.7928    0.9987    0.0003 H   0  0  0  0  0  0  0  0  0  0  0  0
    7.0267   -0.7608    0.0039 H   0  0  0  0  0  0  0  0  0  0  0  0
  1  2  2  0  0  0  0
  2  3  1  0  0  0  0
  2  9  1  0  0  0  0
  3  4  1  0  0  0  0
  3  5  1  0  0  0  0
  5  6  2  0  0  0  0
  5  7  1  0  0  0  0
  7  8  2  0  0  0  0
  7 14  1  0  0  0  0
  8  9  1  0  0  0  0
  8 11  1  0  0  0  0
  9 10  1  0  0  0  0
 11 12  2  0  0  0  0
 11 13  1  0  0  0  0
 14 15  1  0  0  0  0
 14 16  1  0  0  0  0
M  CHG  2  11   1  13  -1
M  END
$$$$
