UNF
 OpenBabel04121316203D

 40 41  0  0  1  0  0  0  0  0999 V2000
    0.8501    0.1544   -0.0237 O   0  0  0  0  0  0  0  0  0  0  0  0
    2.2576    0.2082   -0.1754 C   0  0  1  0  0  0  0  0  0  0  0  0
    2.4734    0.3774   -1.2356 H   0  0  0  0  0  0  0  0  0  0  0  0
    2.7781    1.3594    0.5864 C   0  0  0  0  0  0  0  0  0  0  0  0
    3.6917    1.2856    1.5632 C   0  0  0  0  0  0  0  0  0  0  0  0
    4.3327    0.1121    1.8764 O   0  0  0  0  0  0  0  0  0  0  0  0
    3.7133   -1.1022    1.4781 C   0  0  1  0  0  0  0  0  0  0  0  0
    3.0641   -1.2820    2.3346 H   0  0  0  0  0  0  0  0  0  0  0  0
    2.8519   -1.1101    0.2007 C   0  0  2  0  0  0  0  0  0  0  0  0
    2.0687   -1.8767    0.3259 H   0  0  0  0  0  0  0  0  0  0  0  0
    3.6562   -1.4759   -0.9600 O   0  0  0  0  0  0  0  0  0  0  0  0
    4.7686   -2.0972    1.3185 O   0  0  0  0  0  0  0  0  0  0  0  0
    4.3398   -3.3705    0.7897 C   0  0  1  0  0  0  0  0  0  0  0  0
    3.6869   -3.2842   -0.0685 H   0  0  0  0  0  0  0  0  0  0  0  0
    5.4933   -4.2464    0.2540 C   0  0  2  0  0  0  0  0  0  0  0  0
    5.0492   -5.1028   -0.2733 H   0  0  0  0  0  0  0  0  0  0  0  0
    6.2785   -4.7761    1.3258 O   0  0  0  0  0  0  0  0  0  0  0  0
    5.5078   -5.4587    2.2999 C   0  0  2  0  0  0  0  0  0  0  0  0
    5.0138   -6.3291    1.8516 H   0  0  0  0  0  0  0  0  0  0  0  0
    4.4786   -4.5338    2.9403 C   0  0  1  0  0  0  0  0  0  0  0  0
    4.9760   -3.6638    3.3925 H   0  0  0  0  0  0  0  0  0  0  0  0
    3.5300   -4.0899    1.8547 C   0  0  1  0  0  0  0  0  0  0  0  0
    2.9907   -4.9182    1.3874 H   0  0  0  0  0  0  0  0  0  0  0  0
    2.5210   -3.2639    2.4393 O   0  0  0  0  0  0  0  0  0  0  0  0
    3.7054   -5.1505    3.9641 O   0  0  0  0  0  0  0  0  0  0  0  0
    6.3804   -5.9175    3.3137 O   0  0  0  0  0  0  0  0  0  0  0  0
    6.3864   -3.5568   -0.8056 C   0  0  0  0  0  0  0  0  0  0  0  0
    7.6088   -3.5064   -0.7436 O   0  0  0  0  0  0  0  0  0  0  0  0
    5.7518   -3.0755   -1.9040 O   0  0  0  0  0  0  0  0  0  0  0  0
    4.1414    2.4723    2.3722 C   0  0  0  0  0  0  0  0  0  0  0  0
    4.8084    2.3689    3.3750 O   0  0  0  0  0  0  0  0  0  0  0  0
    3.7403    3.6754    1.9013 O   0  0  0  0  0  0  0  0  0  0  0  0
    0.4791    0.8744   -0.5587 H   0  0  0  0  0  0  0  0  0  0  0  0
    2.3730    2.2873    0.2206 H   0  0  0  0  0  0  0  0  0  0  0  0
    4.5556   -1.1564   -0.7397 H   0  0  0  0  0  0  0  0  0  0  0  0
    2.9207   -2.9026    3.2591 H   0  0  0  0  0  0  0  0  0  0  0  0
    4.3373   -5.5058    4.6122 H   0  0  0  0  0  0  0  0  0  0  0  0
    6.8622   -5.1220    3.6004 H   0  0  0  0  0  0  0  0  0  0  0  0
    4.7764   -3.1202   -1.9562 H   0  0  0  0  0  0  0  0  0  0  0  0
    3.2193    3.6735    1.0877 H   0  0  0  0  0  0  0  0  0  0  0  0
  1  2  1  0  0  0  0
  1 33  1  0  0  0  0
  2  3  1  6  0  0  0
  2  4  1  0  0  0  0
  2  9  1  0  0  0  0
  4  5  2  0  0  0  0
  4 34  1  0  0  0  0
  5  6  1  0  0  0  0
  5 30  1  0  0  0  0
  6  7  1  0  0  0  0
  7  8  1  1  0  0  0
  7  9  1  0  0  0  0
  7 12  1  0  0  0  0
  9 11  1  0  0  0  0
  9 10  1  1  0  0  0
 11 35  1  0  0  0  0
 12 13  1  0  0  0  0
 13 14  1  6  0  0  0
 13 15  1  0  0  0  0
 13 22  1  0  0  0  0
 15 16  1  6  0  0  0
 15 17  1  0  0  0  0
 15 27  1  0  0  0  0
 17 18  1  0  0  0  0
 18 20  1  0  0  0  0
 18 26  1  0  0  0  0
 18 19  1  6  0  0  0
 20 21  1  1  0  0  0
 20 22  1  0  0  0  0
 20 25  1  0  0  0  0
 22 24  1  0  0  0  0
 22 23  1  6  0  0  0
 24 36  1  0  0  0  0
 25 37  1  0  0  0  0
 26 38  1  0  0  0  0
 27 28  2  0  0  0  0
 27 29  1  0  0  0  0
 29 39  1  0  0  0  0
 30 31  2  0  0  0  0
 30 32  1  0  0  0  0
 32 40  1  0  0  0  0
M  END
$$$$
