UNG
 OpenBabel04121316203D

 40 41  0  0  1  0  0  0  0  0999 V2000
    0.7916    0.3067   -0.0334 O   0  0  0  0  0  0  0  0  0  0  0  0
    2.1990    0.3590   -0.1857 C   0  0  1  0  0  0  0  0  0  0  0  0
    2.4143    0.5285   -1.2460 H   0  0  0  0  0  0  0  0  0  0  0  0
    2.7202    1.5103    0.5756 C   0  0  0  0  0  0  0  0  0  0  0  0
    3.6341    1.4367    1.5522 C   0  0  0  0  0  0  0  0  0  0  0  0
    4.2754    0.2636    1.8648 O   0  0  0  0  0  0  0  0  0  0  0  0
    3.6549   -0.9507    1.4671 C   0  0  1  0  0  0  0  0  0  0  0  0
    3.0059   -1.1286    2.3239 H   0  0  0  0  0  0  0  0  0  0  0  0
    2.7938   -0.9591    0.1895 C   0  0  2  0  0  0  0  0  0  0  0  0
    2.0112   -1.7266    0.3135 H   0  0  0  0  0  0  0  0  0  0  0  0
    3.5993   -1.3211   -0.9722 O   0  0  0  0  0  0  0  0  0  0  0  0
    4.7100   -1.9440    1.3066 O   0  0  0  0  0  0  0  0  0  0  0  0
    4.2766   -3.2186    0.7816 C   0  0  1  0  0  0  0  0  0  0  0  0
    3.6212   -3.1304   -0.0746 H   0  0  0  0  0  0  0  0  0  0  0  0
    5.4280   -4.0877    0.2347 C   0  0  2  0  0  0  0  0  0  0  0  0
    4.9808   -4.9281   -0.3149 H   0  0  0  0  0  0  0  0  0  0  0  0
    6.2136   -4.6463    1.2932 O   0  0  0  0  0  0  0  0  0  0  0  0
    5.4398   -5.3321    2.2646 C   0  0  1  0  0  0  0  0  0  0  0  0
    6.1068   -5.7348    3.0293 H   0  0  0  0  0  0  0  0  0  0  0  0
    4.4305   -4.3908    2.9272 C   0  0  1  0  0  0  0  0  0  0  0  0
    4.9460   -3.5205    3.3571 H   0  0  0  0  0  0  0  0  0  0  0  0
    3.4669   -3.9356    1.8505 C   0  0  1  0  0  0  0  0  0  0  0  0
    2.9100   -4.7506    1.3806 H   0  0  0  0  0  0  0  0  0  0  0  0
    2.4667   -3.1010    2.4432 O   0  0  0  0  0  0  0  0  0  0  0  0
    3.6507   -4.9775    3.9666 O   0  0  0  0  0  0  0  0  0  0  0  0
    4.7528   -6.4065    1.6422 O   0  0  0  0  0  0  0  0  0  0  0  0
    6.3268   -3.3990   -0.8173 C   0  0  0  0  0  0  0  0  0  0  0  0
    7.5500   -3.3600   -0.7545 O   0  0  0  0  0  0  0  0  0  0  0  0
    5.6960   -2.9163   -1.9177 O   0  0  0  0  0  0  0  0  0  0  0  0
    4.0840    2.6231    2.3612 C   0  0  0  0  0  0  0  0  0  0  0  0
    4.7513    2.5205    3.3640 O   0  0  0  0  0  0  0  0  0  0  0  0
    3.6829    3.8262    1.8900 O   0  0  0  0  0  0  0  0  0  0  0  0
    0.4212    1.0248   -0.5711 H   0  0  0  0  0  0  0  0  0  0  0  0
    2.3149    2.4379    0.2095 H   0  0  0  0  0  0  0  0  0  0  0  0
    4.5001   -1.0107   -0.7456 H   0  0  0  0  0  0  0  0  0  0  0  0
    2.8769   -2.7497    3.2605 H   0  0  0  0  0  0  0  0  0  0  0  0
    4.2564   -5.3261    4.6364 H   0  0  0  0  0  0  0  0  0  0  0  0
    5.4409   -7.0249    1.3514 H   0  0  0  0  0  0  0  0  0  0  0  0
    4.7201   -2.9685   -1.9641 H   0  0  0  0  0  0  0  0  0  0  0  0
    3.1613    3.8227    1.0767 H   0  0  0  0  0  0  0  0  0  0  0  0
  1  2  1  0  0  0  0
  1 33  1  0  0  0  0
  2  3  1  6  0  0  0
  2  4  1  0  0  0  0
  2  9  1  0  0  0  0
  4  5  2  0  0  0  0
  4 34  1  0  0  0  0
  5  6  1  0  0  0  0
  5 30  1  0  0  0  0
  6  7  1  0  0  0  0
  7  8  1  1  0  0  0
  7  9  1  0  0  0  0
  7 12  1  0  0  0  0
  9 11  1  0  0  0  0
  9 10  1  1  0  0  0
 11 35  1  0  0  0  0
 12 13  1  0  0  0  0
 13 14  1  6  0  0  0
 13 15  1  0  0  0  0
 13 22  1  0  0  0  0
 15 16  1  6  0  0  0
 15 17  1  0  0  0  0
 15 27  1  0  0  0  0
 17 18  1  0  0  0  0
 18 19  1  1  0  0  0
 18 20  1  0  0  0  0
 18 26  1  0  0  0  0
 20 21  1  1  0  0  0
 20 22  1  0  0  0  0
 20 25  1  0  0  0  0
 22 24  1  0  0  0  0
 22 23  1  6  0  0  0
 24 36  1  0  0  0  0
 25 37  1  0  0  0  0
 26 38  1  0  0  0  0
 27 28  2  0  0  0  0
 27 29  1  0  0  0  0
 29 39  1  0  0  0  0
 30 31  2  0  0  0  0
 30 32  1  0  0  0  0
 32 40  1  0  0  0  0
M  END
$$$$
