UNJ
 OpenBabel04121316203D

 18 19  0  0  0  0  0  0  0  0999 V2000
    1.1060    0.0935    0.0598 Br  0  0  0  0  0  0  0  0  0  0  0  0
    2.9990    0.0645    0.0644 C   0  0  0  0  0  0  0  0  0  0  0  0
    3.7236    1.2575    0.0679 C   0  0  0  0  0  0  0  0  0  0  0  0
    5.1348    1.2545    0.0778 C   0  0  0  0  0  0  0  0  0  0  0  0
    5.7696    0.0055    0.0829 C   0  0  0  0  0  0  0  0  0  0  0  0
    5.0540   -1.1886    0.0771 C   0  0  0  0  0  0  0  0  0  0  0  0
    3.6495   -1.1685    0.0669 C   0  0  0  0  0  0  0  0  0  0  0  0
    6.0108   -2.2177    0.0843 C   0  0  0  0  0  0  0  0  0  0  0  0
    7.2619   -1.6353    0.0948 C   0  0  0  0  0  0  0  0  0  0  0  0
    7.1286   -0.2604    0.0939 O   0  0  0  0  0  0  0  0  0  0  0  0
    8.5284   -2.3385    0.1052 C   0  0  0  0  0  0  0  0  0  0  0  0
    8.6243   -3.5637    0.1060 O   0  0  0  0  0  0  0  0  0  0  0  0
    9.6252   -1.5464    0.1142 O   0  0  0  0  0  0  0  0  0  0  0  0
    3.1887    2.2065    0.0634 H   0  0  0  0  0  0  0  0  0  0  0  0
    5.6905    2.1854    0.0820 H   0  0  0  0  0  0  0  0  0  0  0  0
    3.0942   -2.1014    0.0623 H   0  0  0  0  0  0  0  0  0  0  0  0
    5.8281   -3.2829    0.0830 H   0  0  0  0  0  0  0  0  0  0  0  0
    9.4151   -0.5950    0.1125 H   0  0  0  0  0  0  0  0  0  0  0  0
  1  2  1  0  0  0  0
  2  3  2  0  0  0  0
  2  7  1  0  0  0  0
  3  4  1  0  0  0  0
  3 14  1  0  0  0  0
  4  5  2  0  0  0  0
  4 15  1  0  0  0  0
  5  6  1  0  0  0  0
  5 10  1  0  0  0  0
  6  7  2  0  0  0  0
  6  8  1  0  0  0  0
  7 16  1  0  0  0  0
  8  9  2  0  0  0  0
  8 17  1  0  0  0  0
  9 10  1  0  0  0  0
  9 11  1  0  0  0  0
 11 12  2  0  0  0  0
 11 13  1  0  0  0  0
 13 18  1  0  0  0  0
M  END
$$$$
