UNR
 OpenBabel04121316203D

 32 32  0  0  0  0  0  0  0  0999 V2000
    1.0070    0.1729    0.2119 C   0  0  0  0  0  0  0  0  0  0  0  0
    2.5030    0.3148    0.3559 N   0  3  0  0  0  0  0  0  0  0  0  0
    3.1625    1.4137    0.0045 C   0  0  0  0  0  0  0  0  0  0  0  0
    4.5592    1.3610   -0.1183 C   0  0  0  0  0  0  0  0  0  0  0  0
    5.1978    0.1124   -0.1579 C   0  0  0  0  0  0  0  0  0  0  0  0
    4.4856   -1.0219    0.1756 C   0  0  0  0  0  0  0  0  0  0  0  0
    3.2199   -0.7769    0.7502 C   0  0  0  0  0  0  0  0  0  0  0  0
    5.0673   -2.4079   -0.2181 C   0  0  0  0  0  0  0  0  0  0  0  0
    4.1440   -3.6850   -0.2590 C   0  0  0  0  0  0  0  0  0  0  0  0
    3.4383   -3.6775    1.4295 P   0  0  0  0  0  0  0  0  0  0  0  0
    1.9763   -3.5235    1.0568 O   0  0  0  0  0  0  0  0  0  0  0  0
    3.7581   -5.2793    1.5452 O   0  0  0  0  0  0  0  0  0  0  0  0
    2.7712   -3.6703    3.0256 O   0  0  0  0  0  0  0  0  0  0  0  0
    2.8000   -3.4729   -1.4828 P   0  0  0  0  0  0  0  0  0  0  0  0
    2.1793   -4.8171   -1.1292 O   0  0  0  0  0  0  0  0  0  0  0  0
    2.1577   -2.1493   -0.8671 O   0  0  0  0  0  0  0  0  0  0  0  0
    1.5295   -3.2724   -2.6397 O   0  0  0  0  0  0  0  0  0  0  0  0
    4.9731   -4.8164   -0.5905 O   0  0  0  0  0  0  0  0  0  0  0  0
    0.5528    1.1590    0.1202 H   0  0  0  0  0  0  0  0  0  0  0  0
    0.6094   -0.3770    1.0659 H   0  0  0  0  0  0  0  0  0  0  0  0
    0.7721   -0.3749   -0.7117 H   0  0  0  0  0  0  0  0  0  0  0  0
    2.5803    2.3199   -0.1397 H   0  0  0  0  0  0  0  0  0  0  0  0
    5.1335    2.2681   -0.2395 H   0  0  0  0  0  0  0  0  0  0  0  0
    6.2466    0.0493   -0.4573 H   0  0  0  0  0  0  0  0  0  0  0  0
    2.5855   -1.4679    1.2551 H   0  0  0  0  0  0  0  0  0  0  0  0
    5.9282   -2.6213    0.4296 H   0  0  0  0  0  0  0  0  0  0  0  0
    5.4820   -2.3226   -1.2361 H   0  0  0  0  0  0  0  0  0  0  0  0
    3.2368   -5.7787    0.8667 H   0  0  0  0  0  0  0  0  0  0  0  0
    2.3862   -2.8244    3.3020 H   0  0  0  0  0  0  0  0  0  0  0  0
    2.5260   -1.4185   -1.3860 H   0  0  0  0  0  0  0  0  0  0  0  0
    1.3535   -4.1567   -3.0280 H   0  0  0  0  0  0  0  0  0  0  0  0
    5.4055   -5.1265    0.2311 H   0  0  0  0  0  0  0  0  0  0  0  0
  1  2  1  0  0  0  0
  1 19  1  0  0  0  0
  1 20  1  0  0  0  0
  1 21  1  0  0  0  0
  2  3  2  0  0  0  0
  2  7  1  0  0  0  0
  3  4  1  0  0  0  0
  3 22  1  0  0  0  0
  4  5  2  0  0  0  0
  4 23  1  0  0  0  0
  5  6  1  0  0  0  0
  5 24  1  0  0  0  0
  6  7  2  0  0  0  0
  6  8  1  0  0  0  0
  7 25  1  0  0  0  0
  8  9  1  0  0  0  0
  8 26  1  0  0  0  0
  8 27  1  0  0  0  0
  9 10  1  0  0  0  0
  9 14  1  0  0  0  0
  9 18  1  0  0  0  0
 10 11  2  0  0  0  0
 10 12  1  0  0  0  0
 10 13  1  0  0  0  0
 12 28  1  0  0  0  0
 13 29  1  0  0  0  0
 14 15  2  0  0  0  0
 14 16  1  0  0  0  0
 14 17  1  0  0  0  0
 16 30  1  0  0  0  0
 17 31  1  0  0  0  0
 18 32  1  0  0  0  0
M  CHG  1   2   1
M  END
$$$$
