UNU
 OpenBabel04121316203D

 16 16  0  0  0  0  0  0  0  0999 V2000
    1.0379    0.1068   -0.0246 N   0  0  0  0  0  0  0  0  0  0  0  0
    2.4038    0.0488   -0.0263 C   0  0  0  0  0  0  0  0  0  0  0  0
    3.0324   -0.8191    0.5649 O   0  0  0  0  0  0  0  0  0  0  0  0
    3.0651    1.0916   -0.8322 C   0  0  0  0  0  0  0  0  0  0  0  0
    2.8323    2.4360   -0.5308 C   0  0  0  0  0  0  0  0  0  0  0  0
    3.2491    3.4195   -1.4245 C   0  0  0  0  0  0  0  0  0  0  0  0
    3.9953    3.0651   -2.5491 C   0  0  0  0  0  0  0  0  0  0  0  0
    4.3511    1.7316   -2.7656 C   0  0  0  0  0  0  0  0  0  0  0  0
    3.8469    0.7323   -1.9319 C   0  0  0  0  0  0  0  0  0  0  0  0
    0.5287   -0.6173    0.4641 H   0  0  0  0  0  0  0  0  0  0  0  0
    0.5208    0.7488   -0.6118 H   0  0  0  0  0  0  0  0  0  0  0  0
    2.3248    2.7105    0.3899 H   0  0  0  0  0  0  0  0  0  0  0  0
    2.9915    4.4601   -1.2462 H   0  0  0  0  0  0  0  0  0  0  0  0
    4.3088    3.8323   -3.2532 H   0  0  0  0  0  0  0  0  0  0  0  0
    5.0042    1.4730   -3.5954 H   0  0  0  0  0  0  0  0  0  0  0  0
    4.0431   -0.3144   -2.1503 H   0  0  0  0  0  0  0  0  0  0  0  0
  1  2  1  0  0  0  0
  1 10  1  0  0  0  0
  1 11  1  0  0  0  0
  2  3  2  0  0  0  0
  2  4  1  0  0  0  0
  4  5  2  0  0  0  0
  4  9  1  0  0  0  0
  5  6  1  0  0  0  0
  5 12  1  0  0  0  0
  6  7  2  0  0  0  0
  6 13  1  0  0  0  0
  7  8  1  0  0  0  0
  7 14  1  0  0  0  0
  8  9  2  0  0  0  0
  8 15  1  0  0  0  0
  9 16  1  0  0  0  0
M  END
$$$$
