UP2
 OpenBabel04121316203D

104108  0  0  0  0  0  0  0  0999 V2000
    0.9028    0.1032    0.0240 O   0  0  0  0  0  0  0  0  0  0  0  0
    2.2479    0.1710    0.1282 C   0  0  0  0  0  0  0  0  0  0  0  0
    2.7884    0.8037    1.0212 O   0  0  0  0  0  0  0  0  0  0  0  0
    2.9677   -0.5715   -0.9665 C   0  0  0  0  0  0  0  0  0  0  0  0
    4.4767   -0.4477   -0.7088 C   0  0  0  0  0  0  0  0  0  0  0  0
    5.3951   -1.1455   -1.6604 C   0  0  0  0  0  0  0  0  0  0  0  0
    5.3894   -2.5058   -1.8818 C   0  0  0  0  0  0  0  0  0  0  0  0
    4.5315   -3.4559   -1.2250 C   0  0  0  0  0  0  0  0  0  0  0  0
    4.5011   -4.8490   -1.5841 C   0  0  0  0  0  0  0  0  0  0  0  0
    4.7653   -5.2667   -2.8176 N   0  0  0  0  0  0  0  0  0  0  0  0
    5.0974   -4.6488   -3.5226 H   0  0  0  0  0  0  0  0  0  0  0  0
    4.6001   -6.5889   -2.9084 C   0  0  0  0  0  0  0  0  0  0  0  0
    4.2507   -7.0496   -1.6618 C   0  0  0  0  0  0  0  0  0  0  0  0
    4.1245   -5.9036   -0.8092 C   0  0  0  0  0  0  0  0  0  0  0  0
    3.7100   -5.8241    0.6244 C   0  0  0  0  0  0  0  0  0  0  0  0
    3.4585   -4.4977    1.3348 C   0  0  0  0  0  0  0  0  0  0  0  0
    3.1604   -3.4178    0.8702 O   0  0  0  0  0  0  0  0  0  0  0  0
    3.4134   -4.6446    2.6782 O   0  0  0  0  0  0  0  0  0  0  0  0
    4.0740   -8.4970   -1.3802 C   0  0  0  0  0  0  0  0  0  0  0  0
    3.6758   -8.7120    0.0498 C   0  0  0  0  0  0  0  0  0  0  0  0
    3.4711  -10.1370    0.3819 C   0  0  0  0  0  0  0  0  0  0  0  0
    3.6129  -11.0568   -0.4025 O   0  0  0  0  0  0  0  0  0  0  0  0
    3.1016  -10.2893    1.6742 O   0  0  0  0  0  0  0  0  0  0  0  0
    4.8618   -7.3620   -4.1164 C   0  0  0  0  0  0  0  0  0  0  0  0
    5.2771   -6.6518   -5.3353 C   0  0  0  0  0  0  0  0  0  0  0  0
    4.9976   -5.3688   -5.5844 N   0  0  0  0  0  0  0  0  0  0  0  0
    4.4168   -4.7955   -5.0256 H   0  0  0  0  0  0  0  0  0  0  0  0
    5.4126   -5.0022   -6.7935 C   0  0  0  0  0  0  0  0  0  0  0  0
    5.2177   -3.6650   -7.2978 C   0  0  0  0  0  0  0  0  0  0  0  0
    4.6258   -2.5726   -6.5241 C   0  0  0  0  0  0  0  0  0  0  0  0
    4.3212   -2.5558   -5.1987 N   0  0  0  0  0  0  0  0  0  0  0  0
    3.9099   -3.2305   -4.5659 H   0  0  0  0  0  0  0  0  0  0  0  0
    5.2329   -1.5962   -4.8693 C   0  0  0  0  0  0  0  0  0  0  0  0
    6.7420   -1.8329   -4.6975 C   0  0  0  0  0  0  0  0  0  0  0  0
    6.8331   -1.6855   -3.2494 C   0  0  0  0  0  0  0  0  0  0  0  0
    6.4583   -0.6027   -2.4574 C   0  0  0  0  0  0  0  0  0  0  0  0
    6.7383    0.8771   -2.6124 C   0  0  0  0  0  0  0  0  0  0  0  0
    7.5488    1.2937   -3.8482 C   0  0  0  0  0  0  0  0  0  0  0  0
    7.9066    0.6061   -4.7974 O   0  0  0  0  0  0  0  0  0  0  0  0
    7.8224    2.6052   -3.9598 O   0  0  0  0  0  0  0  0  0  0  0  0
    6.4646   -2.8405   -2.6366 N   0  0  0  0  0  0  0  0  0  0  0  0
    6.5397   -3.7090   -3.1431 H   0  0  0  0  0  0  0  0  0  0  0  0
    4.5697   -0.5808   -5.5254 C   0  0  0  0  0  0  0  0  0  0  0  0
    4.5595    0.8277   -5.0844 C   0  0  0  0  0  0  0  0  0  0  0  0
    5.2343    1.7612   -6.0480 C   0  0  0  0  0  0  0  0  0  0  0  0
    5.4483    3.1368   -5.5237 C   0  0  0  0  0  0  0  0  0  0  0  0
    5.2183    3.5025   -4.3828 O   0  0  0  0  0  0  0  0  0  0  0  0
    6.0594    3.9192   -6.4432 O   0  0  0  0  0  0  0  0  0  0  0  0
    4.8004   -1.2045   -6.7839 C   0  0  0  0  0  0  0  0  0  0  0  0
    5.6236   -0.5749   -7.8481 C   0  0  0  0  0  0  0  0  0  0  0  0
    6.0030   -1.3566   -9.0854 C   0  0  0  0  0  0  0  0  0  0  0  0
    5.6740   -2.4538   -9.4333 O   0  0  0  0  0  0  0  0  0  0  0  0
    6.7966   -0.6217   -9.9021 O   0  0  0  0  0  0  0  0  0  0  0  0
    5.9123   -6.0992   -7.4574 C   0  0  0  0  0  0  0  0  0  0  0  0
    5.8108   -7.1433   -6.4995 C   0  0  0  0  0  0  0  0  0  0  0  0
    6.1133   -8.5448   -6.7562 C   0  0  0  0  0  0  0  0  0  0  0  0
    5.9517   -9.5239   -5.6506 C   0  0  0  0  0  0  0  0  0  0  0  0
    6.3117  -10.8768   -6.1466 C   0  0  0  0  0  0  0  0  0  0  0  0
    6.6908  -11.1542   -7.2677 O   0  0  0  0  0  0  0  0  0  0  0  0
    6.1692  -11.7911   -5.1622 O   0  0  0  0  0  0  0  0  0  0  0  0
    6.3441   -6.0798   -8.9108 C   0  0  0  0  0  0  0  0  0  0  0  0
    6.7654   -7.4018   -9.5710 C   0  0  0  0  0  0  0  0  0  0  0  0
    6.8022   -8.5059   -9.1091 O   0  0  0  0  0  0  0  0  0  0  0  0
    7.1418   -7.2846  -10.8644 O   0  0  0  0  0  0  0  0  0  0  0  0
    0.5971   -0.8160    0.1503 H   0  0  0  0  0  0  0  0  0  0  0  0
    2.7038   -0.1633   -1.9479 H   0  0  0  0  0  0  0  0  0  0  0  0
    2.5961   -1.5937   -0.9307 H   0  0  0  0  0  0  0  0  0  0  0  0
    4.7094   -0.8477    0.2864 H   0  0  0  0  0  0  0  0  0  0  0  0
    4.7383    0.6125   -0.6906 H   0  0  0  0  0  0  0  0  0  0  0  0
    3.4881   -3.1612   -1.3101 H   0  0  0  0  0  0  0  0  0  0  0  0
    4.9759   -3.4205   -0.2349 H   0  0  0  0  0  0  0  0  0  0  0  0
    4.4859   -6.3539    1.1859 H   0  0  0  0  0  0  0  0  0  0  0  0
    2.7406   -6.3151    0.6866 H   0  0  0  0  0  0  0  0  0  0  0  0
    3.2849   -5.5622    2.9632 H   0  0  0  0  0  0  0  0  0  0  0  0
    5.0132   -9.0239   -1.6027 H   0  0  0  0  0  0  0  0  0  0  0  0
    3.3158   -8.9006   -2.0640 H   0  0  0  0  0  0  0  0  0  0  0  0
    2.7228   -8.2069    0.2251 H   0  0  0  0  0  0  0  0  0  0  0  0
    4.4698   -8.3339    0.7011 H   0  0  0  0  0  0  0  0  0  0  0  0
    3.0309   -9.4581    2.1835 H   0  0  0  0  0  0  0  0  0  0  0  0
    3.9697   -7.9475   -4.3595 H   0  0  0  0  0  0  0  0  0  0  0  0
    5.6725   -8.0172   -3.8027 H   0  0  0  0  0  0  0  0  0  0  0  0
    4.5758   -3.7681   -8.1644 H   0  0  0  0  0  0  0  0  0  0  0  0
    6.2567   -3.3483   -7.4801 H   0  0  0  0  0  0  0  0  0  0  0  0
    7.3827   -1.2037   -5.2937 H   0  0  0  0  0  0  0  0  0  0  0  0
    7.0872   -2.8219   -5.0422 H   0  0  0  0  0  0  0  0  0  0  0  0
    7.2635    1.1974   -1.7153 H   0  0  0  0  0  0  0  0  0  0  0  0
    5.7828    1.4253   -2.5876 H   0  0  0  0  0  0  0  0  0  0  0  0
    7.2015    3.1874   -3.4816 H   0  0  0  0  0  0  0  0  0  0  0  0
    5.1158    0.8263   -4.1744 H   0  0  0  0  0  0  0  0  0  0  0  0
    3.5781    1.1721   -4.7418 H   0  0  0  0  0  0  0  0  0  0  0  0
    4.6417    1.8204   -6.9580 H   0  0  0  0  0  0  0  0  0  0  0  0
    6.2367    1.3924   -6.2768 H   0  0  0  0  0  0  0  0  0  0  0  0
    6.3357    3.4363   -7.2479 H   0  0  0  0  0  0  0  0  0  0  0  0
    6.5728   -0.2715   -7.3683 H   0  0  0  0  0  0  0  0  0  0  0  0
    5.0671    0.2920   -8.1823 H   0  0  0  0  0  0  0  0  0  0  0  0
    6.8739    0.3058   -9.6326 H   0  0  0  0  0  0  0  0  0  0  0  0
    7.1728   -8.5568   -7.0216 H   0  0  0  0  0  0  0  0  0  0  0  0
    5.4062   -8.8444   -7.5375 H   0  0  0  0  0  0  0  0  0  0  0  0
    4.9075   -9.5486   -5.3253 H   0  0  0  0  0  0  0  0  0  0  0  0
    6.6477   -9.2670   -4.8481 H   0  0  0  0  0  0  0  0  0  0  0  0
    5.8511  -11.3970   -4.3271 H   0  0  0  0  0  0  0  0  0  0  0  0
    7.1761   -5.3680   -8.9908 H   0  0  0  0  0  0  0  0  0  0  0  0
    5.5028   -5.6699   -9.4891 H   0  0  0  0  0  0  0  0  0  0  0  0
    7.0947   -6.3953  -11.2344 H   0  0  0  0  0  0  0  0  0  0  0  0
  1  2  1  0  0  0  0
  1 65  1  0  0  0  0
  2  3  2  0  0  0  0
  2  4  1  0  0  0  0
  4  5  1  0  0  0  0
  4 66  1  0  0  0  0
  4 67  1  0  0  0  0
  5  6  1  0  0  0  0
  5 68  1  0  0  0  0
  5 69  1  0  0  0  0
  6  7  2  0  0  0  0
  6 36  1  0  0  0  0
  7  8  1  0  0  0  0
  7 41  1  0  0  0  0
  8  9  1  0  0  0  0
  8 70  1  0  0  0  0
  8 71  1  0  0  0  0
  9 10  1  0  0  0  0
  9 14  2  0  0  0  0
 10 11  1  0  0  0  0
 10 12  1  0  0  0  0
 12 13  2  0  0  0  0
 12 24  1  0  0  0  0
 13 14  1  0  0  0  0
 13 19  1  0  0  0  0
 14 15  1  0  0  0  0
 15 16  1  0  0  0  0
 15 72  1  0  0  0  0
 15 73  1  0  0  0  0
 16 17  2  0  0  0  0
 16 18  1  0  0  0  0
 18 74  1  0  0  0  0
 19 20  1  0  0  0  0
 19 75  1  0  0  0  0
 19 76  1  0  0  0  0
 20 21  1  0  0  0  0
 20 77  1  0  0  0  0
 20 78  1  0  0  0  0
 21 22  2  0  0  0  0
 21 23  1  0  0  0  0
 23 79  1  0  0  0  0
 24 25  1  0  0  0  0
 24 80  1  0  0  0  0
 24 81  1  0  0  0  0
 25 26  1  0  0  0  0
 25 55  2  0  0  0  0
 26 27  1  0  0  0  0
 26 28  1  0  0  0  0
 28 29  1  0  0  0  0
 28 54  2  0  0  0  0
 29 30  1  0  0  0  0
 29 82  1  0  0  0  0
 29 83  1  0  0  0  0
 30 31  1  0  0  0  0
 30 49  2  0  0  0  0
 31 32  1  0  0  0  0
 31 33  1  0  0  0  0
 33 34  1  0  0  0  0
 33 43  2  0  0  0  0
 34 35  1  0  0  0  0
 34 84  1  0  0  0  0
 34 85  1  0  0  0  0
 35 36  2  0  0  0  0
 35 41  1  0  0  0  0
 36 37  1  0  0  0  0
 37 38  1  0  0  0  0
 37 86  1  0  0  0  0
 37 87  1  0  0  0  0
 38 39  2  0  0  0  0
 38 40  1  0  0  0  0
 40 88  1  0  0  0  0
 41 42  1  0  0  0  0
 43 44  1  0  0  0  0
 43 49  1  0  0  0  0
 44 45  1  0  0  0  0
 44 89  1  0  0  0  0
 44 90  1  0  0  0  0
 45 46  1  0  0  0  0
 45 91  1  0  0  0  0
 45 92  1  0  0  0  0
 46 47  2  0  0  0  0
 46 48  1  0  0  0  0
 48 93  1  0  0  0  0
 49 50  1  0  0  0  0
 50 51  1  0  0  0  0
 50 94  1  0  0  0  0
 50 95  1  0  0  0  0
 51 52  2  0  0  0  0
 51 53  1  0  0  0  0
 53 96  1  0  0  0  0
 54 55  1  0  0  0  0
 54 61  1  0  0  0  0
 55 56  1  0  0  0  0
 56 57  1  0  0  0  0
 56 97  1  0  0  0  0
 56 98  1  0  0  0  0
 57 58  1  0  0  0  0
 57 99  1  0  0  0  0
 57100  1  0  0  0  0
 58 59  2  0  0  0  0
 58 60  1  0  0  0  0
 60101  1  0  0  0  0
 61 62  1  0  0  0  0
 61102  1  0  0  0  0
 61103  1  0  0  0  0
 62 63  2  0  0  0  0
 62 64  1  0  0  0  0
 64104  1  0  0  0  0
M  END
$$$$
