UPF
 OpenBabel04121316203D

 59 61  0  0  1  0  0  0  0  0999 V2000
    0.7312    0.1477    0.1955 O   0  0  0  0  0  0  0  0  0  0  0  0
    2.1269    0.2868    0.2297 C   0  0  0  0  0  0  0  0  0  0  0  0
    2.8851   -0.7355    1.0596 C   0  0  1  0  0  0  0  0  0  0  0  0
    2.8259   -0.5007    2.1233 H   0  0  0  0  0  0  0  0  0  0  0  0
    2.2558   -2.0290    0.9754 O   0  0  0  0  0  0  0  0  0  0  0  0
    2.2247   -2.4503   -0.3771 C   0  0  2  0  0  0  0  0  0  0  0  0
    1.4414   -1.9515   -0.9695 H   0  0  0  0  0  0  0  0  0  0  0  0
    1.5115   -4.2309   -0.4394 O   0  0  0  0  0  0  0  0  0  0  0  0
    1.5819   -4.9038   -2.0316 P   0  0  1  0  0  0  0  0  0  0  0  0
    0.7716   -3.7522   -2.6412 O   0  0  0  0  0  0  0  0  0  0  0  0
    3.3050   -4.7499   -2.0204 O   0  0  0  0  0  0  0  0  0  0  0  0
    3.8130   -4.0642   -0.5155 P   0  0  1  0  0  0  0  0  0  0  0  0
    3.1320   -3.3724   -1.7007 O   0  0  0  0  0  0  0  0  0  0  0  0
    3.5460   -5.5583    0.1575 O   0  0  0  0  0  0  0  0  0  0  0  0
    3.1906   -6.7053   -0.6072 C   0  0  0  0  0  0  0  0  0  0  0  0
    2.9222   -8.0000    0.0928 C   0  0  1  0  0  0  0  0  0  0  0  0
    2.1744   -7.8434    0.8805 H   0  0  0  0  0  0  0  0  0  0  0  0
    2.3975   -8.9547   -0.8841 O   0  0  0  0  0  0  0  0  0  0  0  0
    2.7194  -10.2411   -0.3377 C   0  0  2  0  0  0  0  0  0  0  0  0
    1.9389  -10.4650    0.4060 H   0  0  0  0  0  0  0  0  0  0  0  0
    4.0635  -10.0397    0.4044 C   0  0  1  0  0  0  0  0  0  0  0  0
    4.9428  -10.2891   -0.1697 H   0  0  0  0  0  0  0  0  0  0  0  0
    4.2131   -8.5468    0.6022 C   0  0  2  0  0  0  0  0  0  0  0  0
    5.0409   -8.1811   -0.0222 H   0  0  0  0  0  0  0  0  0  0  0  0
    4.4628   -8.1417    1.9304 O   0  0  0  0  0  0  0  0  0  0  0  0
    4.1453  -10.7750    1.6150 O   0  0  0  0  0  0  0  0  0  0  0  0
    2.6531  -11.3256   -1.3562 N   0  0  0  0  0  0  0  0  0  0  0  0
    1.4326  -11.9591   -1.5985 C   0  0  0  0  0  0  0  0  0  0  0  0
    1.3527  -13.1120   -2.2771 C   0  0  0  0  0  0  0  0  0  0  0  0
    2.5666  -13.6612   -2.8965 C   0  0  0  0  0  0  0  0  0  0  0  0
    2.5802  -14.7582   -3.4385 O   0  0  0  0  0  0  0  0  0  0  0  0
    3.6516  -12.8489   -2.8363 N   0  0  0  0  0  0  0  0  0  0  0  0
    4.5045  -13.1791   -3.2597 H   0  0  0  0  0  0  0  0  0  0  0  0
    3.7997  -11.7856   -1.9978 C   0  0  0  0  0  0  0  0  0  0  0  0
    4.9411  -11.3611   -1.8548 O   0  0  0  0  0  0  0  0  0  0  0  0
    4.3210   -3.3785    0.9894 O   0  0  0  0  0  0  0  0  0  0  0  0
    1.6523   -5.5767   -3.6238 O   0  0  0  0  0  0  0  0  0  0  0  0
    4.0252   -1.9669   -1.1327 C   0  0  1  0  0  0  0  0  0  0  0  0
    4.1675   -2.1098   -2.2633 H   0  0  0  0  0  0  0  0  0  0  0  0
    4.6403   -0.6881   -0.9168 C   0  0  2  0  0  0  0  0  0  0  0  0
    5.7029   -0.8521   -1.1922 H   0  0  0  0  0  0  0  0  0  0  0  0
    4.3892   -0.5845    0.5939 C   0  0  1  0  0  0  0  0  0  0  0  0
    5.0022   -1.2581    1.2186 H   0  0  0  0  0  0  0  0  0  0  0  0
    4.9061    0.7118    0.8020 O   0  0  0  0  0  0  0  0  0  0  0  0
    3.9596    0.0044   -1.9556 O   0  0  0  0  0  0  0  0  0  0  0  0
    5.2524   -2.6989   -0.7613 F   0  0  0  0  0  0  0  0  0  0  0  0
    0.4616    0.6153   -0.6181 H   0  0  0  0  0  0  0  0  0  0  0  0
    2.4513    1.2845    0.5039 H   0  0  0  0  0  0  0  0  0  0  0  0
    2.3716    0.1655   -0.8053 H   0  0  0  0  0  0  0  0  0  0  0  0
    3.8794   -6.8324   -1.4498 H   0  0  0  0  0  0  0  0  0  0  0  0
    2.1901   -6.5851   -0.9790 H   0  0  0  0  0  0  0  0  0  0  0  0
    5.1946   -8.7044    2.2370 H   0  0  0  0  0  0  0  0  0  0  0  0
    4.1088  -11.7133    1.3586 H   0  0  0  0  0  0  0  0  0  0  0  0
    0.5323  -11.5060   -1.1893 H   0  0  0  0  0  0  0  0  0  0  0  0
    0.4429  -13.6808   -2.4215 H   0  0  0  0  0  0  0  0  0  0  0  0
    5.2379   -3.0887    0.8044 H   0  0  0  0  0  0  0  0  0  0  0  0
    0.7360   -5.6115   -3.9523 H   0  0  0  0  0  0  0  0  0  0  0  0
    4.7527    1.1463   -0.0627 H   0  0  0  0  0  0  0  0  0  0  0  0
    3.2178   -0.5723   -2.3112 H   0  0  0  0  0  0  0  0  0  0  0  0
  1  2  1  0  0  0  0
  1 47  1  0  0  0  0
  2  3  1  0  0  0  0
  2 48  1  0  0  0  0
  2 49  1  0  0  0  0
  3  4  1  1  0  0  0
  3  5  1  0  0  0  0
  3 42  1  0  0  0  0
  5  6  1  0  0  0  0
  6  7  1  6  0  0  0
  6  8  1  0  0  0  0
  6 38  1  0  0  0  0
  9  8  1  1  0  0  0
  9 10  2  0  0  0  0
  9 11  1  0  0  0  0
  9 37  1  0  0  0  0
 12 11  1  6  0  0  0
 12 13  2  0  0  0  0
 12 14  1  0  0  0  0
 12 36  1  0  0  0  0
 14 15  1  0  0  0  0
 15 16  1  0  0  0  0
 15 50  1  0  0  0  0
 15 51  1  0  0  0  0
 16 17  1  1  0  0  0
 16 18  1  0  0  0  0
 16 23  1  0  0  0  0
 18 19  1  0  0  0  0
 19 21  1  0  0  0  0
 19 27  1  0  0  0  0
 19 20  1  1  0  0  0
 21 22  1  6  0  0  0
 21 23  1  0  0  0  0
 21 26  1  0  0  0  0
 23 24  1  6  0  0  0
 23 25  1  0  0  0  0
 25 52  1  0  0  0  0
 26 53  1  0  0  0  0
 27 28  1  0  0  0  0
 27 34  1  0  0  0  0
 28 29  2  0  0  0  0
 28 54  1  0  0  0  0
 29 30  1  0  0  0  0
 29 55  1  0  0  0  0
 30 31  2  0  0  0  0
 30 32  1  0  0  0  0
 32 33  1  0  0  0  0
 32 34  1  0  0  0  0
 34 35  2  0  0  0  0
 36 56  1  0  0  0  0
 37 57  1  0  0  0  0
 38 39  1  6  0  0  0
 38 40  1  0  0  0  0
 38 46  1  0  0  0  0
 40 42  1  0  0  0  0
 40 45  1  0  0  0  0
 40 41  1  6  0  0  0
 42 44  1  0  0  0  0
 42 43  1  1  0  0  0
 44 58  1  0  0  0  0
 45 59  1  0  0  0  0
M  END
$$$$
