URD
 OpenBabel04121316203D

 30 31  0  0  1  0  0  0  0  0999 V2000
    0.9368   -0.0285   -0.0782 O   0  0  0  0  0  0  0  0  0  0  0  0
    2.3506    0.0454    0.0832 C   0  0  0  0  0  0  0  0  0  0  0  0
    2.8658   -0.9925    1.0927 C   0  0  1  0  0  0  0  0  0  0  0  0
    3.8328   -0.6411    1.4758 H   0  0  0  0  0  0  0  0  0  0  0  0
    1.9936   -1.1698    2.2119 O   0  0  0  0  0  0  0  0  0  0  0  0
    2.1787   -2.4916    2.7367 C   0  0  2  0  0  0  0  0  0  0  0  0
    2.9829   -2.4434    3.4819 H   0  0  0  0  0  0  0  0  0  0  0  0
    2.5809   -3.3524    1.5200 C   0  0  1  0  0  0  0  0  0  0  0  0
    1.7092   -3.9008    1.1439 H   0  0  0  0  0  0  0  0  0  0  0  0
    3.0170   -2.3576    0.4490 C   0  0  2  0  0  0  0  0  0  0  0  0
    2.3667   -2.4581   -0.4254 H   0  0  0  0  0  0  0  0  0  0  0  0
    4.3575   -2.5519   -0.0010 O   0  0  0  0  0  0  0  0  0  0  0  0
    3.6148   -4.3082    1.7750 O   0  0  0  0  0  0  0  0  0  0  0  0
    0.9628   -3.0022    3.4429 N   0  0  0  0  0  0  0  0  0  0  0  0
    0.9118   -4.3401    3.8319 C   0  0  0  0  0  0  0  0  0  0  0  0
   -0.1011   -4.9109    4.4857 C   0  0  0  0  0  0  0  0  0  0  0  0
   -1.2564   -4.0965    4.8516 C   0  0  0  0  0  0  0  0  0  0  0  0
   -2.1982   -4.6266    5.4450 O   0  0  0  0  0  0  0  0  0  0  0  0
   -1.2585   -2.6597    4.4872 C   0  0  0  0  0  0  0  0  0  0  0  0
   -0.0387   -2.1063    3.8186 C   0  0  0  0  0  0  0  0  0  0  0  0
   -0.0159   -0.8870    3.6356 O   0  0  0  0  0  0  0  0  0  0  0  0
    0.6660    0.7521   -0.5916 H   0  0  0  0  0  0  0  0  0  0  0  0
    2.6221    1.0589    0.3972 H   0  0  0  0  0  0  0  0  0  0  0  0
    2.7972   -0.1273   -0.9028 H   0  0  0  0  0  0  0  0  0  0  0  0
    4.4625   -3.5163   -0.1090 H   0  0  0  0  0  0  0  0  0  0  0  0
    3.3597   -4.8527    2.5352 H   0  0  0  0  0  0  0  0  0  0  0  0
    1.7511   -4.9790    3.5900 H   0  0  0  0  0  0  0  0  0  0  0  0
   -0.1271   -5.9581    4.7654 H   0  0  0  0  0  0  0  0  0  0  0  0
   -1.3949   -2.0874    5.4103 H   0  0  0  0  0  0  0  0  0  0  0  0
   -2.0965   -2.4946    3.8033 H   0  0  0  0  0  0  0  0  0  0  0  0
  1  2  1  0  0  0  0
  1 22  1  0  0  0  0
  2  3  1  0  0  0  0
  2 23  1  0  0  0  0
  2 24  1  0  0  0  0
  3  4  1  1  0  0  0
  3  5  1  0  0  0  0
  3 10  1  0  0  0  0
  5  6  1  0  0  0  0
  6  8  1  0  0  0  0
  6 14  1  0  0  0  0
  6  7  1  1  0  0  0
  8  9  1  6  0  0  0
  8 10  1  0  0  0  0
  8 13  1  0  0  0  0
 10 11  1  6  0  0  0
 10 12  1  0  0  0  0
 12 25  1  0  0  0  0
 13 26  1  0  0  0  0
 14 15  1  0  0  0  0
 14 20  1  0  0  0  0
 15 16  2  0  0  0  0
 15 27  1  0  0  0  0
 16 17  1  0  0  0  0
 16 28  1  0  0  0  0
 17 18  2  0  0  0  0
 17 19  1  0  0  0  0
 19 20  1  0  0  0  0
 19 29  1  0  0  0  0
 19 30  1  0  0  0  0
 20 21  2  0  0  0  0
M  END
$$$$
