URF
 OpenBabel04121316203D

 12 12  0  0  0  0  0  0  0  0999 V2000
    0.9974    0.0882    0.2057 F   0  0  0  0  0  0  0  0  0  0  0  0
    2.3387    0.1267    0.1180 C   0  0  0  0  0  0  0  0  0  0  0  0
    3.0266    1.2696    0.1057 C   0  0  0  0  0  0  0  0  0  0  0  0
    4.3833    1.2605   -0.0846 N   0  0  0  0  0  0  0  0  0  0  0  0
    4.8944    2.1286   -0.2073 H   0  0  0  0  0  0  0  0  0  0  0  0
    5.1248    0.1092   -0.1792 C   0  0  0  0  0  0  0  0  0  0  0  0
    6.3207    0.1266   -0.4430 O   0  0  0  0  0  0  0  0  0  0  0  0
    4.4329   -1.0547    0.0271 N   0  0  0  0  0  0  0  0  0  0  0  0
    4.9597   -1.9129   -0.0201 H   0  0  0  0  0  0  0  0  0  0  0  0
    3.0645   -1.1597    0.0244 C   0  0  0  0  0  0  0  0  0  0  0  0
    2.4888   -2.2413   -0.0511 O   0  0  0  0  0  0  0  0  0  0  0  0
    2.5433    2.2335    0.2129 H   0  0  0  0  0  0  0  0  0  0  0  0
  1  2  1  0  0  0  0
  2  3  2  0  0  0  0
  2 10  1  0  0  0  0
  3  4  1  0  0  0  0
  3 12  1  0  0  0  0
  4  5  1  0  0  0  0
  4  6  1  0  0  0  0
  6  7  2  0  0  0  0
  6  8  1  0  0  0  0
  8  9  1  0  0  0  0
  8 10  1  0  0  0  0
 10 11  2  0  0  0  0
M  END
$$$$
