URN
 OpenBabel04121316203D

 16 16  0  0  0  0  0  0  0  0999 V2000
    1.0283    0.0148    0.0795 N   0  0  0  0  0  0  0  0  0  0  0  0
    2.3919   -0.0566    0.0861 C   0  0  0  0  0  0  0  0  0  0  0  0
    3.1045    1.1075    0.0889 N   0  0  0  0  0  0  0  0  0  0  0  0
    2.6118    1.9883    0.0877 H   0  0  0  0  0  0  0  0  0  0  0  0
    4.4637    1.1983    0.0901 C   0  0  0  0  0  0  0  0  0  0  0  0
    5.0411    2.2824    0.0879 O   0  0  0  0  0  0  0  0  0  0  0  0
    5.1407    0.0210    0.0935 N   0  0  0  0  0  0  0  0  0  0  0  0
    6.1470    0.0602    0.0957 H   0  0  0  0  0  0  0  0  0  0  0  0
    4.5529   -1.2084    0.0926 C   0  0  0  0  0  0  0  0  0  0  0  0
    5.2130   -2.2464    0.0946 O   0  0  0  0  0  0  0  0  0  0  0  0
    3.0435   -1.2420    0.0883 C   0  0  0  0  0  0  0  0  0  0  0  0
    2.4477   -2.4827    0.0888 N   0  0  0  0  0  0  0  0  0  0  0  0
    0.5506    0.9030    0.0926 H   0  0  0  0  0  0  0  0  0  0  0  0
    0.4885   -0.8386    0.0910 H   0  0  0  0  0  0  0  0  0  0  0  0
    3.0575   -3.2956    0.0755 H   0  0  0  0  0  0  0  0  0  0  0  0
    1.4466   -2.5825    0.0688 H   0  0  0  0  0  0  0  0  0  0  0  0
  1  2  1  0  0  0  0
  1 13  1  0  0  0  0
  1 14  1  0  0  0  0
  2  3  1  0  0  0  0
  2 11  2  0  0  0  0
  3  4  1  0  0  0  0
  3  5  1  0  0  0  0
  5  6  2  0  0  0  0
  5  7  1  0  0  0  0
  7  8  1  0  0  0  0
  7  9  1  0  0  0  0
  9 10  2  0  0  0  0
  9 11  1  0  0  0  0
 11 12  1  0  0  0  0
 12 15  1  0  0  0  0
 12 16  1  0  0  0  0
M  END
$$$$
