URP
 OpenBabel04121316203D

 17 16  0  0  0  0  0  0  0  0999 V2000
    1.0032   -0.2146    0.1088 O   0  0  0  0  0  0  0  0  0  0  0  0
    2.3462   -0.0784    0.1472 C   0  0  0  0  0  0  0  0  0  0  0  0
    2.9208    0.2197    1.1857 O   0  0  0  0  0  0  0  0  0  0  0  0
    3.0369   -0.3167   -1.1764 C   0  0  0  0  0  0  0  0  0  0  0  0
    4.5484   -0.2674   -0.9662 C   0  0  0  0  0  0  0  0  0  0  0  0
    5.3203   -0.4874   -2.1761 N   0  0  0  0  0  0  0  0  0  0  0  0
    6.6841   -0.4675   -2.1200 C   0  0  0  0  0  0  0  0  0  0  0  0
    7.3426   -0.2860   -1.1092 O   0  0  0  0  0  0  0  0  0  0  0  0
    7.2827   -0.6789   -3.3139 N   0  0  0  0  0  0  0  0  0  0  0  0
    0.6360   -0.6141   -0.7001 H   0  0  0  0  0  0  0  0  0  0  0  0
    2.7336    0.4606   -1.8871 H   0  0  0  0  0  0  0  0  0  0  0  0
    2.7442   -1.2935   -1.5761 H   0  0  0  0  0  0  0  0  0  0  0  0
    4.8558   -1.0281   -0.2379 H   0  0  0  0  0  0  0  0  0  0  0  0
    4.8475    0.7059   -0.5568 H   0  0  0  0  0  0  0  0  0  0  0  0
    4.8681   -0.6220   -3.0658 H   0  0  0  0  0  0  0  0  0  0  0  0
    6.7952   -0.8285   -4.1795 H   0  0  0  0  0  0  0  0  0  0  0  0
    8.2945   -0.6746   -3.3136 H   0  0  0  0  0  0  0  0  0  0  0  0
  1  2  1  0  0  0  0
  1 10  1  0  0  0  0
  2  3  2  0  0  0  0
  2  4  1  0  0  0  0
  4  5  1  0  0  0  0
  4 11  1  0  0  0  0
  4 12  1  0  0  0  0
  5  6  1  0  0  0  0
  5 13  1  0  0  0  0
  5 14  1  0  0  0  0
  6  7  1  0  0  0  0
  6 15  1  0  0  0  0
  7  8  2  0  0  0  0
  7  9  1  0  0  0  0
  9 16  1  0  0  0  0
  9 17  1  0  0  0  0
M  END
$$$$
