UVC
 OpenBabel04121316203D

 33 35  0  0  1  0  0  0  0  0999 V2000
    4.2427    2.7648    1.1819 O   0  0  0  0  0  0  0  0  0  0  0  0
    4.1974    1.5127    0.5135 C   0  0  0  0  0  0  0  0  0  0  0  0
    2.9487    0.8725    1.0977 C   0  0  1  0  0  0  0  0  0  0  0  0
    2.5920    0.2976    0.2687 H   0  0  0  0  0  0  0  0  0  0  0  0
    2.7611   -0.2098    2.1779 O   0  0  0  0  0  0  0  0  0  0  0  0
    2.7652    0.5183    3.5577 C   0  0  2  0  0  0  0  0  0  0  0  0
    2.4203    0.0977    4.4791 H   0  0  0  0  0  0  0  0  0  0  0  0
    2.9239    2.0171    3.2474 C   0  0  1  0  0  0  0  0  0  0  0  0
    3.9131    2.3435    3.4921 H   0  0  0  0  0  0  0  0  0  0  0  0
    2.4761    2.1824    1.7607 C   0  0  2  0  0  0  0  0  0  0  0  0
    2.8433    3.0371    1.2319 H   0  0  0  0  0  0  0  0  0  0  0  0
    1.0428    2.2010    1.8481 O   0  0  0  0  0  0  0  0  0  0  0  0
    0.6817    2.8875    2.9666 V   0  0  0  0  0  0  0  0  0  0  0  0
    0.5792    1.4087    4.2987 O   0  0  0  0  0  0  0  0  0  0  0  0
    1.8034    2.7918    3.9823 O   0  0  0  0  0  0  0  0  0  0  0  0
   -0.8458    1.3885    3.4316 O   0  0  0  0  0  0  0  0  0  0  0  0
   -0.2491    4.2161    4.4378 O   0  0  0  0  0  0  0  0  0  0  0  0
    3.7124    0.0309    4.5183 N   0  0  0  0  0  0  0  0  0  0  0  0
    4.0269   -1.3553    4.5787 C   0  0  0  0  0  0  0  0  0  0  0  0
    4.6853   -1.8639    5.7103 C   0  0  0  0  0  0  0  0  0  0  0  0
    5.2420   -1.0510    6.5593 C   0  0  0  0  0  0  0  0  0  0  0  0
    5.8090   -1.4963    7.5529 O   0  0  0  0  0  0  0  0  0  0  0  0
    5.1953    0.3324    6.3414 N   0  0  0  0  0  0  0  0  0  0  0  0
    5.7973    0.9432    6.8558 H   0  0  0  0  0  0  0  0  0  0  0  0
    4.2906    0.8606    5.3885 C   0  0  0  0  0  0  0  0  0  0  0  0
    4.0425    2.0626    5.3635 O   0  0  0  0  0  0  0  0  0  0  0  0
    5.0161    3.2655    0.8785 H   0  0  0  0  0  0  0  0  0  0  0  0
    5.0678    0.9284    0.7276 H   0  0  0  0  0  0  0  0  0  0  0  0
    4.1733    1.5992   -0.5527 H   0  0  0  0  0  0  0  0  0  0  0  0
   -0.6977    0.5973    2.8903 H   0  0  0  0  0  0  0  0  0  0  0  0
    0.2422    5.0516    4.4754 H   0  0  0  0  0  0  0  0  0  0  0  0
    3.7736   -1.9813    3.7983 H   0  0  0  0  0  0  0  0  0  0  0  0
    4.7273   -2.8828    5.8681 H   0  0  0  0  0  0  0  0  0  0  0  0
  1  2  1  0  0  0  0
  1 27  1  0  0  0  0
  2 28  1  0  0  0  0
  2 29  1  0  0  0  0
  3  5  1  0  0  0  0
  3 10  1  0  0  0  0
  3  4  1  6  0  0  0
  3  2  1  0  0  0  0
  5  6  1  0  0  0  0
  6  8  1  0  0  0  0
  6  7  1  1  0  0  0
  6 18  1  0  0  0  0
  8 10  1  0  0  0  0
  8 15  1  0  0  0  0
  8  9  1  1  0  0  0
 10 12  1  0  0  0  0
 10 11  1  6  0  0  0
 12 13  1  0  0  0  0
 13 15  1  0  0  0  0
 13 14  2  0  0  0  0
 13 16  1  0  0  0  0
 13 17  1  0  0  0  0
 16 30  1  0  0  0  0
 17 31  1  0  0  0  0
 18 19  1  0  0  0  0
 18 25  1  0  0  0  0
 19 20  2  0  0  0  0
 19 32  1  0  0  0  0
 20 21  1  0  0  0  0
 20 33  1  0  0  0  0
 21 22  2  0  0  0  0
 21 23  1  0  0  0  0
 23 24  1  0  0  0  0
 23 25  1  0  0  0  0
 25 26  2  0  0  0  0
M  END
$$$$
