V15
 OpenBabel04121316203D

 29 30  0  0  0  0  0  0  0  0999 V2000
    1.1464   -0.0315    0.0330 N   0  0  0  0  0  0  0  0  0  0  0  0
    2.4937    0.0018    0.0285 C   0  0  0  0  0  0  0  0  0  0  0  0
    3.1239    1.1336    0.0234 N   0  0  0  0  0  0  0  0  0  0  0  0
    4.4987    1.0924    0.0220 C   0  0  0  0  0  0  0  0  0  0  0  0
    5.1872    2.4279    0.0362 C   0  0  0  0  0  0  0  0  0  0  0  0
    6.7200    2.3281    0.0646 C   0  0  0  0  0  0  0  0  0  0  0  0
    7.4342    3.6412    0.0494 C   0  0  0  0  0  0  0  0  0  0  0  0
    6.7671    4.8408    0.3074 C   0  0  0  0  0  0  0  0  0  0  0  0
    7.4020    6.0499    0.0861 C   0  0  0  0  0  0  0  0  0  0  0  0
    8.7528    6.0655   -0.2414 C   0  0  0  0  0  0  0  0  0  0  0  0
    9.4688    4.8729   -0.3394 C   0  0  0  0  0  0  0  0  0  0  0  0
    8.8009    3.6584   -0.2490 C   0  0  0  0  0  0  0  0  0  0  0  0
    5.2042   -0.0458    0.0299 C   0  0  0  0  0  0  0  0  0  0  0  0
    4.4884   -1.3062    0.0334 C   0  0  0  0  0  0  0  0  0  0  0  0
    5.0998   -2.3733    0.0409 O   0  0  0  0  0  0  0  0  0  0  0  0
    3.1371   -1.2001    0.0301 N   0  0  0  0  0  0  0  0  0  0  0  0
    2.6288   -2.0650    0.0311 H   0  0  0  0  0  0  0  0  0  0  0  0
    0.6557    0.8537    0.0315 H   0  0  0  0  0  0  0  0  0  0  0  0
    0.6088   -0.8827    0.0312 H   0  0  0  0  0  0  0  0  0  0  0  0
    4.8370    2.9701    0.9238 H   0  0  0  0  0  0  0  0  0  0  0  0
    4.8756    3.0066   -0.8455 H   0  0  0  0  0  0  0  0  0  0  0  0
    7.0458    1.7717   -0.8276 H   0  0  0  0  0  0  0  0  0  0  0  0
    7.0494    1.7747    0.9533 H   0  0  0  0  0  0  0  0  0  0  0  0
    5.7358    4.8579    0.6462 H   0  0  0  0  0  0  0  0  0  0  0  0
    6.8321    6.9691    0.1709 H   0  0  0  0  0  0  0  0  0  0  0  0
    9.2482    7.0143   -0.4114 H   0  0  0  0  0  0  0  0  0  0  0  0
   10.5407    4.8892   -0.5078 H   0  0  0  0  0  0  0  0  0  0  0  0
    9.3404    2.7288   -0.4248 H   0  0  0  0  0  0  0  0  0  0  0  0
    6.2804   -0.1141    0.0390 H   0  0  0  0  0  0  0  0  0  0  0  0
  1  2  1  0  0  0  0
  1 18  1  0  0  0  0
  1 19  1  0  0  0  0
  2  3  2  0  0  0  0
  2 16  1  0  0  0  0
  3  4  1  0  0  0  0
  4  5  1  0  0  0  0
  4 13  2  0  0  0  0
  5  6  1  0  0  0  0
  5 20  1  0  0  0  0
  5 21  1  0  0  0  0
  6  7  1  0  0  0  0
  6 22  1  0  0  0  0
  6 23  1  0  0  0  0
  7  8  2  0  0  0  0
  7 12  1  0  0  0  0
  8  9  1  0  0  0  0
  8 24  1  0  0  0  0
  9 10  2  0  0  0  0
  9 25  1  0  0  0  0
 10 11  1  0  0  0  0
 10 26  1  0  0  0  0
 11 12  2  0  0  0  0
 11 27  1  0  0  0  0
 12 28  1  0  0  0  0
 13 14  1  0  0  0  0
 13 29  1  0  0  0  0
 14 15  2  0  0  0  0
 14 16  1  0  0  0  0
 16 17  1  0  0  0  0
M  END
$$$$
