V20
 OpenBabel04121316203D

 46 45  0  0  1  0  0  0  0  0999 V2000
    4.9841    3.1503    2.6766 C   0  0  0  0  0  0  0  0  0  0  0  0
    4.3202    2.9624    1.0010 S   0  0  0  0  0  0  0  0  0  0  0  0
    5.3948    1.6154    0.3487 C   0  0  0  0  0  0  0  0  0  0  0  0
    5.0134    1.3285   -1.1173 C   0  0  2  0  0  0  0  0  0  0  0  0
    3.9183    1.3251   -1.2239 H   0  0  0  0  0  0  0  0  0  0  0  0
    5.4680   -0.0279   -1.6759 C   0  0  0  0  0  0  0  0  0  0  0  0
    6.0599   -0.1677   -2.7407 O   0  0  0  0  0  0  0  0  0  0  0  0
    5.0721   -1.1052   -0.9616 O   0  0  0  0  0  0  0  0  0  0  0  0
    5.4943    2.3728   -1.9807 O   0  0  0  0  0  0  0  0  0  0  0  0
    6.8391    2.5213   -2.0960 C   0  0  0  0  0  0  0  0  0  0  0  0
    7.6587    1.8273   -1.4944 O   0  0  0  0  0  0  0  0  0  0  0  0
    7.2173    3.6774   -3.0262 C   0  0  1  0  0  0  0  0  0  0  0  0
    6.7902    3.4856   -4.0195 H   0  0  0  0  0  0  0  0  0  0  0  0
    6.6788    4.9319   -2.4937 N   0  0  0  0  0  0  0  0  0  0  0  0
    5.3418    5.2082   -2.5842 C   0  0  0  0  0  0  0  0  0  0  0  0
    4.5237    4.4427   -3.0838 O   0  0  0  0  0  0  0  0  0  0  0  0
    4.9463    6.5460   -2.0116 C   0  0  0  0  0  0  0  0  0  0  0  0
    3.4317    6.5553   -1.9582 C   0  0  0  0  0  0  0  0  0  0  0  0
    2.8355    7.8447   -1.4397 C   0  0  0  0  0  0  0  0  0  0  0  0
    1.3007    7.7973   -1.4482 C   0  0  1  0  0  0  0  0  0  0  0  0
    0.9160    7.5995   -2.4555 H   0  0  0  0  0  0  0  0  0  0  0  0
    0.7090    6.7317   -0.4817 C   0  0  0  0  0  0  0  0  0  0  0  0
    0.1031    7.0046    0.5522 O   0  0  0  0  0  0  0  0  0  0  0  0
    0.8925    5.4399   -0.8377 O   0  0  0  0  0  0  0  0  0  0  0  0
    0.8130    9.1361   -1.0483 N   0  0  0  0  0  0  0  0  0  0  0  0
    8.7496    3.7086   -3.0909 C   0  0  0  0  0  0  0  0  0  0  0  0
    9.3971    5.0676   -4.1205 S   0  0  0  0  0  0  0  0  0  0  0  0
    4.4003    3.9231    3.1871 H   0  0  0  0  0  0  0  0  0  0  0  0
    6.0284    3.4733    2.6582 H   0  0  0  0  0  0  0  0  0  0  0  0
    4.8875    2.2221    3.2452 H   0  0  0  0  0  0  0  0  0  0  0  0
    5.2783    0.7280    0.9740 H   0  0  0  0  0  0  0  0  0  0  0  0
    6.4242    1.9649    0.4471 H   0  0  0  0  0  0  0  0  0  0  0  0
    4.4982   -0.9276   -0.1952 H   0  0  0  0  0  0  0  0  0  0  0  0
    7.3253    5.6856   -2.2904 H   0  0  0  0  0  0  0  0  0  0  0  0
    5.3320    7.3407   -2.6539 H   0  0  0  0  0  0  0  0  0  0  0  0
    5.3513    6.6562   -0.9990 H   0  0  0  0  0  0  0  0  0  0  0  0
    3.1704    5.7340   -1.2863 H   0  0  0  0  0  0  0  0  0  0  0  0
    3.0080    6.3332   -2.9477 H   0  0  0  0  0  0  0  0  0  0  0  0
    3.1883    8.6671   -2.0770 H   0  0  0  0  0  0  0  0  0  0  0  0
    3.2108    8.0316   -0.4271 H   0  0  0  0  0  0  0  0  0  0  0  0
    1.3672    5.2628   -1.6718 H   0  0  0  0  0  0  0  0  0  0  0  0
    1.2467    9.8709   -1.6002 H   0  0  0  0  0  0  0  0  0  0  0  0
    1.0788    9.2942   -0.0725 H   0  0  0  0  0  0  0  0  0  0  0  0
    9.1382    2.7560   -3.4683 H   0  0  0  0  0  0  0  0  0  0  0  0
    9.1583    3.8534   -2.0835 H   0  0  0  0  0  0  0  0  0  0  0  0
    8.8500    4.6732   -5.2803 H   0  0  0  0  0  0  0  0  0  0  0  0
  1  2  1  0  0  0  0
  1 28  1  0  0  0  0
  1 29  1  0  0  0  0
  1 30  1  0  0  0  0
  2  3  1  0  0  0  0
  3 31  1  0  0  0  0
  3 32  1  0  0  0  0
  4  6  1  0  0  0  0
  4  9  1  0  0  0  0
  4  5  1  6  0  0  0
  4  3  1  0  0  0  0
  6  7  2  0  0  0  0
  6  8  1  0  0  0  0
  8 33  1  0  0  0  0
  9 10  1  0  0  0  0
 10 11  2  0  0  0  0
 10 12  1  0  0  0  0
 12 13  1  6  0  0  0
 12 14  1  0  0  0  0
 12 26  1  0  0  0  0
 14 15  1  0  0  0  0
 14 34  1  0  0  0  0
 15 16  2  0  0  0  0
 15 17  1  0  0  0  0
 17 18  1  0  0  0  0
 17 35  1  0  0  0  0
 17 36  1  0  0  0  0
 18 19  1  0  0  0  0
 18 37  1  0  0  0  0
 18 38  1  0  0  0  0
 19 20  1  0  0  0  0
 19 39  1  0  0  0  0
 19 40  1  0  0  0  0
 20 21  1  6  0  0  0
 20 22  1  0  0  0  0
 20 25  1  0  0  0  0
 22 23  2  0  0  0  0
 22 24  1  0  0  0  0
 24 41  1  0  0  0  0
 25 42  1  0  0  0  0
 25 43  1  0  0  0  0
 26 27  1  0  0  0  0
 26 44  1  0  0  0  0
 26 45  1  0  0  0  0
 27 46  1  0  0  0  0
M  END
$$$$
