V25
 OpenBabel04121316203D

 35 36  0  0  0  0  0  0  0  0999 V2000
    0.9033    0.0636    0.0342 C   0  0  0  0  0  0  0  0  0  0  0  0
    2.4125    0.1184    0.0403 C   0  0  0  0  0  0  0  0  0  0  0  0
    2.8175    0.9309    1.1522 O   0  0  0  0  0  0  0  0  0  0  0  0
    4.1515    1.2022    1.1575 C   0  0  0  0  0  0  0  0  0  0  0  0
    4.9256    0.9544    0.2499 O   0  0  0  0  0  0  0  0  0  0  0  0
    4.5598    1.7430    2.4353 C   0  0  0  0  0  0  0  0  0  0  0  0
    5.1814    1.1850    3.5628 C   0  0  0  0  0  0  0  0  0  0  0  0
    5.5797   -0.2078    3.8274 C   0  0  0  0  0  0  0  0  0  0  0  0
    5.3785   -1.2534    2.9863 C   0  0  0  0  0  0  0  0  0  0  0  0
    4.8326   -1.2557    1.7313 N   0  0  0  0  0  0  0  0  0  0  0  0
    6.1215   -0.5958    5.0655 C   0  0  0  0  0  0  0  0  0  0  0  0
    6.5650   -0.9134    6.0790 N   0  0  0  0  0  0  0  0  0  0  0  0
    5.3489    2.2849    4.4842 C   0  0  0  0  0  0  0  0  0  0  0  0
    4.8927    3.4694    3.8696 C   0  0  0  0  0  0  0  0  0  0  0  0
    4.4552    3.1056    2.6185 N   0  0  0  0  0  0  0  0  0  0  0  0
    3.9430    3.9316    1.5404 C   0  0  0  0  0  0  0  0  0  0  0  0
    4.9432    4.7111    4.5498 C   0  0  0  0  0  0  0  0  0  0  0  0
    4.3968    6.1830    3.8277 Cl  0  0  0  0  0  0  0  0  0  0  0  0
    5.4421    4.7360    5.8614 C   0  0  0  0  0  0  0  0  0  0  0  0
    5.8927    3.5827    6.4774 C   0  0  0  0  0  0  0  0  0  0  0  0
    5.8556    2.3714    5.8015 C   0  0  0  0  0  0  0  0  0  0  0  0
    5.5145    6.1941    6.7885 Cl  0  0  0  0  0  0  0  0  0  0  0  0
    0.5380   -0.5188   -0.8158 H   0  0  0  0  0  0  0  0  0  0  0  0
    0.4945    1.0765   -0.0170 H   0  0  0  0  0  0  0  0  0  0  0  0
    0.5355   -0.3898    0.9604 H   0  0  0  0  0  0  0  0  0  0  0  0
    2.7761    0.5378   -0.9046 H   0  0  0  0  0  0  0  0  0  0  0  0
    2.8060   -0.8984    0.1535 H   0  0  0  0  0  0  0  0  0  0  0  0
    5.6719   -2.2681    3.2634 H   0  0  0  0  0  0  0  0  0  0  0  0
    5.2200   -0.4679    1.2144 H   0  0  0  0  0  0  0  0  0  0  0  0
    4.9801   -2.0590    1.1343 H   0  0  0  0  0  0  0  0  0  0  0  0
    3.8698    4.9734    1.7993 H   0  0  0  0  0  0  0  0  0  0  0  0
    2.9418    3.5715    1.2863 H   0  0  0  0  0  0  0  0  0  0  0  0
    4.6171    3.8296    0.6833 H   0  0  0  0  0  0  0  0  0  0  0  0
    6.2755    3.6017    7.4935 H   0  0  0  0  0  0  0  0  0  0  0  0
    6.2188    1.5063    6.3461 H   0  0  0  0  0  0  0  0  0  0  0  0
  1  2  1  0  0  0  0
  1 23  1  0  0  0  0
  1 24  1  0  0  0  0
  1 25  1  0  0  0  0
  2  3  1  0  0  0  0
  2 26  1  0  0  0  0
  2 27  1  0  0  0  0
  3  4  1  0  0  0  0
  4  5  2  0  0  0  0
  4  6  1  0  0  0  0
  6  7  2  0  0  0  0
  6 15  1  0  0  0  0
  7  8  1  0  0  0  0
  7 13  1  0  0  0  0
  8  9  2  0  0  0  0
  8 11  1  0  0  0  0
  9 10  1  0  0  0  0
  9 28  1  0  0  0  0
 10 29  1  0  0  0  0
 10 30  1  0  0  0  0
 11 12  3  0  0  0  0
 13 14  2  0  0  0  0
 13 21  1  0  0  0  0
 14 15  1  0  0  0  0
 14 17  1  0  0  0  0
 15 16  1  0  0  0  0
 16 31  1  0  0  0  0
 16 32  1  0  0  0  0
 16 33  1  0  0  0  0
 17 18  1  0  0  0  0
 17 19  2  0  0  0  0
 19 20  1  0  0  0  0
 19 22  1  0  0  0  0
 20 21  2  0  0  0  0
 20 34  1  0  0  0  0
 21 35  1  0  0  0  0
M  END
$$$$
