V55
 OpenBabel04121316203D

 19 19  0  0  0  0  0  0  0  0999 V2000
    1.0792   -0.0289   -0.0281 C   0  0  0  0  0  0  0  0  0  0  0  0
    2.5030   -0.0516    0.0358 O   0  0  0  0  0  0  0  0  0  0  0  0
    3.1116    1.1675   -0.1158 C   0  0  0  0  0  0  0  0  0  0  0  0
    2.4981    2.3786    0.2035 C   0  0  0  0  0  0  0  0  0  0  0  0
    3.1262    3.5837   -0.1138 C   0  0  0  0  0  0  0  0  0  0  0  0
    2.3807    4.8476    0.0356 C   0  0  0  0  0  0  0  0  0  0  0  0
    1.2300    4.8758    0.4662 O   0  0  0  0  0  0  0  0  0  0  0  0
    4.4304    3.5948   -0.6114 C   0  0  0  0  0  0  0  0  0  0  0  0
    5.1028    2.3853   -0.8038 C   0  0  0  0  0  0  0  0  0  0  0  0
    4.4237    1.1803   -0.6079 C   0  0  0  0  0  0  0  0  0  0  0  0
    5.0269   -0.0067   -0.9247 O   0  0  0  0  0  0  0  0  0  0  0  0
    0.7206   -1.0605    0.0174 H   0  0  0  0  0  0  0  0  0  0  0  0
    0.7313    0.4108   -0.9706 H   0  0  0  0  0  0  0  0  0  0  0  0
    0.6517    0.4979    0.8302 H   0  0  0  0  0  0  0  0  0  0  0  0
    1.5257    2.4126    0.6841 H   0  0  0  0  0  0  0  0  0  0  0  0
    2.8920    5.7672   -0.2863 H   0  0  0  0  0  0  0  0  0  0  0  0
    4.9270    4.5310   -0.8510 H   0  0  0  0  0  0  0  0  0  0  0  0
    6.1413    2.3986   -1.1211 H   0  0  0  0  0  0  0  0  0  0  0  0
    5.8864    0.1624   -1.3400 H   0  0  0  0  0  0  0  0  0  0  0  0
  1  2  1  0  0  0  0
  1 12  1  0  0  0  0
  1 13  1  0  0  0  0
  1 14  1  0  0  0  0
  2  3  1  0  0  0  0
  3  4  2  0  0  0  0
  3 10  1  0  0  0  0
  4  5  1  0  0  0  0
  4 15  1  0  0  0  0
  5  6  1  0  0  0  0
  5  8  2  0  0  0  0
  6  7  2  0  0  0  0
  6 16  1  0  0  0  0
  8  9  1  0  0  0  0
  8 17  1  0  0  0  0
  9 10  2  0  0  0  0
  9 18  1  0  0  0  0
 10 11  1  0  0  0  0
 11 19  1  0  0  0  0
M  END
$$$$
