VAK
 OpenBabel04121316203D

 50 53  0  0  1  0  0  0  0  0999 V2000
    5.0988   -0.6792   -2.6195 C   0  0  0  0  0  0  0  0  0  0  0  0
    4.7153    0.2788   -1.6334 O   0  0  0  0  0  0  0  0  0  0  0  0
    5.0617   -0.1132   -0.3779 C   0  0  0  0  0  0  0  0  0  0  0  0
    5.6586   -1.1631   -0.1598 O   0  0  0  0  0  0  0  0  0  0  0  0
    4.5801    0.8733    0.6937 C   0  0  2  0  0  0  0  0  0  0  0  0
    3.4806    0.8779    0.6839 H   0  0  0  0  0  0  0  0  0  0  0  0
    5.0434    2.3007    0.3864 C   0  0  0  0  0  0  0  0  0  0  0  0
    4.3778    3.0180   -0.6235 C   0  0  0  0  0  0  0  0  0  0  0  0
    4.8047    4.2952   -0.9900 C   0  0  0  0  0  0  0  0  0  0  0  0
    4.1141    5.0008   -2.0837 C   0  0  0  0  0  0  0  0  0  0  0  0
    3.1757    4.4711   -2.6676 O   0  0  0  0  0  0  0  0  0  0  0  0
    4.5697    6.3514   -2.4633 C   0  0  0  0  0  0  0  0  0  0  0  0
    3.9058    7.0281   -3.4944 C   0  0  0  0  0  0  0  0  0  0  0  0
    4.3172    8.3083   -3.8610 C   0  0  0  0  0  0  0  0  0  0  0  0
    5.3880    8.9140   -3.2038 C   0  0  0  0  0  0  0  0  0  0  0  0
    6.0484    8.2380   -2.1798 C   0  0  0  0  0  0  0  0  0  0  0  0
    5.6445    6.9518   -1.8023 C   0  0  0  0  0  0  0  0  0  0  0  0
    6.3350    6.2240   -0.7183 C   0  0  0  0  0  0  0  0  0  0  0  0
    7.2874    6.6950   -0.1046 O   0  0  0  0  0  0  0  0  0  0  0  0
    5.8823    4.8795   -0.3371 C   0  0  0  0  0  0  0  0  0  0  0  0
    6.5411    4.1817    0.6842 C   0  0  0  0  0  0  0  0  0  0  0  0
    6.1349    2.8954    1.0602 C   0  0  0  0  0  0  0  0  0  0  0  0
    6.8714    2.1961    2.1847 C   0  0  2  0  0  0  0  0  0  0  0  0
    7.9518    2.3051    2.0351 H   0  0  0  0  0  0  0  0  0  0  0  0
    6.5572    0.7048    2.2415 C   0  0  0  0  0  0  0  0  0  0  0  0
    5.0415    0.4413    2.1160 C   0  0  1  0  0  0  0  0  0  0  0  0
    4.3488    1.2321    3.1153 O   0  0  0  0  0  0  0  0  0  0  0  0
    4.7316   -1.0293    2.4870 C   0  0  0  0  0  0  0  0  0  0  0  0
    3.2922   -1.4662    2.2347 C   0  0  0  0  0  0  0  0  0  0  0  0
    6.5576    2.8328    3.4240 O   0  0  0  0  0  0  0  0  0  0  0  0
    7.6226    4.7092    1.3441 O   0  0  0  0  0  0  0  0  0  0  0  0
    7.0936    8.8458   -1.5476 O   0  0  0  0  0  0  0  0  0  0  0  0
    4.8507   -0.2806   -3.6040 H   0  0  0  0  0  0  0  0  0  0  0  0
    4.5401   -1.6072   -2.4602 H   0  0  0  0  0  0  0  0  0  0  0  0
    6.1776   -0.8705   -2.5803 H   0  0  0  0  0  0  0  0  0  0  0  0
    3.5375    2.5646   -1.1524 H   0  0  0  0  0  0  0  0  0  0  0  0
    3.0679    6.5619   -4.0118 H   0  0  0  0  0  0  0  0  0  0  0  0
    3.8011    8.8350   -4.6601 H   0  0  0  0  0  0  0  0  0  0  0  0
    5.6968    9.9123   -3.4993 H   0  0  0  0  0  0  0  0  0  0  0  0
    6.9477    0.2840    3.1737 H   0  0  0  0  0  0  0  0  0  0  0  0
    7.0876    0.2097    1.4171 H   0  0  0  0  0  0  0  0  0  0  0  0
    4.1376    2.1075    2.7403 H   0  0  0  0  0  0  0  0  0  0  0  0
    5.4013   -1.7228    1.9715 H   0  0  0  0  0  0  0  0  0  0  0  0
    4.9384   -1.1749    3.5539 H   0  0  0  0  0  0  0  0  0  0  0  0
    3.0155   -1.4011    1.1777 H   0  0  0  0  0  0  0  0  0  0  0  0
    2.5860   -0.8659    2.8150 H   0  0  0  0  0  0  0  0  0  0  0  0
    3.1745   -2.5129    2.5330 H   0  0  0  0  0  0  0  0  0  0  0  0
    5.7082    2.4883    3.7481 H   0  0  0  0  0  0  0  0  0  0  0  0
    7.7830    5.6237    1.0155 H   0  0  0  0  0  0  0  0  0  0  0  0
    7.2623    9.7290   -1.9073 H   0  0  0  0  0  0  0  0  0  0  0  0
  1  2  1  0  0  0  0
  1 33  1  0  0  0  0
  1 34  1  0  0  0  0
  1 35  1  0  0  0  0
  2  3  1  0  0  0  0
  3  4  2  0  0  0  0
  5  7  1  0  0  0  0
  5 26  1  0  0  0  0
  5  6  1  6  0  0  0
  5  3  1  0  0  0  0
  7  8  2  0  0  0  0
  7 22  1  0  0  0  0
  8  9  1  0  0  0  0
  8 36  1  0  0  0  0
  9 10  1  0  0  0  0
  9 20  2  0  0  0  0
 10 11  2  0  0  0  0
 10 12  1  0  0  0  0
 12 13  2  0  0  0  0
 12 17  1  0  0  0  0
 13 14  1  0  0  0  0
 13 37  1  0  0  0  0
 14 15  2  0  0  0  0
 14 38  1  0  0  0  0
 15 16  1  0  0  0  0
 15 39  1  0  0  0  0
 16 17  2  0  0  0  0
 16 32  1  0  0  0  0
 17 18  1  0  0  0  0
 18 19  2  0  0  0  0
 18 20  1  0  0  0  0
 20 21  1  0  0  0  0
 21 22  2  0  0  0  0
 21 31  1  0  0  0  0
 22 23  1  0  0  0  0
 23 25  1  0  0  0  0
 23 30  1  0  0  0  0
 23 24  1  6  0  0  0
 25 26  1  0  0  0  0
 25 40  1  0  0  0  0
 25 41  1  0  0  0  0
 26 28  1  1  0  0  0
 26 27  1  0  0  0  0
 27 42  1  0  0  0  0
 28 29  1  0  0  0  0
 28 43  1  0  0  0  0
 28 44  1  0  0  0  0
 29 45  1  0  0  0  0
 29 46  1  0  0  0  0
 29 47  1  0  0  0  0
 30 48  1  0  0  0  0
 31 49  1  0  0  0  0
 32 50  1  0  0  0  0
M  END
$$$$
