VAM
 OpenBabel04121316203D

 48 49  0  0  1  0  0  0  0  0999 V2000
    6.7561    6.4895   -0.9204 O   0  0  0  0  0  0  0  0  0  0  0  0
    6.2252    5.2016   -1.2204 C   0  0  0  0  0  0  0  0  0  0  0  0
    7.1077    3.9010   -1.0570 C   0  0  1  0  0  0  0  0  0  0  0  0
    6.9664    3.4442   -2.0480 H   0  0  0  0  0  0  0  0  0  0  0  0
    8.5396    3.9699   -1.0007 O   0  0  0  0  0  0  0  0  0  0  0  0
    9.2370    3.6276    0.2058 C   0  0  1  0  0  0  0  0  0  0  0  0
   10.2111    3.2388   -0.1188 H   0  0  0  0  0  0  0  0  0  0  0  0
    9.5603    4.7545    1.0410 O   0  0  0  0  0  0  0  0  0  0  0  0
    8.8149    5.9041    0.6974 C   0  0  0  0  0  0  0  0  0  0  0  0
    8.6259    2.5389    1.1132 C   0  0  1  0  0  0  0  0  0  0  0  0
    9.1114    2.5597    2.0970 H   0  0  0  0  0  0  0  0  0  0  0  0
    7.1395    2.8319    1.3022 C   0  0  2  0  0  0  0  0  0  0  0  0
    6.7082    2.0143    1.8838 H   0  0  0  0  0  0  0  0  0  0  0  0
    6.4427    2.9311   -0.0630 C   0  0  2  0  0  0  0  0  0  0  0  0
    5.4038    3.2462    0.0819 H   0  0  0  0  0  0  0  0  0  0  0  0
    6.3907    1.6582   -0.7134 O   0  0  0  0  0  0  0  0  0  0  0  0
    5.5854    0.7465    0.0127 C   0  0  2  0  0  0  0  0  0  0  0  0
    4.9337    1.2954    0.7070 H   0  0  0  0  0  0  0  0  0  0  0  0
    6.4142   -0.1294    0.7549 O   0  0  0  0  0  0  0  0  0  0  0  0
    5.6996   -1.0377    1.5899 C   0  0  2  0  0  0  0  0  0  0  0  0
    5.0851   -0.4549    2.2909 H   0  0  0  0  0  0  0  0  0  0  0  0
    6.7654   -1.7936    2.4069 C   0  0  0  0  0  0  0  0  0  0  0  0
    6.2430   -2.7219    3.3439 O   0  0  0  0  0  0  0  0  0  0  0  0
    4.8025   -1.9093    0.6915 C   0  0  2  0  0  0  0  0  0  0  0  0
    5.4314   -2.5003    0.0144 H   0  0  0  0  0  0  0  0  0  0  0  0
    3.8843   -1.0053   -0.1666 C   0  0  1  0  0  0  0  0  0  0  0  0
    3.1930   -0.4468    0.4808 H   0  0  0  0  0  0  0  0  0  0  0  0
    4.6978    0.0071   -0.9771 C   0  0  1  0  0  0  0  0  0  0  0  0
    5.2976   -0.4905   -1.7475 H   0  0  0  0  0  0  0  0  0  0  0  0
    3.8380    0.9411   -1.6614 O   0  0  0  0  0  0  0  0  0  0  0  0
    3.0775   -1.7762   -1.0570 O   0  0  0  0  0  0  0  0  0  0  0  0
    3.7276   -3.0773    1.6138 S   0  0  0  0  0  0  0  0  0  0  0  0
    6.8655    3.9949    2.0882 O   0  0  0  0  0  0  0  0  0  0  0  0
    8.8104    1.2102    0.6185 O   0  0  0  0  0  0  0  0  0  0  0  0
    6.0975    6.9654   -0.4270 H   0  0  0  0  0  0  0  0  0  0  0  0
    5.8769    5.2644   -2.2550 H   0  0  0  0  0  0  0  0  0  0  0  0
    5.3119    5.1118   -0.6203 H   0  0  0  0  0  0  0  0  0  0  0  0
    9.0316    6.7287    1.3719 H   0  0  0  0  0  0  0  0  0  0  0  0
    7.7606    5.6809    0.8337 H   0  0  0  0  0  0  0  0  0  0  0  0
    9.0439    6.2066   -0.3285 H   0  0  0  0  0  0  0  0  0  0  0  0
    7.3784   -1.0744    2.9651 H   0  0  0  0  0  0  0  0  0  0  0  0
    7.4546   -2.3245    1.7418 H   0  0  0  0  0  0  0  0  0  0  0  0
    5.4515   -2.3450    3.7602 H   0  0  0  0  0  0  0  0  0  0  0  0
    3.2599    1.3711   -1.0127 H   0  0  0  0  0  0  0  0  0  0  0  0
    2.7124   -2.5161   -0.5379 H   0  0  0  0  0  0  0  0  0  0  0  0
    3.2417   -2.1929    2.4955 H   0  0  0  0  0  0  0  0  0  0  0  0
    7.7089    4.2956    2.4797 H   0  0  0  0  0  0  0  0  0  0  0  0
    9.7409    1.0653    0.3864 H   0  0  0  0  0  0  0  0  0  0  0  0
  1  2  1  0  0  0  0
  1 35  1  0  0  0  0
  2  3  1  0  0  0  0
  2 36  1  0  0  0  0
  2 37  1  0  0  0  0
  3  4  1  6  0  0  0
  3  5  1  0  0  0  0
  3 14  1  0  0  0  0
  5  6  1  0  0  0  0
  6 10  1  0  0  0  0
  6  8  1  0  0  0  0
  6  7  1  6  0  0  0
  8  9  1  0  0  0  0
  9 38  1  0  0  0  0
  9 39  1  0  0  0  0
  9 40  1  0  0  0  0
 10 11  1  1  0  0  0
 10 12  1  0  0  0  0
 10 34  1  0  0  0  0
 12 14  1  0  0  0  0
 12 33  1  0  0  0  0
 12 13  1  1  0  0  0
 14 15  1  1  0  0  0
 14 16  1  0  0  0  0
 17 19  1  0  0  0  0
 17 28  1  0  0  0  0
 17 18  1  1  0  0  0
 17 16  1  0  0  0  0
 19 20  1  0  0  0  0
 20 21  1  1  0  0  0
 20 22  1  0  0  0  0
 20 24  1  0  0  0  0
 22 23  1  0  0  0  0
 22 41  1  0  0  0  0
 22 42  1  0  0  0  0
 23 43  1  0  0  0  0
 24 26  1  0  0  0  0
 24 32  1  0  0  0  0
 24 25  1  6  0  0  0
 26 27  1  1  0  0  0
 26 28  1  0  0  0  0
 26 31  1  0  0  0  0
 28 30  1  0  0  0  0
 28 29  1  6  0  0  0
 30 44  1  0  0  0  0
 31 45  1  0  0  0  0
 32 46  1  0  0  0  0
 33 47  1  0  0  0  0
 34 48  1  0  0  0  0
M  END
$$$$
