VAW
 OpenBabel04121316203D

 74 77  0  0  1  0  0  0  0  0999 V2000
    0.7954   -0.3136    1.7179 C   0  0  0  0  0  0  0  0  0  0  0  0
    1.9893    0.2718    1.7077 C   0  0  0  0  0  0  0  0  0  0  0  0
    2.9804   -0.1690    2.7396 C   0  0  1  0  0  0  0  0  0  0  0  0
    3.6443    0.5845    2.6226 H   0  0  0  0  0  0  0  0  0  0  0  0
    2.7025    0.2469    4.1524 C   0  0  1  0  0  0  0  0  0  0  0  0
    1.6439    0.5286    4.2335 H   0  0  0  0  0  0  0  0  0  0  0  0
    2.8673   -0.8777    5.0516 O   0  0  0  0  0  0  0  0  0  0  0  0
    3.6478   -1.9516    4.6736 C   0  0  0  0  0  0  0  0  0  0  0  0
    4.2721   -2.1352    3.4996 C   0  0  0  0  0  0  0  0  0  0  0  0
    4.0135   -1.2253    2.3584 C   0  0  1  0  0  0  0  0  0  0  0  0
    4.9909   -0.7883    2.0870 H   0  0  0  0  0  0  0  0  0  0  0  0
    3.4617   -1.8370    1.0892 C   0  0  0  0  0  0  0  0  0  0  0  0
    4.4256   -2.7175    0.4185 C   0  0  0  0  0  0  0  0  0  0  0  0
    3.7907   -3.1535   -0.7970 N   0  0  0  0  0  0  0  0  0  0  0  0
    4.7654   -4.0552   -1.3584 C   0  0  0  0  0  0  0  0  0  0  0  0
    4.1186   -4.7612   -2.5114 C   0  0  0  0  0  0  0  0  0  0  0  0
    5.0848   -5.6943   -3.1183 C   0  0  0  0  0  0  0  0  0  0  0  0
    5.4614   -5.6737   -4.4398 C   0  0  0  0  0  0  0  0  0  0  0  0
    6.3861   -6.6577   -4.6211 N   0  0  0  0  0  0  0  0  0  0  0  0
    6.8251   -6.8742   -5.5024 H   0  0  0  0  0  0  0  0  0  0  0  0
    6.6395   -7.3064   -3.4330 C   0  0  0  0  0  0  0  0  0  0  0  0
    5.8335   -6.7210   -2.4607 C   0  0  0  0  0  0  0  0  0  0  0  0
    5.9141   -7.2037   -1.1335 C   0  0  0  0  0  0  0  0  0  0  0  0
    6.7917   -8.2430   -0.8237 C   0  0  0  0  0  0  0  0  0  0  0  0
    7.5716   -8.8171   -1.8205 C   0  0  0  0  0  0  0  0  0  0  0  0
    7.5095   -8.3623   -3.1433 C   0  0  0  0  0  0  0  0  0  0  0  0
    5.3211   -3.1661    3.2916 C   0  0  0  0  0  0  0  0  0  0  0  0
    6.2537   -3.0259    2.4795 O   0  0  0  0  0  0  0  0  0  0  0  0
    5.0647   -4.3012    3.9637 O   0  0  0  0  0  0  0  0  0  0  0  0
    5.9083   -5.3852    3.5664 C   0  0  0  0  0  0  0  0  0  0  0  0
    3.4393    1.4659    4.5416 O   0  0  0  0  0  0  0  0  0  0  0  0
    3.9860    2.4158    3.5382 C   0  0  2  0  0  0  0  0  0  0  0  0
    4.4400    3.1833    4.1730 H   0  0  0  0  0  0  0  0  0  0  0  0
    3.0086    3.1093    2.7306 O   0  0  0  0  0  0  0  0  0  0  0  0
    3.6322    4.1179    1.8896 C   0  0  2  0  0  0  0  0  0  0  0  0
    4.1745    4.8117    2.5430 H   0  0  0  0  0  0  0  0  0  0  0  0
    2.5698    4.9447    1.1439 C   0  0  0  0  0  0  0  0  0  0  0  0
    3.1319    5.9658    0.3240 O   0  0  0  0  0  0  0  0  0  0  0  0
    4.6478    3.4968    0.9002 C   0  0  2  0  0  0  0  0  0  0  0  0
    4.1194    2.7808    0.2487 H   0  0  0  0  0  0  0  0  0  0  0  0
    5.7737    2.8157    1.6808 C   0  0  1  0  0  0  0  0  0  0  0  0
    6.4211    3.5046    2.2178 H   0  0  0  0  0  0  0  0  0  0  0  0
    5.1446    1.8381    2.6159 C   0  0  1  0  0  0  0  0  0  0  0  0
    4.7786    1.2257    1.7832 H   0  0  0  0  0  0  0  0  0  0  0  0
    6.0647    1.0387    3.3394 O   0  0  0  0  0  0  0  0  0  0  0  0
    6.6057    2.0703    0.7705 O   0  0  0  0  0  0  0  0  0  0  0  0
    5.3038    4.4356    0.0529 O   0  0  0  0  0  0  0  0  0  0  0  0
    0.1462   -0.2519    0.8613 H   0  0  0  0  0  0  0  0  0  0  0  0
    0.5514   -0.9740    2.5446 H   0  0  0  0  0  0  0  0  0  0  0  0
    2.3490    0.8554    0.8566 H   0  0  0  0  0  0  0  0  0  0  0  0
    3.7245   -2.6629    5.4837 H   0  0  0  0  0  0  0  0  0  0  0  0
    2.5391   -2.3763    1.3254 H   0  0  0  0  0  0  0  0  0  0  0  0
    3.2530   -1.0543    0.3464 H   0  0  0  0  0  0  0  0  0  0  0  0
    4.5718   -3.5947    1.0418 H   0  0  0  0  0  0  0  0  0  0  0  0
    5.3665   -2.1876    0.2197 H   0  0  0  0  0  0  0  0  0  0  0  0
    3.6084   -2.3722   -1.4249 H   0  0  0  0  0  0  0  0  0  0  0  0
    5.0552   -4.7721   -0.5847 H   0  0  0  0  0  0  0  0  0  0  0  0
    5.6772   -3.5165   -1.6472 H   0  0  0  0  0  0  0  0  0  0  0  0
    3.7965   -4.0067   -3.2398 H   0  0  0  0  0  0  0  0  0  0  0  0
    3.2245   -5.3013   -2.1793 H   0  0  0  0  0  0  0  0  0  0  0  0
    5.1372   -5.0306   -5.2474 H   0  0  0  0  0  0  0  0  0  0  0  0
    5.3060   -6.7827   -0.3381 H   0  0  0  0  0  0  0  0  0  0  0  0
    6.8534   -8.6035    0.2001 H   0  0  0  0  0  0  0  0  0  0  0  0
    8.2384   -9.6365   -1.5666 H   0  0  0  0  0  0  0  0  0  0  0  0
    8.1177   -8.8182   -3.9153 H   0  0  0  0  0  0  0  0  0  0  0  0
    5.8767   -6.1411    4.3517 H   0  0  0  0  0  0  0  0  0  0  0  0
    6.9525   -5.0773    3.4330 H   0  0  0  0  0  0  0  0  0  0  0  0
    5.5257   -5.8179    2.6355 H   0  0  0  0  0  0  0  0  0  0  0  0
    1.9033    5.4367    1.8572 H   0  0  0  0  0  0  0  0  0  0  0  0
    1.9508    4.3022    0.5094 H   0  0  0  0  0  0  0  0  0  0  0  0
    3.8357    6.4182    0.8153 H   0  0  0  0  0  0  0  0  0  0  0  0
    6.3803    1.5413    4.1023 H   0  0  0  0  0  0  0  0  0  0  0  0
    6.8423    2.6553    0.0319 H   0  0  0  0  0  0  0  0  0  0  0  0
    5.7539    5.0801    0.6212 H   0  0  0  0  0  0  0  0  0  0  0  0
  1  2  2  0  0  0  0
  1 48  1  0  0  0  0
  1 49  1  0  0  0  0
  2 50  1  0  0  0  0
  3  5  1  0  0  0  0
  3 10  1  0  0  0  0
  3  4  1  6  0  0  0
  3  2  1  0  0  0  0
  5  7  1  0  0  0  0
  5 31  1  0  0  0  0
  5  6  1  1  0  0  0
  7  8  1  0  0  0  0
  8  9  2  0  0  0  0
  8 51  1  0  0  0  0
  9 10  1  0  0  0  0
  9 27  1  0  0  0  0
 10 12  1  0  0  0  0
 10 11  1  6  0  0  0
 12 13  1  0  0  0  0
 12 52  1  0  0  0  0
 12 53  1  0  0  0  0
 13 14  1  0  0  0  0
 13 54  1  0  0  0  0
 13 55  1  0  0  0  0
 14 15  1  0  0  0  0
 14 56  1  0  0  0  0
 15 16  1  0  0  0  0
 15 57  1  0  0  0  0
 15 58  1  0  0  0  0
 16 17  1  0  0  0  0
 16 59  1  0  0  0  0
 16 60  1  0  0  0  0
 17 18  2  0  0  0  0
 17 22  1  0  0  0  0
 18 19  1  0  0  0  0
 18 61  1  0  0  0  0
 19 20  1  0  0  0  0
 19 21  1  0  0  0  0
 21 22  2  0  0  0  0
 21 26  1  0  0  0  0
 22 23  1  0  0  0  0
 23 24  2  0  0  0  0
 23 62  1  0  0  0  0
 24 25  1  0  0  0  0
 24 63  1  0  0  0  0
 25 26  2  0  0  0  0
 25 64  1  0  0  0  0
 26 65  1  0  0  0  0
 27 28  2  0  0  0  0
 27 29  1  0  0  0  0
 29 30  1  0  0  0  0
 30 66  1  0  0  0  0
 30 67  1  0  0  0  0
 30 68  1  0  0  0  0
 32 34  1  0  0  0  0
 32 43  1  0  0  0  0
 32 33  1  1  0  0  0
 32 31  1  0  0  0  0
 34 35  1  0  0  0  0
 35 36  1  1  0  0  0
 35 37  1  0  0  0  0
 35 39  1  0  0  0  0
 37 38  1  0  0  0  0
 37 69  1  0  0  0  0
 37 70  1  0  0  0  0
 38 71  1  0  0  0  0
 39 41  1  0  0  0  0
 39 47  1  0  0  0  0
 39 40  1  6  0  0  0
 41 42  1  1  0  0  0
 41 43  1  0  0  0  0
 41 46  1  0  0  0  0
 43 45  1  0  0  0  0
 43 44  1  6  0  0  0
 45 72  1  0  0  0  0
 46 73  1  0  0  0  0
 47 74  1  0  0  0  0
M  END
$$$$
