VDM
 OpenBabel04121316203D

 48 49  0  0  1  0  0  0  0  0999 V2000
    1.0061    0.2085   -0.1135 O   0  0  0  0  0  0  0  0  0  0  0  0
    2.4199    0.1280   -0.1484 C   0  0  0  0  0  0  0  0  0  0  0  0
    2.8916   -0.8583   -1.2387 C   0  0  1  0  0  0  0  0  0  0  0  0
    3.3263   -0.2699   -2.0567 H   0  0  0  0  0  0  0  0  0  0  0  0
    4.0359   -1.7302   -0.6742 C   0  0  0  0  0  0  0  0  0  0  0  0
    3.4584   -2.7094    0.3492 C   0  0  2  0  0  0  0  0  0  0  0  0
    3.0374   -2.1413    1.1862 H   0  0  0  0  0  0  0  0  0  0  0  0
    4.5193   -3.5573    0.8905 N   0  0  0  0  0  0  0  0  0  0  0  0
    3.9786   -4.4022    1.9768 C   0  0  1  0  0  0  0  0  0  0  0  0
    3.0759   -3.9451    2.4122 H   0  0  0  0  0  0  0  0  0  0  0  0
    3.5546   -5.6950    1.3831 C   0  0  0  0  0  0  0  0  0  0  0  0
    4.0292   -6.9160    1.6391 C   0  0  0  0  0  0  0  0  0  0  0  0
    3.5704   -8.1391    0.8888 C   0  0  0  0  0  0  0  0  0  0  0  0
    2.6255   -7.8572   -0.1394 O   0  0  0  0  0  0  0  0  0  0  0  0
    5.0813   -7.0779    2.6567 C   0  0  2  0  0  0  0  0  0  0  0  0
    4.7389   -7.8655    3.3367 H   0  0  0  0  0  0  0  0  0  0  0  0
    5.5306   -5.8460    3.4832 C   0  0  1  0  0  0  0  0  0  0  0  0
    6.6235   -5.8046    3.4326 H   0  0  0  0  0  0  0  0  0  0  0  0
    4.9909   -4.4576    3.1284 C   0  0  1  0  0  0  0  0  0  0  0  0
    4.5013   -4.0040    4.0005 H   0  0  0  0  0  0  0  0  0  0  0  0
    6.0964   -3.5506    2.8518 O   0  0  0  0  0  0  0  0  0  0  0  0
    5.2190   -6.0428    4.8738 O   0  0  0  0  0  0  0  0  0  0  0  0
    6.2277   -7.5548    1.9544 O   0  0  0  0  0  0  0  0  0  0  0  0
    2.3563   -3.5788   -0.2870 C   0  0  1  0  0  0  0  0  0  0  0  0
    1.8666   -4.1580    0.4973 H   0  0  0  0  0  0  0  0  0  0  0  0
    1.2152   -2.7837   -0.8538 C   0  0  2  0  0  0  0  0  0  0  0  0
    0.5461   -3.4822   -1.3666 H   0  0  0  0  0  0  0  0  0  0  0  0
    1.7679   -1.7443   -1.8455 C   0  0  2  0  0  0  0  0  0  0  0  0
    0.9464   -1.1280   -2.2124 H   0  0  0  0  0  0  0  0  0  0  0  0
    2.3192   -2.3881   -3.0086 O   0  0  0  0  0  0  0  0  0  0  0  0
    0.4721   -2.2774    0.2598 O   0  0  0  0  0  0  0  0  0  0  0  0
    2.9142   -4.4567   -1.2701 O   0  0  0  0  0  0  0  0  0  0  0  0
    0.7305    0.7001    0.6796 H   0  0  0  0  0  0  0  0  0  0  0  0
    2.7466   -0.1679    0.8532 H   0  0  0  0  0  0  0  0  0  0  0  0
    2.8302    1.1237   -0.3250 H   0  0  0  0  0  0  0  0  0  0  0  0
    4.8043   -1.0953   -0.2113 H   0  0  0  0  0  0  0  0  0  0  0  0
    4.5396   -2.2793   -1.4811 H   0  0  0  0  0  0  0  0  0  0  0  0
    5.2408   -2.9645    1.3312 H   0  0  0  0  0  0  0  0  0  0  0  0
    2.8020   -5.6989    0.6218 H   0  0  0  0  0  0  0  0  0  0  0  0
    3.1081   -8.8443    1.5820 H   0  0  0  0  0  0  0  0  0  0  0  0
    4.4253   -8.6140    0.4002 H   0  0  0  0  0  0  0  0  0  0  0  0
    1.8619   -7.4095    0.2610 H   0  0  0  0  0  0  0  0  0  0  0  0
    6.8080   -3.7597    3.4812 H   0  0  0  0  0  0  0  0  0  0  0  0
    5.4606   -6.9581    5.0954 H   0  0  0  0  0  0  0  0  0  0  0  0
    6.4503   -6.8572    1.3059 H   0  0  0  0  0  0  0  0  0  0  0  0
    1.8022   -3.1969   -3.1865 H   0  0  0  0  0  0  0  0  0  0  0  0
    0.9170   -1.4734    0.5774 H   0  0  0  0  0  0  0  0  0  0  0  0
    3.8173   -4.6724   -0.9494 H   0  0  0  0  0  0  0  0  0  0  0  0
  1  2  1  0  0  0  0
  1 33  1  0  0  0  0
  2  3  1  0  0  0  0
  2 34  1  0  0  0  0
  2 35  1  0  0  0  0
  3  4  1  6  0  0  0
  3  5  1  0  0  0  0
  3 28  1  0  0  0  0
  5  6  1  0  0  0  0
  5 36  1  0  0  0  0
  5 37  1  0  0  0  0
  6  7  1  1  0  0  0
  6  8  1  0  0  0  0
  6 24  1  0  0  0  0
  8  9  1  0  0  0  0
  8 38  1  0  0  0  0
  9 10  1  1  0  0  0
  9 11  1  0  0  0  0
  9 19  1  0  0  0  0
 11 12  2  0  0  0  0
 11 39  1  0  0  0  0
 12 13  1  0  0  0  0
 12 15  1  0  0  0  0
 13 14  1  0  0  0  0
 13 40  1  0  0  0  0
 13 41  1  0  0  0  0
 14 42  1  0  0  0  0
 15 17  1  0  0  0  0
 15 23  1  0  0  0  0
 15 16  1  1  0  0  0
 17 18  1  6  0  0  0
 17 19  1  0  0  0  0
 17 22  1  0  0  0  0
 19 20  1  1  0  0  0
 19 21  1  0  0  0  0
 21 43  1  0  0  0  0
 22 44  1  0  0  0  0
 23 45  1  0  0  0  0
 24 25  1  1  0  0  0
 24 26  1  0  0  0  0
 24 32  1  0  0  0  0
 26 28  1  0  0  0  0
 26 31  1  0  0  0  0
 26 27  1  6  0  0  0
 28 29  1  6  0  0  0
 28 30  1  0  0  0  0
 30 46  1  0  0  0  0
 31 47  1  0  0  0  0
 32 48  1  0  0  0  0
M  END
$$$$
