VDN
 OpenBabel04121316203D

 66 69  0  0  0  0  0  0  0  0999 V2000
    0.9516    0.0848    0.0766 C   0  0  0  0  0  0  0  0  0  0  0  0
    2.4650    0.1439    0.0910 C   0  0  0  0  0  0  0  0  0  0  0  0
    2.9576   -1.1672   -0.0987 O   0  0  0  0  0  0  0  0  0  0  0  0
    4.3016   -1.3626   -0.2047 C   0  0  0  0  0  0  0  0  0  0  0  0
    5.2262   -0.3135   -0.2458 C   0  0  0  0  0  0  0  0  0  0  0  0
    6.5615   -0.5457   -0.5723 C   0  0  0  0  0  0  0  0  0  0  0  0
    7.0105   -1.8466   -0.7512 C   0  0  0  0  0  0  0  0  0  0  0  0
    6.1430   -2.9186   -0.4849 C   0  0  0  0  0  0  0  0  0  0  0  0
    4.7529   -2.6888   -0.3056 C   0  0  0  0  0  0  0  0  0  0  0  0
    3.7487   -3.8457   -0.2947 C   0  0  0  0  0  0  0  0  0  0  0  0
    2.4735   -3.6066   -0.3294 N   0  0  0  0  0  0  0  0  0  0  0  0
    1.5170   -4.6019   -0.3501 C   0  0  0  0  0  0  0  0  0  0  0  0
    0.3258   -4.3793   -0.3757 O   0  0  0  0  0  0  0  0  0  0  0  0
    2.0628   -5.9216   -0.3455 C   0  0  0  0  0  0  0  0  0  0  0  0
    3.3935   -6.1338   -0.3157 N   0  0  0  0  0  0  0  0  0  0  0  0
    4.2649   -5.1058   -0.2734 N   0  0  0  0  0  0  0  0  0  0  0  0
    5.2445   -5.2716   -0.2969 H   0  0  0  0  0  0  0  0  0  0  0  0
    3.5992   -7.4948   -0.3114 C   0  0  0  0  0  0  0  0  0  0  0  0
    4.8959   -8.2005   -0.2638 C   0  0  0  0  0  0  0  0  0  0  0  0
    6.1194   -7.3347   -0.1887 C   0  0  0  0  0  0  0  0  0  0  0  0
    7.3056   -8.2502   -0.0508 C   0  0  0  0  0  0  0  0  0  0  0  0
    2.4479   -8.1384   -0.3418 N   0  0  0  0  0  0  0  0  0  0  0  0
    1.4830   -7.1668   -0.3607 C   0  0  0  0  0  0  0  0  0  0  0  0
    0.0523   -7.5133   -0.3882 C   0  0  0  0  0  0  0  0  0  0  0  0
    8.7046   -2.0665   -1.3413 S   0  0  0  0  0  0  0  0  0  0  0  0
    8.6878   -1.9867   -2.7770 O   0  0  0  0  0  0  0  0  0  0  0  0
    9.5125   -1.1685   -0.5326 O   0  0  0  0  0  0  0  0  0  0  0  0
    9.0431   -3.6142   -0.8175 N   0  0  0  0  0  0  0  0  0  0  0  0
    9.5458   -3.5849    0.5692 C   0  0  0  0  0  0  0  0  0  0  0  0
    9.0669   -4.7899    1.3356 C   0  0  0  0  0  0  0  0  0  0  0  0
    9.5727   -6.0078    0.7062 N   0  0  0  0  0  0  0  0  0  0  0  0
    9.1445   -6.0130   -0.7242 C   0  0  0  0  0  0  0  0  0  0  0  0
    9.5038   -4.8013   -1.5967 C   0  0  0  0  0  0  0  0  0  0  0  0
   11.0287   -6.0924    0.8323 C   0  0  0  0  0  0  0  0  0  0  0  0
   11.5074   -7.4825    0.4764 C   0  0  0  0  0  0  0  0  0  0  0  0
    0.5365    1.0782    0.2616 H   0  0  0  0  0  0  0  0  0  0  0  0
    0.5812   -0.6086    0.8387 H   0  0  0  0  0  0  0  0  0  0  0  0
    0.5864   -0.2799   -0.8899 H   0  0  0  0  0  0  0  0  0  0  0  0
    2.8096    0.5087    1.0628 H   0  0  0  0  0  0  0  0  0  0  0  0
    2.8005    0.8035   -0.7157 H   0  0  0  0  0  0  0  0  0  0  0  0
    4.9189    0.7126   -0.0795 H   0  0  0  0  0  0  0  0  0  0  0  0
    7.2362    0.2953   -0.7082 H   0  0  0  0  0  0  0  0  0  0  0  0
    6.5631   -3.9140   -0.4466 H   0  0  0  0  0  0  0  0  0  0  0  0
    4.9850   -8.8394   -1.1502 H   0  0  0  0  0  0  0  0  0  0  0  0
    4.8970   -8.8553    0.6144 H   0  0  0  0  0  0  0  0  0  0  0  0
    6.0912   -6.6675    0.6836 H   0  0  0  0  0  0  0  0  0  0  0  0
    6.1952   -6.7230   -1.1020 H   0  0  0  0  0  0  0  0  0  0  0  0
    7.1515   -9.0139    0.7048 H   0  0  0  0  0  0  0  0  0  0  0  0
    8.1478   -7.7212    0.3482 H   0  0  0  0  0  0  0  0  0  0  0  0
    7.5686   -8.6706   -1.0243 H   0  0  0  0  0  0  0  0  0  0  0  0
   -0.0906   -8.5973   -0.3920 H   0  0  0  0  0  0  0  0  0  0  0  0
   -0.4114   -7.0974   -1.2868 H   0  0  0  0  0  0  0  0  0  0  0  0
   -0.4457   -7.0997    0.4931 H   0  0  0  0  0  0  0  0  0  0  0  0
    9.1516   -2.7321    1.1170 H   0  0  0  0  0  0  0  0  0  0  0  0
   10.6348   -3.4994    0.5178 H   0  0  0  0  0  0  0  0  0  0  0  0
    7.9668   -4.8065    1.3521 H   0  0  0  0  0  0  0  0  0  0  0  0
    9.3820   -4.6881    2.3786 H   0  0  0  0  0  0  0  0  0  0  0  0
    8.0565   -5.9719   -0.7161 H   0  0  0  0  0  0  0  0  0  0  0  0
    9.4096   -6.9624   -1.2029 H   0  0  0  0  0  0  0  0  0  0  0  0
    8.9832   -4.9652   -2.5506 H   0  0  0  0  0  0  0  0  0  0  0  0
   10.5821   -4.8312   -1.7751 H   0  0  0  0  0  0  0  0  0  0  0  0
   11.3346   -5.8630    1.8616 H   0  0  0  0  0  0  0  0  0  0  0  0
   11.5346   -5.3708    0.1854 H   0  0  0  0  0  0  0  0  0  0  0  0
   11.1018   -8.2205    1.1740 H   0  0  0  0  0  0  0  0  0  0  0  0
   12.5978   -7.5086    0.5120 H   0  0  0  0  0  0  0  0  0  0  0  0
   11.2118   -7.7657   -0.5370 H   0  0  0  0  0  0  0  0  0  0  0  0
  1  2  1  0  0  0  0
  1 36  1  0  0  0  0
  1 37  1  0  0  0  0
  1 38  1  0  0  0  0
  2  3  1  0  0  0  0
  2 39  1  0  0  0  0
  2 40  1  0  0  0  0
  3  4  1  0  0  0  0
  4  5  2  0  0  0  0
  4  9  1  0  0  0  0
  5  6  1  0  0  0  0
  5 41  1  0  0  0  0
  6  7  2  0  0  0  0
  6 42  1  0  0  0  0
  7  8  1  0  0  0  0
  7 25  1  0  0  0  0
  8  9  2  0  0  0  0
  8 43  1  0  0  0  0
  9 10  1  0  0  0  0
 10 11  2  0  0  0  0
 10 16  1  0  0  0  0
 11 12  1  0  0  0  0
 12 13  2  0  0  0  0
 12 14  1  0  0  0  0
 14 15  1  0  0  0  0
 14 23  2  0  0  0  0
 15 16  1  0  0  0  0
 15 18  1  0  0  0  0
 16 17  1  0  0  0  0
 18 19  1  0  0  0  0
 18 22  2  0  0  0  0
 19 20  1  0  0  0  0
 19 44  1  0  0  0  0
 19 45  1  0  0  0  0
 20 21  1  0  0  0  0
 20 46  1  0  0  0  0
 20 47  1  0  0  0  0
 21 48  1  0  0  0  0
 21 49  1  0  0  0  0
 21 50  1  0  0  0  0
 22 23  1  0  0  0  0
 23 24  1  0  0  0  0
 24 51  1  0  0  0  0
 24 52  1  0  0  0  0
 24 53  1  0  0  0  0
 25 26  2  0  0  0  0
 25 27  2  0  0  0  0
 25 28  1  0  0  0  0
 28 29  1  0  0  0  0
 28 33  1  0  0  0  0
 29 30  1  0  0  0  0
 29 54  1  0  0  0  0
 29 55  1  0  0  0  0
 30 31  1  0  0  0  0
 30 56  1  0  0  0  0
 30 57  1  0  0  0  0
 31 32  1  0  0  0  0
 31 34  1  0  0  0  0
 32 33  1  0  0  0  0
 32 58  1  0  0  0  0
 32 59  1  0  0  0  0
 33 60  1  0  0  0  0
 33 61  1  0  0  0  0
 34 35  1  0  0  0  0
 34 62  1  0  0  0  0
 34 63  1  0  0  0  0
 35 64  1  0  0  0  0
 35 65  1  0  0  0  0
 35 66  1  0  0  0  0
M  END
$$$$
