VG0
 OpenBabel04121316203D

 87 89  0  0  1  0  0  0  0  0999 V2000
    6.1100   -1.9898   -8.5372 C   0  0  0  0  0  0  0  0  0  0  0  0
    6.4549   -1.1833   -7.3133 C   0  0  0  0  0  0  0  0  0  0  0  0
    7.3770   -1.9501   -6.5024 N   0  0  0  0  0  0  0  0  0  0  0  0
    7.8244   -1.4309   -5.3098 C   0  0  0  0  0  0  0  0  0  0  0  0
    8.0701   -0.0596   -5.2288 C   0  0  0  0  0  0  0  0  0  0  0  0
    8.5071    0.4508   -4.0470 C   0  0  0  0  0  0  0  0  0  0  0  0
    8.7306   -0.4403   -3.0195 C   0  0  0  0  0  0  0  0  0  0  0  0
    8.4571   -1.7695   -2.9942 C   0  0  0  0  0  0  0  0  0  0  0  0
    7.9625   -2.2732   -4.1711 C   0  0  0  0  0  0  0  0  0  0  0  0
    8.7587   -2.4571   -1.7940 N   0  0  0  0  0  0  0  0  0  0  0  0
    9.7930   -2.0571   -0.8522 C   0  0  0  0  0  0  0  0  0  0  0  0
   10.1800   -3.3676   -0.2216 C   0  0  0  0  0  0  0  0  0  0  0  0
    8.8465   -4.1005   -0.1374 C   0  0  0  0  0  0  0  0  0  0  0  0
    8.0035   -3.4775   -1.2352 C   0  0  0  0  0  0  0  0  0  0  0  0
    6.8601   -3.7986   -1.5114 O   0  0  0  0  0  0  0  0  0  0  0  0
    8.6168    1.9039   -3.8978 C   0  0  0  0  0  0  0  0  0  0  0  0
    8.4204    2.6462   -4.8421 O   0  0  0  0  0  0  0  0  0  0  0  0
    8.8387    2.4254   -2.6468 N   0  0  0  0  0  0  0  0  0  0  0  0
    9.5615    1.7971   -1.4402 C   0  0  2  0  0  0  0  0  0  0  0  0
    8.8137    1.0784   -1.1114 H   0  0  0  0  0  0  0  0  0  0  0  0
    9.5405    2.6857   -0.1412 C   0  0  1  0  0  0  0  0  0  0  0  0
    9.7564    1.9999    0.6876 H   0  0  0  0  0  0  0  0  0  0  0  0
   10.4211    3.9835    0.0420 C   0  0  0  0  0  0  0  0  0  0  0  0
   11.8880    3.8280    0.1087 N   0  0  0  0  0  0  0  0  0  0  0  0
   12.8723    4.9889   -0.3315 C   0  0  0  0  0  0  0  0  0  0  0  0
   12.6688    6.1835   -1.8403 C   0  0  0  0  0  0  0  0  0  0  0  0
   12.7397    5.7903   -3.6970 C   0  0  0  0  0  0  0  0  0  0  0  0
   11.8819    6.0580   -4.8853 C   0  0  0  0  0  0  0  0  0  0  0  0
   12.0954    4.7904   -5.9555 C   0  0  0  0  0  0  0  0  0  0  0  0
   11.2696    3.4844   -5.7800 C   0  0  0  0  0  0  0  0  0  0  0  0
   11.7190    5.4459   -7.2445 C   0  0  0  0  0  0  0  0  0  0  0  0
   12.7024    5.8286    0.9062 C   0  0  0  0  0  0  0  0  0  0  0  0
   14.3425    4.3005   -0.1173 C   0  0  0  0  0  0  0  0  0  0  0  0
    8.1580    3.0944    0.0369 O   0  0  0  0  0  0  0  0  0  0  0  0
   11.0217    0.9755   -1.7966 C   0  0  0  0  0  0  0  0  0  0  0  0
   12.0680    1.8096   -2.4171 C   0  0  0  0  0  0  0  0  0  0  0  0
   11.5012    2.9258   -2.6216 C   0  0  0  0  0  0  0  0  0  0  0  0
   12.3668    3.8996   -2.3996 C   0  0  0  0  0  0  0  0  0  0  0  0
   13.7492    3.8451   -2.6186 C   0  0  0  0  0  0  0  0  0  0  0  0
   14.3236    2.6941   -2.8781 C   0  0  0  0  0  0  0  0  0  0  0  0
   13.4700    1.6117   -2.6529 C   0  0  0  0  0  0  0  0  0  0  0  0
    5.4075   -1.4377   -9.1641 H   0  0  0  0  0  0  0  0  0  0  0  0
    5.6623   -2.9446   -8.2478 H   0  0  0  0  0  0  0  0  0  0  0  0
    7.0165   -2.1963   -9.1153 H   0  0  0  0  0  0  0  0  0  0  0  0
    5.5484   -0.9534   -6.7386 H   0  0  0  0  0  0  0  0  0  0  0  0
    6.8920   -0.2329   -7.6415 H   0  0  0  0  0  0  0  0  0  0  0  0
    7.6028   -2.9082   -6.7268 H   0  0  0  0  0  0  0  0  0  0  0  0
    7.9466    0.6125   -6.0736 H   0  0  0  0  0  0  0  0  0  0  0  0
    9.1589   -0.1657   -2.1102 H   0  0  0  0  0  0  0  0  0  0  0  0
    7.7373   -3.3276   -4.2392 H   0  0  0  0  0  0  0  0  0  0  0  0
    9.3818   -1.3699   -0.0955 H   0  0  0  0  0  0  0  0  0  0  0  0
   10.6561   -1.5967   -1.3365 H   0  0  0  0  0  0  0  0  0  0  0  0
   10.6775   -3.2513    0.7456 H   0  0  0  0  0  0  0  0  0  0  0  0
   10.8665   -3.8979   -0.8932 H   0  0  0  0  0  0  0  0  0  0  0  0
    8.3817   -3.9541    0.8405 H   0  0  0  0  0  0  0  0  0  0  0  0
    8.9770   -5.1626   -0.3514 H   0  0  0  0  0  0  0  0  0  0  0  0
    8.8579    3.4400   -2.7761 H   0  0  0  0  0  0  0  0  0  0  0  0
   10.0991    4.4394    0.9881 H   0  0  0  0  0  0  0  0  0  0  0  0
   10.1047    4.7067   -0.7135 H   0  0  0  0  0  0  0  0  0  0  0  0
   12.1968    2.9345   -0.2761 H   0  0  0  0  0  0  0  0  0  0  0  0
   13.3944    6.9877   -1.7307 H   0  0  0  0  0  0  0  0  0  0  0  0
   11.6543    6.5779   -1.6704 H   0  0  0  0  0  0  0  0  0  0  0  0
   12.2572    4.8426   -3.9031 H   0  0  0  0  0  0  0  0  0  0  0  0
   13.7498    5.5537   -4.0776 H   0  0  0  0  0  0  0  0  0  0  0  0
   12.3140    6.9698   -5.2776 H   0  0  0  0  0  0  0  0  0  0  0  0
   10.8208    6.1136   -4.6233 H   0  0  0  0  0  0  0  0  0  0  0  0
   13.1465    4.4542   -5.9912 H   0  0  0  0  0  0  0  0  0  0  0  0
   10.2326    3.7407   -5.5951 H   0  0  0  0  0  0  0  0  0  0  0  0
   11.6125    2.8267   -4.9797 H   0  0  0  0  0  0  0  0  0  0  0  0
   11.3097    2.8259   -6.6621 H   0  0  0  0  0  0  0  0  0  0  0  0
   10.6840    5.7850   -7.1476 H   0  0  0  0  0  0  0  0  0  0  0  0
   11.8312    4.7797   -8.0962 H   0  0  0  0  0  0  0  0  0  0  0  0
   12.3764    6.3106   -7.3600 H   0  0  0  0  0  0  0  0  0  0  0  0
   11.6675    6.1637    0.9674 H   0  0  0  0  0  0  0  0  0  0  0  0
   13.3894    6.6631    0.8536 H   0  0  0  0  0  0  0  0  0  0  0  0
   12.9259    5.2208    1.7996 H   0  0  0  0  0  0  0  0  0  0  0  0
   14.5181    3.3586   -0.6462 H   0  0  0  0  0  0  0  0  0  0  0  0
   14.5304    3.8959    0.8865 H   0  0  0  0  0  0  0  0  0  0  0  0
   15.1435    4.9831   -0.4123 H   0  0  0  0  0  0  0  0  0  0  0  0
    7.5780    2.3360   -0.1682 H   0  0  0  0  0  0  0  0  0  0  0  0
   10.9400    0.2458   -2.5983 H   0  0  0  0  0  0  0  0  0  0  0  0
   11.4223    0.5585   -0.8778 H   0  0  0  0  0  0  0  0  0  0  0  0
   10.5447    3.3667   -2.4034 H   0  0  0  0  0  0  0  0  0  0  0  0
   11.6291    4.7082   -2.2517 H   0  0  0  0  0  0  0  0  0  0  0  0
   14.3772    4.7521   -2.5115 H   0  0  0  0  0  0  0  0  0  0  0  0
   15.4023    2.7337   -2.9709 H   0  0  0  0  0  0  0  0  0  0  0  0
   13.9449    0.6714   -2.5397 H   0  0  0  0  0  0  0  0  0  0  0  0
  1  2  1  0  0  0  0
  1 42  1  0  0  0  0
  1 43  1  0  0  0  0
  1 44  1  0  0  0  0
  2  3  1  0  0  0  0
  2 45  1  0  0  0  0
  2 46  1  0  0  0  0
  3  4  1  0  0  0  0
  3 47  1  0  0  0  0
  4  5  2  0  0  0  0
  4  9  1  0  0  0  0
  5  6  1  0  0  0  0
  5 48  1  0  0  0  0
  6  7  2  0  0  0  0
  6 16  1  0  0  0  0
  7  8  1  0  0  0  0
  7 49  1  0  0  0  0
  8  9  2  0  0  0  0
  8 10  1  0  0  0  0
  9 50  1  0  0  0  0
 10 11  1  0  0  0  0
 10 14  1  0  0  0  0
 11 12  1  0  0  0  0
 11 51  1  0  0  0  0
 11 52  1  0  0  0  0
 12 13  1  0  0  0  0
 12 53  1  0  0  0  0
 12 54  1  0  0  0  0
 13 14  1  0  0  0  0
 13 55  1  0  0  0  0
 13 56  1  0  0  0  0
 14 15  2  0  0  0  0
 16 17  2  0  0  0  0
 16 18  1  0  0  0  0
 18 57  1  0  0  0  0
 19 21  1  0  0  0  0
 19 35  1  0  0  0  0
 19 20  1  1  0  0  0
 19 18  1  0  0  0  0
 21 22  1  1  0  0  0
 21 23  1  0  0  0  0
 21 34  1  0  0  0  0
 23 24  1  0  0  0  0
 23 58  1  0  0  0  0
 23 59  1  0  0  0  0
 24 25  1  0  0  0  0
 24 60  1  0  0  0  0
 25 26  1  0  0  0  0
 25 32  1  0  0  0  0
 25 33  1  0  0  0  0
 26 27  1  0  0  0  0
 26 61  1  0  0  0  0
 26 62  1  0  0  0  0
 27 28  1  0  0  0  0
 27 63  1  0  0  0  0
 27 64  1  0  0  0  0
 28 29  1  0  0  0  0
 28 65  1  0  0  0  0
 28 66  1  0  0  0  0
 29 30  1  0  0  0  0
 29 31  1  0  0  0  0
 29 67  1  0  0  0  0
 30 68  1  0  0  0  0
 30 69  1  0  0  0  0
 30 70  1  0  0  0  0
 31 71  1  0  0  0  0
 31 72  1  0  0  0  0
 31 73  1  0  0  0  0
 32 74  1  0  0  0  0
 32 75  1  0  0  0  0
 32 76  1  0  0  0  0
 33 77  1  0  0  0  0
 33 78  1  0  0  0  0
 33 79  1  0  0  0  0
 34 80  1  0  0  0  0
 35 36  1  0  0  0  0
 35 81  1  0  0  0  0
 35 82  1  0  0  0  0
 36 37  2  0  0  0  0
 36 41  1  0  0  0  0
 37 38  1  0  0  0  0
 37 83  1  0  0  0  0
 38 39  2  0  0  0  0
 38 84  1  0  0  0  0
 39 40  1  0  0  0  0
 39 85  1  0  0  0  0
 40 41  2  0  0  0  0
 40 86  1  0  0  0  0
 41 87  1  0  0  0  0
M  END
$$$$
