VG2
 OpenBabel04121316203D

 56 58  0  0  0  0  0  0  0  0999 V2000
    0.9820   -0.0676   -0.0533 N   0  0  0  0  0  0  0  0  0  0  0  0
    2.4406   -0.0750   -0.0749 C   0  0  0  0  0  0  0  0  0  0  0  0
    2.9890   -0.0735   -1.5001 C   0  0  0  0  0  0  0  0  0  0  0  0
    4.4147   -0.1295   -1.3856 O   0  0  0  0  0  0  0  0  0  0  0  0
    5.0033   -0.0806   -2.6173 C   0  0  0  0  0  0  0  0  0  0  0  0
    5.3302    1.1559   -3.1743 C   0  0  0  0  0  0  0  0  0  0  0  0
    4.9929    2.4757   -2.5548 C   0  0  0  0  0  0  0  0  0  0  0  0
    6.0228    1.1646   -4.3777 C   0  0  0  0  0  0  0  0  0  0  0  0
    6.4001   -0.0293   -5.0128 C   0  0  0  0  0  0  0  0  0  0  0  0
    6.0732   -1.2546   -4.4445 C   0  0  0  0  0  0  0  0  0  0  0  0
    5.3726   -1.2872   -3.2370 C   0  0  0  0  0  0  0  0  0  0  0  0
    5.0396   -2.6117   -2.6233 C   0  0  0  0  0  0  0  0  0  0  0  0
    7.1484    0.1220   -6.2686 C   0  0  0  0  0  0  0  0  0  0  0  0
    7.3537    1.2895   -6.6070 O   0  0  0  0  0  0  0  0  0  0  0  0
    7.5600   -1.0080   -6.9558 N   0  0  0  0  0  0  0  0  0  0  0  0
    8.2749   -0.9623   -8.1744 C   0  0  0  0  0  0  0  0  0  0  0  0
    8.5809    0.2494   -8.7895 C   0  0  0  0  0  0  0  0  0  0  0  0
    9.2645    0.2952   -9.9854 C   0  0  0  0  0  0  0  0  0  0  0  0
    9.6201    1.8306  -10.6730 Cl  0  0  0  0  0  0  0  0  0  0  0  0
    9.6522   -0.8795  -10.6045 C   0  0  0  0  0  0  0  0  0  0  0  0
    9.3740   -2.1216  -10.0208 C   0  0  0  0  0  0  0  0  0  0  0  0
    8.6831   -2.1495   -8.7918 C   0  0  0  0  0  0  0  0  0  0  0  0
    9.7506   -3.2933  -10.6403 N   0  0  0  0  0  0  0  0  0  0  0  0
   10.6401   -4.2341   -9.9701 C   0  0  0  0  0  0  0  0  0  0  0  0
   10.0079   -5.6190  -10.0596 C   0  0  0  0  0  0  0  0  0  0  0  0
    9.7319   -5.9862  -11.5189 C   0  0  0  0  0  0  0  0  0  0  0  0
    8.8495   -4.9237  -12.1800 C   0  0  0  0  0  0  0  0  0  0  0  0
    9.4837   -3.5336  -12.0561 C   0  0  0  0  0  0  0  0  0  0  0  0
    0.6640   -0.1073    0.9140 H   0  0  0  0  0  0  0  0  0  0  0  0
    0.6320   -0.9116   -0.5051 H   0  0  0  0  0  0  0  0  0  0  0  0
    2.8189   -0.9546    0.4604 H   0  0  0  0  0  0  0  0  0  0  0  0
    2.8261    0.7987    0.4639 H   0  0  0  0  0  0  0  0  0  0  0  0
    2.6639    0.8317   -2.0284 H   0  0  0  0  0  0  0  0  0  0  0  0
    2.6176   -0.9495   -2.0448 H   0  0  0  0  0  0  0  0  0  0  0  0
    4.4641    2.3660   -1.6070 H   0  0  0  0  0  0  0  0  0  0  0  0
    4.3536    3.0471   -3.2371 H   0  0  0  0  0  0  0  0  0  0  0  0
    5.9097    3.0431   -2.3643 H   0  0  0  0  0  0  0  0  0  0  0  0
    6.2876    2.1263   -4.8214 H   0  0  0  0  0  0  0  0  0  0  0  0
    6.3590   -2.1914   -4.9054 H   0  0  0  0  0  0  0  0  0  0  0  0
    5.4091   -3.4382   -3.2393 H   0  0  0  0  0  0  0  0  0  0  0  0
    3.9555   -2.7246   -2.5445 H   0  0  0  0  0  0  0  0  0  0  0  0
    5.5002   -2.6920   -1.6356 H   0  0  0  0  0  0  0  0  0  0  0  0
    7.3559   -1.9268   -6.5892 H   0  0  0  0  0  0  0  0  0  0  0  0
    8.3007    1.2047   -8.3732 H   0  0  0  0  0  0  0  0  0  0  0  0
   10.2031   -0.8192  -11.5351 H   0  0  0  0  0  0  0  0  0  0  0  0
    8.4412   -3.1142   -8.3497 H   0  0  0  0  0  0  0  0  0  0  0  0
   10.8242   -3.9721   -8.9222 H   0  0  0  0  0  0  0  0  0  0  0  0
   11.6161   -4.2355  -10.4739 H   0  0  0  0  0  0  0  0  0  0  0  0
    9.0606   -5.6191   -9.5052 H   0  0  0  0  0  0  0  0  0  0  0  0
   10.6631   -6.3641   -9.5992 H   0  0  0  0  0  0  0  0  0  0  0  0
    9.2456   -6.9657  -11.5678 H   0  0  0  0  0  0  0  0  0  0  0  0
   10.6810   -6.0634  -12.0641 H   0  0  0  0  0  0  0  0  0  0  0  0
    7.8691   -4.9194  -11.6849 H   0  0  0  0  0  0  0  0  0  0  0  0
    8.6811   -5.1748  -13.2320 H   0  0  0  0  0  0  0  0  0  0  0  0
    8.7998   -2.7897  -12.4821 H   0  0  0  0  0  0  0  0  0  0  0  0
   10.4179   -3.4928  -12.6293 H   0  0  0  0  0  0  0  0  0  0  0  0
  1  2  1  0  0  0  0
  1 29  1  0  0  0  0
  1 30  1  0  0  0  0
  2  3  1  0  0  0  0
  2 31  1  0  0  0  0
  2 32  1  0  0  0  0
  3  4  1  0  0  0  0
  3 33  1  0  0  0  0
  3 34  1  0  0  0  0
  4  5  1  0  0  0  0
  5  6  2  0  0  0  0
  5 11  1  0  0  0  0
  6  7  1  0  0  0  0
  6  8  1  0  0  0  0
  7 35  1  0  0  0  0
  7 36  1  0  0  0  0
  7 37  1  0  0  0  0
  8  9  2  0  0  0  0
  8 38  1  0  0  0  0
  9 10  1  0  0  0  0
  9 13  1  0  0  0  0
 10 11  2  0  0  0  0
 10 39  1  0  0  0  0
 11 12  1  0  0  0  0
 12 40  1  0  0  0  0
 12 41  1  0  0  0  0
 12 42  1  0  0  0  0
 13 14  2  0  0  0  0
 13 15  1  0  0  0  0
 15 16  1  0  0  0  0
 15 43  1  0  0  0  0
 16 17  2  0  0  0  0
 16 22  1  0  0  0  0
 17 18  1  0  0  0  0
 17 44  1  0  0  0  0
 18 19  1  0  0  0  0
 18 20  2  0  0  0  0
 20 21  1  0  0  0  0
 20 45  1  0  0  0  0
 21 22  2  0  0  0  0
 21 23  1  0  0  0  0
 22 46  1  0  0  0  0
 23 24  1  0  0  0  0
 23 28  1  0  0  0  0
 24 25  1  0  0  0  0
 24 47  1  0  0  0  0
 24 48  1  0  0  0  0
 25 26  1  0  0  0  0
 25 49  1  0  0  0  0
 25 50  1  0  0  0  0
 26 27  1  0  0  0  0
 26 51  1  0  0  0  0
 26 52  1  0  0  0  0
 27 28  1  0  0  0  0
 27 53  1  0  0  0  0
 27 54  1  0  0  0  0
 28 55  1  0  0  0  0
 28 56  1  0  0  0  0
M  END
$$$$
