VG4
 OpenBabel04121316203D

 86 89  0  0  1  0  0  0  0  0999 V2000
    5.5723   17.7586   -1.3014 C   0  0  0  0  0  0  0  0  0  0  0  0
    5.7655   16.2577   -1.2775 C   0  0  0  0  0  0  0  0  0  0  0  0
    5.4994   15.6449   -2.6423 C   0  0  0  0  0  0  0  0  0  0  0  0
    5.6697   14.2307   -2.4913 O   0  0  0  0  0  0  0  0  0  0  0  0
    5.4669   13.6126   -3.6899 C   0  0  0  0  0  0  0  0  0  0  0  0
    6.5234   13.5034   -4.5813 C   0  0  0  0  0  0  0  0  0  0  0  0
    6.2701   12.8925   -5.7978 C   0  0  0  0  0  0  0  0  0  0  0  0
    4.9684   12.4717   -6.1028 C   0  0  0  0  0  0  0  0  0  0  0  0
    3.9650   12.3948   -5.1616 C   0  0  0  0  0  0  0  0  0  0  0  0
    4.2149   13.0303   -3.9477 C   0  0  0  0  0  0  0  0  0  0  0  0
    2.7489   11.6815   -5.3983 N   0  0  0  0  0  0  0  0  0  0  0  0
    1.5347   12.1684   -5.0251 C   0  0  0  0  0  0  0  0  0  0  0  0
    0.5789   11.2547   -5.1810 C   0  0  0  0  0  0  0  0  0  0  0  0
    1.1485    9.9505   -5.6257 C   0  0  0  0  0  0  0  0  0  0  0  0
    2.5332   10.4276   -6.0280 C   0  0  0  0  0  0  0  0  0  0  0  0
    3.2806    9.7552   -6.7188 O   0  0  0  0  0  0  0  0  0  0  0  0
    7.3734   12.7095   -6.7501 C   0  0  0  0  0  0  0  0  0  0  0  0
    8.4511   13.2738   -6.5675 O   0  0  0  0  0  0  0  0  0  0  0  0
    7.2162   11.9629   -7.8733 N   0  0  0  0  0  0  0  0  0  0  0  0
    6.3249   10.8472   -8.3063 C   0  0  2  0  0  0  0  0  0  0  0  0
    5.3705   11.3145   -8.5921 H   0  0  0  0  0  0  0  0  0  0  0  0
    5.9835    9.6601   -7.2569 C   0  0  1  0  0  0  0  0  0  0  0  0
    5.1798    9.0411   -7.6581 H   0  0  0  0  0  0  0  0  0  0  0  0
    7.0678    8.7250   -6.8186 C   0  0  0  0  0  0  0  0  0  0  0  0
    7.4906    7.7149   -7.7958 N   0  0  0  0  0  0  0  0  0  0  0  0
    8.8542    7.1552   -7.5665 C   0  0  2  0  0  0  0  0  0  0  0  0
    8.7989    6.1643   -7.1263 H   0  0  0  0  0  0  0  0  0  0  0  0
    9.6442    8.0941   -6.3555 C   0  0  0  0  0  0  0  0  0  0  0  0
   10.7674    8.5438   -6.6108 O   0  0  0  0  0  0  0  0  0  0  0  0
    9.3529    8.7030   -5.1862 N   0  0  0  0  0  0  0  0  0  0  0  0
   10.4153    9.6541   -4.5528 C   0  0  0  0  0  0  0  0  0  0  0  0
   11.7942    8.8933   -4.3851 C   0  0  0  0  0  0  0  0  0  0  0  0
   12.7182    8.7756   -5.6426 C   0  0  0  0  0  0  0  0  0  0  0  0
   12.7983   10.1486   -6.4005 C   0  0  0  0  0  0  0  0  0  0  0  0
   11.5465   11.0841   -6.4819 C   0  0  0  0  0  0  0  0  0  0  0  0
   10.6921   11.0671   -5.2138 C   0  0  0  0  0  0  0  0  0  0  0  0
    9.5973    6.7998   -9.1447 C   0  0  0  0  0  0  0  0  0  0  0  0
    5.6349   10.1009   -5.9382 O   0  0  0  0  0  0  0  0  0  0  0  0
    6.9029   10.3447   -9.6713 C   0  0  0  0  0  0  0  0  0  0  0  0
    8.4157   10.1824   -9.7197 C   0  0  0  0  0  0  0  0  0  0  0  0
    9.1158    9.8690   -8.6213 C   0  0  0  0  0  0  0  0  0  0  0  0
   10.3916    9.3458   -8.6837 C   0  0  0  0  0  0  0  0  0  0  0  0
   11.3402    9.5437   -9.5581 C   0  0  0  0  0  0  0  0  0  0  0  0
   10.6880    9.8093  -10.7051 C   0  0  0  0  0  0  0  0  0  0  0  0
    9.2617   10.1405  -10.8053 C   0  0  0  0  0  0  0  0  0  0  0  0
    5.7639   18.1808   -0.3111 H   0  0  0  0  0  0  0  0  0  0  0  0
    4.5477   18.0111   -1.5916 H   0  0  0  0  0  0  0  0  0  0  0  0
    6.2583   18.2259   -2.0147 H   0  0  0  0  0  0  0  0  0  0  0  0
    5.0971   15.8017   -0.5373 H   0  0  0  0  0  0  0  0  0  0  0  0
    6.7856   16.0118   -0.9585 H   0  0  0  0  0  0  0  0  0  0  0  0
    6.2001   16.0576   -3.3816 H   0  0  0  0  0  0  0  0  0  0  0  0
    4.4729   15.8686   -2.9618 H   0  0  0  0  0  0  0  0  0  0  0  0
    7.5110   13.8968   -4.3456 H   0  0  0  0  0  0  0  0  0  0  0  0
    4.7386   12.0686   -7.0642 H   0  0  0  0  0  0  0  0  0  0  0  0
    3.4610   13.0438   -3.1703 H   0  0  0  0  0  0  0  0  0  0  0  0
    1.4427   13.2019   -4.7389 H   0  0  0  0  0  0  0  0  0  0  0  0
   -0.4671   11.4355   -5.0133 H   0  0  0  0  0  0  0  0  0  0  0  0
    0.6111    9.5000   -6.4619 H   0  0  0  0  0  0  0  0  0  0  0  0
    1.2277    9.2431   -4.7904 H   0  0  0  0  0  0  0  0  0  0  0  0
    8.0315   12.1167   -8.4600 H   0  0  0  0  0  0  0  0  0  0  0  0
    6.8386    8.1940   -5.8929 H   0  0  0  0  0  0  0  0  0  0  0  0
    7.7210    9.5130   -6.4065 H   0  0  0  0  0  0  0  0  0  0  0  0
    7.4601    8.0959   -8.7411 H   0  0  0  0  0  0  0  0  0  0  0  0
    8.4854    8.5055   -4.7158 H   0  0  0  0  0  0  0  0  0  0  0  0
    9.9809    9.8698   -3.5692 H   0  0  0  0  0  0  0  0  0  0  0  0
   11.5500    7.8831   -4.0386 H   0  0  0  0  0  0  0  0  0  0  0  0
   12.3947    9.4050   -3.6322 H   0  0  0  0  0  0  0  0  0  0  0  0
   12.4094    7.9033   -6.2588 H   0  0  0  0  0  0  0  0  0  0  0  0
   13.7081    8.3581   -5.4405 H   0  0  0  0  0  0  0  0  0  0  0  0
   13.2106    9.9957   -7.4069 H   0  0  0  0  0  0  0  0  0  0  0  0
   13.5414   10.7243   -5.8454 H   0  0  0  0  0  0  0  0  0  0  0  0
   10.8561   10.8759   -7.2787 H   0  0  0  0  0  0  0  0  0  0  0  0
   11.8368   12.0977   -6.8178 H   0  0  0  0  0  0  0  0  0  0  0  0
    9.7448   11.5829   -5.3980 H   0  0  0  0  0  0  0  0  0  0  0  0
   11.2494   11.6990   -4.5055 H   0  0  0  0  0  0  0  0  0  0  0  0
   10.6770    6.5371   -9.0881 H   0  0  0  0  0  0  0  0  0  0  0  0
    9.6243    7.6429   -9.8449 H   0  0  0  0  0  0  0  0  0  0  0  0
    9.0553    6.1706   -9.8659 H   0  0  0  0  0  0  0  0  0  0  0  0
    4.6692   10.1486   -5.9384 H   0  0  0  0  0  0  0  0  0  0  0  0
    6.6711   11.0967  -10.4308 H   0  0  0  0  0  0  0  0  0  0  0  0
    6.3349    9.4439   -9.9473 H   0  0  0  0  0  0  0  0  0  0  0  0
    8.6899    9.7595   -7.6773 H   0  0  0  0  0  0  0  0  0  0  0  0
   10.6409    8.3784   -8.2832 H   0  0  0  0  0  0  0  0  0  0  0  0
   12.2249    8.9513   -9.3106 H   0  0  0  0  0  0  0  0  0  0  0  0
   11.2101    9.3749  -11.5326 H   0  0  0  0  0  0  0  0  0  0  0  0
    8.8199   10.2032  -11.7778 H   0  0  0  0  0  0  0  0  0  0  0  0
  1  2  1  0  0  0  0
  1 46  1  0  0  0  0
  1 47  1  0  0  0  0
  1 48  1  0  0  0  0
  2  3  1  0  0  0  0
  2 49  1  0  0  0  0
  2 50  1  0  0  0  0
  3  4  1  0  0  0  0
  3 51  1  0  0  0  0
  3 52  1  0  0  0  0
  4  5  1  0  0  0  0
  5  6  2  0  0  0  0
  5 10  1  0  0  0  0
  6  7  1  0  0  0  0
  6 53  1  0  0  0  0
  7  8  2  0  0  0  0
  7 17  1  0  0  0  0
  8  9  1  0  0  0  0
  8 54  1  0  0  0  0
  9 10  2  0  0  0  0
  9 11  1  0  0  0  0
 10 55  1  0  0  0  0
 11 12  1  0  0  0  0
 11 15  1  0  0  0  0
 12 13  2  0  0  0  0
 12 56  1  0  0  0  0
 13 14  1  0  0  0  0
 13 57  1  0  0  0  0
 14 15  1  0  0  0  0
 14 58  1  0  0  0  0
 14 59  1  0  0  0  0
 15 16  2  0  0  0  0
 17 18  2  0  0  0  0
 17 19  1  0  0  0  0
 19 60  1  0  0  0  0
 20 22  1  0  0  0  0
 20 39  1  0  0  0  0
 20 21  1  6  0  0  0
 20 19  1  0  0  0  0
 22 23  1  6  0  0  0
 22 24  1  0  0  0  0
 22 38  1  0  0  0  0
 24 25  1  0  0  0  0
 24 61  1  0  0  0  0
 24 62  1  0  0  0  0
 25 63  1  0  0  0  0
 26 28  1  0  0  0  0
 26 37  1  0  0  0  0
 26 27  1  1  0  0  0
 26 25  1  0  0  0  0
 28 29  2  0  0  0  0
 28 30  1  0  0  0  0
 30 31  1  0  0  0  0
 30 64  1  0  0  0  0
 31 32  1  0  0  0  0
 31 36  1  0  0  0  0
 31 65  1  0  0  0  0
 32 33  1  0  0  0  0
 32 66  1  0  0  0  0
 32 67  1  0  0  0  0
 33 34  1  0  0  0  0
 33 68  1  0  0  0  0
 33 69  1  0  0  0  0
 34 35  1  0  0  0  0
 34 70  1  0  0  0  0
 34 71  1  0  0  0  0
 35 36  1  0  0  0  0
 35 72  1  0  0  0  0
 35 73  1  0  0  0  0
 36 74  1  0  0  0  0
 36 75  1  0  0  0  0
 37 76  1  0  0  0  0
 37 77  1  0  0  0  0
 37 78  1  0  0  0  0
 38 79  1  0  0  0  0
 39 40  1  0  0  0  0
 39 80  1  0  0  0  0
 39 81  1  0  0  0  0
 40 41  2  0  0  0  0
 40 45  1  0  0  0  0
 41 42  1  0  0  0  0
 41 82  1  0  0  0  0
 42 43  2  0  0  0  0
 42 83  1  0  0  0  0
 43 44  1  0  0  0  0
 43 84  1  0  0  0  0
 44 45  2  0  0  0  0
 44 85  1  0  0  0  0
 45 86  1  0  0  0  0
M  END
$$$$
