VG6
 OpenBabel04121316203D

 76 79  0  0  1  0  0  0  0  0999 V2000
    6.5523   -0.3517   -4.4039 C   0  0  0  0  0  0  0  0  0  0  0  0
    7.1726    0.1278   -3.1150 C   0  0  0  0  0  0  0  0  0  0  0  0
    6.4356    1.2917   -2.6767 N   0  0  0  0  0  0  0  0  0  0  0  0
    6.8892    1.9252   -1.5362 C   0  0  0  0  0  0  0  0  0  0  0  0
    7.2423    3.2775   -1.6070 C   0  0  0  0  0  0  0  0  0  0  0  0
    7.6636    3.8969   -0.4563 C   0  0  0  0  0  0  0  0  0  0  0  0
    7.7119    3.1222    0.6893 C   0  0  0  0  0  0  0  0  0  0  0  0
    7.4683    1.7861    0.8116 C   0  0  0  0  0  0  0  0  0  0  0  0
    7.0346    1.1799   -0.3362 C   0  0  0  0  0  0  0  0  0  0  0  0
    7.6703    1.1979    2.0869 N   0  0  0  0  0  0  0  0  0  0  0  0
    8.4797    1.7816    3.1502 C   0  0  0  0  0  0  0  0  0  0  0  0
    9.0579    0.5671    3.8305 C   0  0  0  0  0  0  0  0  0  0  0  0
    7.9271   -0.4491    3.7235 C   0  0  0  0  0  0  0  0  0  0  0  0
    7.1252    0.0120    2.5316 C   0  0  0  0  0  0  0  0  0  0  0  0
    6.1340   -0.5807    2.0772 O   0  0  0  0  0  0  0  0  0  0  0  0
    7.9231    5.3462   -0.4617 C   0  0  0  0  0  0  0  0  0  0  0  0
    7.8958    5.9909   -1.4976 O   0  0  0  0  0  0  0  0  0  0  0  0
    8.1206    6.0197    0.7097 N   0  0  0  0  0  0  0  0  0  0  0  0
    8.7432    5.6518    2.0146 C   0  0  2  0  0  0  0  0  0  0  0  0
    8.5303    4.6610    2.2865 H   0  0  0  0  0  0  0  0  0  0  0  0
    8.0091    6.2468    3.2669 C   0  0  1  0  0  0  0  0  0  0  0  0
    8.1744    5.5543    4.1061 H   0  0  0  0  0  0  0  0  0  0  0  0
    8.4200    7.6576    3.7420 C   0  0  0  0  0  0  0  0  0  0  0  0
    9.8132    7.6249    4.2291 N   0  0  0  0  0  0  0  0  0  0  0  0
   10.5491    8.8957    4.2823 C   0  0  0  0  0  0  0  0  0  0  0  0
   12.0948    8.7456    4.3312 C   0  0  0  0  0  0  0  0  0  0  0  0
   12.8958    9.8962    4.1637 C   0  0  0  0  0  0  0  0  0  0  0  0
   14.2960    9.8216    4.0446 C   0  0  0  0  0  0  0  0  0  0  0  0
   14.9304    8.5834    3.9707 C   0  0  0  0  0  0  0  0  0  0  0  0
   14.1710    7.4104    4.0654 C   0  0  0  0  0  0  0  0  0  0  0  0
   12.7763    7.5056    4.3232 C   0  0  0  0  0  0  0  0  0  0  0  0
   14.8190    6.0819    3.7274 C   0  0  0  0  0  0  0  0  0  0  0  0
   15.4586    6.0995    2.5186 F   0  0  0  0  0  0  0  0  0  0  0  0
   15.7551    5.7039    4.6356 F   0  0  0  0  0  0  0  0  0  0  0  0
   13.9320    5.0478    3.6402 F   0  0  0  0  0  0  0  0  0  0  0  0
    6.5864    6.2108    3.0304 O   0  0  0  0  0  0  0  0  0  0  0  0
   10.2781    5.4775    1.8897 C   0  0  0  0  0  0  0  0  0  0  0  0
   10.9475    6.7370    1.4020 C   0  0  0  0  0  0  0  0  0  0  0  0
   10.1826    7.8973    1.2322 C   0  0  0  0  0  0  0  0  0  0  0  0
   10.6272    9.1850    1.0899 C   0  0  0  0  0  0  0  0  0  0  0  0
   11.9734    9.3511    1.1685 C   0  0  0  0  0  0  0  0  0  0  0  0
   12.8041    8.2182    1.2535 C   0  0  0  0  0  0  0  0  0  0  0  0
   12.3078    6.9017    1.3419 C   0  0  0  0  0  0  0  0  0  0  0  0
    7.0302   -1.2759   -4.7320 H   0  0  0  0  0  0  0  0  0  0  0  0
    6.6621    0.4064   -5.1862 H   0  0  0  0  0  0  0  0  0  0  0  0
    5.4823   -0.5339   -4.2586 H   0  0  0  0  0  0  0  0  0  0  0  0
    8.2388    0.3475   -3.2632 H   0  0  0  0  0  0  0  0  0  0  0  0
    7.0955   -0.6644   -2.3635 H   0  0  0  0  0  0  0  0  0  0  0  0
    5.9288    1.8506   -3.3537 H   0  0  0  0  0  0  0  0  0  0  0  0
    7.1570    3.8476   -2.5305 H   0  0  0  0  0  0  0  0  0  0  0  0
    7.7972    3.5148    1.6479 H   0  0  0  0  0  0  0  0  0  0  0  0
    6.7701    0.1311   -0.3187 H   0  0  0  0  0  0  0  0  0  0  0  0
    7.8273    2.3351    3.8420 H   0  0  0  0  0  0  0  0  0  0  0  0
    9.2774    2.4461    2.8013 H   0  0  0  0  0  0  0  0  0  0  0  0
    9.3723    0.7575    4.8614 H   0  0  0  0  0  0  0  0  0  0  0  0
    9.9369    0.2231    3.2708 H   0  0  0  0  0  0  0  0  0  0  0  0
    7.3116   -0.4512    4.6261 H   0  0  0  0  0  0  0  0  0  0  0  0
    8.3261   -1.4459    3.5226 H   0  0  0  0  0  0  0  0  0  0  0  0
    8.2379    6.9779    0.4007 H   0  0  0  0  0  0  0  0  0  0  0  0
    7.7613    8.0102    4.5380 H   0  0  0  0  0  0  0  0  0  0  0  0
    8.1578    8.3472    2.9298 H   0  0  0  0  0  0  0  0  0  0  0  0
   10.3567    7.0228    3.6278 H   0  0  0  0  0  0  0  0  0  0  0  0
   10.1874    9.4806    5.1253 H   0  0  0  0  0  0  0  0  0  0  0  0
   10.3271    9.5096    3.4101 H   0  0  0  0  0  0  0  0  0  0  0  0
   12.4261   10.8639    3.9887 H   0  0  0  0  0  0  0  0  0  0  0  0
   14.8821   10.7307    3.9211 H   0  0  0  0  0  0  0  0  0  0  0  0
   15.9961    8.5319    3.7440 H   0  0  0  0  0  0  0  0  0  0  0  0
   12.2130    6.5754    4.3449 H   0  0  0  0  0  0  0  0  0  0  0  0
    6.3345    5.3085    2.7567 H   0  0  0  0  0  0  0  0  0  0  0  0
   10.5110    4.6545    1.1946 H   0  0  0  0  0  0  0  0  0  0  0  0
   10.6565    5.1319    2.8665 H   0  0  0  0  0  0  0  0  0  0  0  0
    9.1570    7.8941    1.5101 H   0  0  0  0  0  0  0  0  0  0  0  0
    9.9051    9.9846    1.2578 H   0  0  0  0  0  0  0  0  0  0  0  0
   12.3384   10.3458    1.4020 H   0  0  0  0  0  0  0  0  0  0  0  0
   13.8458    8.3952    1.4897 H   0  0  0  0  0  0  0  0  0  0  0  0
   12.9654    6.0706    1.5855 H   0  0  0  0  0  0  0  0  0  0  0  0
  1  2  1  0  0  0  0
  1 44  1  0  0  0  0
  1 45  1  0  0  0  0
  1 46  1  0  0  0  0
  2  3  1  0  0  0  0
  2 47  1  0  0  0  0
  2 48  1  0  0  0  0
  3  4  1  0  0  0  0
  3 49  1  0  0  0  0
  4  5  2  0  0  0  0
  4  9  1  0  0  0  0
  5  6  1  0  0  0  0
  5 50  1  0  0  0  0
  6  7  2  0  0  0  0
  6 16  1  0  0  0  0
  7  8  1  0  0  0  0
  7 51  1  0  0  0  0
  8  9  2  0  0  0  0
  8 10  1  0  0  0  0
  9 52  1  0  0  0  0
 10 11  1  0  0  0  0
 10 14  1  0  0  0  0
 11 12  1  0  0  0  0
 11 53  1  0  0  0  0
 11 54  1  0  0  0  0
 12 13  1  0  0  0  0
 12 55  1  0  0  0  0
 12 56  1  0  0  0  0
 13 14  1  0  0  0  0
 13 57  1  0  0  0  0
 13 58  1  0  0  0  0
 14 15  2  0  0  0  0
 16 17  2  0  0  0  0
 16 18  1  0  0  0  0
 18 59  1  0  0  0  0
 19 21  1  0  0  0  0
 19 37  1  0  0  0  0
 19 20  1  1  0  0  0
 19 18  1  0  0  0  0
 21 22  1  1  0  0  0
 21 23  1  0  0  0  0
 21 36  1  0  0  0  0
 23 24  1  0  0  0  0
 23 60  1  0  0  0  0
 23 61  1  0  0  0  0
 24 25  1  0  0  0  0
 24 62  1  0  0  0  0
 25 26  1  0  0  0  0
 25 63  1  0  0  0  0
 25 64  1  0  0  0  0
 26 27  2  0  0  0  0
 26 31  1  0  0  0  0
 27 28  1  0  0  0  0
 27 65  1  0  0  0  0
 28 29  2  0  0  0  0
 28 66  1  0  0  0  0
 29 30  1  0  0  0  0
 29 67  1  0  0  0  0
 30 31  2  0  0  0  0
 30 32  1  0  0  0  0
 31 68  1  0  0  0  0
 32 33  1  0  0  0  0
 32 34  1  0  0  0  0
 32 35  1  0  0  0  0
 36 69  1  0  0  0  0
 37 38  1  0  0  0  0
 37 70  1  0  0  0  0
 37 71  1  0  0  0  0
 38 39  2  0  0  0  0
 38 43  1  0  0  0  0
 39 40  1  0  0  0  0
 39 72  1  0  0  0  0
 40 41  2  0  0  0  0
 40 73  1  0  0  0  0
 41 42  1  0  0  0  0
 41 74  1  0  0  0  0
 42 43  2  0  0  0  0
 42 75  1  0  0  0  0
 43 76  1  0  0  0  0
M  END
$$$$
