VGD
 OpenBabel04121316203D

 17 18  0  0  0  0  0  0  0  0999 V2000
    1.1096   -0.0560   -0.0369 Cl  0  0  0  0  0  0  0  0  0  0  0  0
    2.8335   -0.0773   -0.0313 C   0  0  0  0  0  0  0  0  0  0  0  0
    3.5323    1.1314   -0.0279 C   0  0  0  0  0  0  0  0  0  0  0  0
    4.9353    1.1431   -0.0182 C   0  0  0  0  0  0  0  0  0  0  0  0
    5.6224   -0.0817   -0.0127 C   0  0  0  0  0  0  0  0  0  0  0  0
    4.8936   -1.2669   -0.0185 C   0  0  0  0  0  0  0  0  0  0  0  0
    3.4963   -1.3103   -0.0285 C   0  0  0  0  0  0  0  0  0  0  0  0
    5.8539   -2.2470   -0.0113 N   0  0  0  0  0  0  0  0  0  0  0  0
    5.6929   -3.2406   -0.0123 H   0  0  0  0  0  0  0  0  0  0  0  0
    7.0813   -1.6425   -0.0010 C   0  0  0  0  0  0  0  0  0  0  0  0
    6.9726   -0.3385   -0.0018 N   0  0  0  0  0  0  0  0  0  0  0  0
    8.2036   -2.3648    0.0083 N   0  0  0  0  0  0  0  0  0  0  0  0
    2.9927    2.0756   -0.0321 H   0  0  0  0  0  0  0  0  0  0  0  0
    5.4860    2.0776   -0.0141 H   0  0  0  0  0  0  0  0  0  0  0  0
    2.9522   -2.2476   -0.0328 H   0  0  0  0  0  0  0  0  0  0  0  0
    8.2562   -3.3744    0.0085 H   0  0  0  0  0  0  0  0  0  0  0  0
    9.0936   -1.8761    0.0156 H   0  0  0  0  0  0  0  0  0  0  0  0
  1  2  1  0  0  0  0
  2  3  2  0  0  0  0
  2  7  1  0  0  0  0
  3  4  1  0  0  0  0
  3 13  1  0  0  0  0
  4  5  2  0  0  0  0
  4 14  1  0  0  0  0
  5  6  1  0  0  0  0
  5 11  1  0  0  0  0
  6  7  2  0  0  0  0
  6  8  1  0  0  0  0
  7 15  1  0  0  0  0
  8  9  1  0  0  0  0
  8 10  1  0  0  0  0
 10 11  2  0  0  0  0
 10 12  1  0  0  0  0
 12 16  1  0  0  0  0
 12 17  1  0  0  0  0
M  END
$$$$
