VGG
 OpenBabel04121316203D

 43 45  0  0  0  0  0  0  0  0999 V2000
    1.0183    0.1779    0.0045 C   0  0  0  0  0  0  0  0  0  0  0  0
    2.5144    0.2428    0.0232 C   0  0  0  0  0  0  0  0  0  0  0  0
    3.2644    1.3976   -0.1071 C   0  0  0  0  0  0  0  0  0  0  0  0
    4.6576    1.3106   -0.1915 C   0  0  0  0  0  0  0  0  0  0  0  0
    5.2859    0.0661   -0.3089 C   0  0  0  0  0  0  0  0  0  0  0  0
    4.5405   -1.1115   -0.1953 C   0  0  0  0  0  0  0  0  0  0  0  0
    3.1905   -0.9621    0.1262 C   0  0  0  0  0  0  0  0  0  0  0  0
    5.2244   -2.4352   -0.4640 C   0  0  0  0  0  0  0  0  0  0  0  0
    4.3132   -3.6323   -0.4153 C   0  0  0  0  0  0  0  0  0  0  0  0
    2.9807   -3.5702   -0.4793 N   0  0  0  0  0  0  0  0  0  0  0  0
    2.5368   -4.7984   -0.1922 N   0  0  0  0  0  0  0  0  0  0  0  0
    3.5510   -5.7206   -0.2754 C   0  0  0  0  0  0  0  0  0  0  0  0
    4.7214   -4.9824   -0.4278 C   0  0  0  0  0  0  0  0  0  0  0  0
    5.9162   -5.6837   -0.5566 C   0  0  0  0  0  0  0  0  0  0  0  0
    7.1387   -5.0659   -0.7155 N   0  0  0  0  0  0  0  0  0  0  0  0
    5.8759   -7.0280   -0.5564 N   0  0  0  0  0  0  0  0  0  0  0  0
    4.6763   -7.6293   -0.4017 C   0  0  0  0  0  0  0  0  0  0  0  0
    3.4731   -7.0562   -0.2360 N   0  0  0  0  0  0  0  0  0  0  0  0
    1.0907   -4.9561    0.0485 C   0  0  0  0  0  0  0  0  0  0  0  0
    0.6637   -4.2799    1.3759 C   0  0  0  0  0  0  0  0  0  0  0  0
    0.2906   -4.2851   -1.0925 C   0  0  0  0  0  0  0  0  0  0  0  0
    0.6968   -6.4345    0.1176 C   0  0  0  0  0  0  0  0  0  0  0  0
    0.5705    1.1677   -0.0831 H   0  0  0  0  0  0  0  0  0  0  0  0
    0.6468   -0.3092    0.9121 H   0  0  0  0  0  0  0  0  0  0  0  0
    0.6877   -0.4203   -0.8575 H   0  0  0  0  0  0  0  0  0  0  0  0
    2.7732    2.3633   -0.1279 H   0  0  0  0  0  0  0  0  0  0  0  0
    5.2539    2.2172   -0.2012 H   0  0  0  0  0  0  0  0  0  0  0  0
    6.3588    0.0243   -0.4862 H   0  0  0  0  0  0  0  0  0  0  0  0
    2.5706   -1.7921    0.4270 H   0  0  0  0  0  0  0  0  0  0  0  0
    6.0297   -2.5587    0.2700 H   0  0  0  0  0  0  0  0  0  0  0  0
    5.6760   -2.4039   -1.4658 H   0  0  0  0  0  0  0  0  0  0  0  0
    7.2264   -4.0708   -0.8063 H   0  0  0  0  0  0  0  0  0  0  0  0
    7.9355   -5.6604   -0.8771 H   0  0  0  0  0  0  0  0  0  0  0  0
    4.6800   -8.7129   -0.4163 H   0  0  0  0  0  0  0  0  0  0  0  0
    0.8314   -3.1963    1.3645 H   0  0  0  0  0  0  0  0  0  0  0  0
    1.2073   -4.6882    2.2345 H   0  0  0  0  0  0  0  0  0  0  0  0
   -0.4088   -4.4290    1.5608 H   0  0  0  0  0  0  0  0  0  0  0  0
    0.4528   -3.1996   -1.1233 H   0  0  0  0  0  0  0  0  0  0  0  0
   -0.7868   -4.4407   -0.9657 H   0  0  0  0  0  0  0  0  0  0  0  0
    0.5821   -4.6877   -2.0681 H   0  0  0  0  0  0  0  0  0  0  0  0
    1.2071   -6.9322    0.9505 H   0  0  0  0  0  0  0  0  0  0  0  0
    0.9641   -6.9461   -0.8133 H   0  0  0  0  0  0  0  0  0  0  0  0
   -0.3783   -6.5641    0.2692 H   0  0  0  0  0  0  0  0  0  0  0  0
  1  2  1  0  0  0  0
  1 23  1  0  0  0  0
  1 24  1  0  0  0  0
  1 25  1  0  0  0  0
  2  3  2  0  0  0  0
  2  7  1  0  0  0  0
  3  4  1  0  0  0  0
  3 26  1  0  0  0  0
  4  5  2  0  0  0  0
  4 27  1  0  0  0  0
  5  6  1  0  0  0  0
  5 28  1  0  0  0  0
  6  7  2  0  0  0  0
  6  8  1  0  0  0  0
  7 29  1  0  0  0  0
  8  9  1  0  0  0  0
  8 30  1  0  0  0  0
  8 31  1  0  0  0  0
  9 10  2  0  0  0  0
  9 13  1  0  0  0  0
 10 11  1  0  0  0  0
 11 12  1  0  0  0  0
 11 19  1  0  0  0  0
 12 13  2  0  0  0  0
 12 18  1  0  0  0  0
 13 14  1  0  0  0  0
 14 15  1  0  0  0  0
 14 16  2  0  0  0  0
 15 32  1  0  0  0  0
 15 33  1  0  0  0  0
 16 17  1  0  0  0  0
 17 18  2  0  0  0  0
 17 34  1  0  0  0  0
 19 20  1  0  0  0  0
 19 21  1  0  0  0  0
 19 22  1  0  0  0  0
 20 35  1  0  0  0  0
 20 36  1  0  0  0  0
 20 37  1  0  0  0  0
 21 38  1  0  0  0  0
 21 39  1  0  0  0  0
 21 40  1  0  0  0  0
 22 41  1  0  0  0  0
 22 42  1  0  0  0  0
 22 43  1  0  0  0  0
M  END
$$$$
