VGI
 OpenBabel04121316203D

 41 44  0  0  0  0  0  0  0  0999 V2000
    0.9452    0.0540   -0.0956 O   0  0  0  0  0  0  0  0  0  0  0  0
    2.3662    0.0885   -0.0839 C   0  0  0  0  0  0  0  0  0  0  0  0
    2.8863   -1.0213    0.8127 C   0  0  0  0  0  0  0  0  0  0  0  0
    4.3421   -1.1215    0.7084 N   0  0  0  0  0  0  0  0  0  0  0  0
    5.0051   -2.1424    1.3772 C   0  0  0  0  0  0  0  0  0  0  0  0
    5.9960   -1.8410    2.3233 C   0  0  0  0  0  0  0  0  0  0  0  0
    6.5887   -2.8558    3.0753 C   0  0  0  0  0  0  0  0  0  0  0  0
    6.1803   -4.1840    2.8934 C   0  0  0  0  0  0  0  0  0  0  0  0
    5.2013   -4.4958    1.9528 C   0  0  0  0  0  0  0  0  0  0  0  0
    4.6324   -3.4874    1.1660 C   0  0  0  0  0  0  0  0  0  0  0  0
    3.7300   -3.8663    0.1461 C   0  0  0  0  0  0  0  0  0  0  0  0
    3.2462   -5.1509    0.0058 C   0  0  0  0  0  0  0  0  0  0  0  0
    3.7828   -6.1278    0.8040 C   0  0  0  0  0  0  0  0  0  0  0  0
    4.7780   -5.8002    1.7421 C   0  0  0  0  0  0  0  0  0  0  0  0
    5.4116   -6.8850    2.4684 C   0  0  0  0  0  0  0  0  0  0  0  0
    5.0922   -8.0029    2.0430 O   0  0  0  0  0  0  0  0  0  0  0  0
    6.3283   -6.5791    3.4882 N   0  0  0  0  0  0  0  0  0  0  0  0
    6.7818   -5.2600    3.7098 C   0  0  0  0  0  0  0  0  0  0  0  0
    7.6236   -4.8860    4.5239 O   0  0  0  0  0  0  0  0  0  0  0  0
    6.8691   -7.6852    4.2622 C   0  0  0  0  0  0  0  0  0  0  0  0
    7.9654   -7.5645    5.1247 C   0  0  0  0  0  0  0  0  0  0  0  0
    8.4567   -8.6652    5.8343 C   0  0  0  0  0  0  0  0  0  0  0  0
    7.9654   -9.9402    5.5812 C   0  0  0  0  0  0  0  0  0  0  0  0
    6.8917  -10.0877    4.7280 C   0  0  0  0  0  0  0  0  0  0  0  0
    6.2956   -8.9662    4.1727 C   0  0  0  0  0  0  0  0  0  0  0  0
    6.2213  -11.7952    4.2780 Br  0  0  0  0  0  0  0  0  0  0  0  0
    0.6472    0.7810   -0.6664 H   0  0  0  0  0  0  0  0  0  0  0  0
    2.7067    1.0578    0.2869 H   0  0  0  0  0  0  0  0  0  0  0  0
    2.7276   -0.0526   -1.1094 H   0  0  0  0  0  0  0  0  0  0  0  0
    2.3589   -1.9224    0.4910 H   0  0  0  0  0  0  0  0  0  0  0  0
    2.5606   -0.8900    1.8506 H   0  0  0  0  0  0  0  0  0  0  0  0
    4.8861   -0.3387    0.3705 H   0  0  0  0  0  0  0  0  0  0  0  0
    6.2972   -0.8118    2.5056 H   0  0  0  0  0  0  0  0  0  0  0  0
    7.3499   -2.6058    3.8151 H   0  0  0  0  0  0  0  0  0  0  0  0
    3.3895   -3.1396   -0.5838 H   0  0  0  0  0  0  0  0  0  0  0  0
    2.4899   -5.3757   -0.7374 H   0  0  0  0  0  0  0  0  0  0  0  0
    3.4605   -7.1569    0.6614 H   0  0  0  0  0  0  0  0  0  0  0  0
    8.4959   -6.6324    5.2842 H   0  0  0  0  0  0  0  0  0  0  0  0
    9.2433   -8.5156    6.5676 H   0  0  0  0  0  0  0  0  0  0  0  0
    8.4101  -10.8042    6.0583 H   0  0  0  0  0  0  0  0  0  0  0  0
    5.3541   -9.1475    3.6703 H   0  0  0  0  0  0  0  0  0  0  0  0
  1  2  1  0  0  0  0
  1 27  1  0  0  0  0
  2  3  1  0  0  0  0
  2 28  1  0  0  0  0
  2 29  1  0  0  0  0
  3  4  1  0  0  0  0
  3 30  1  0  0  0  0
  3 31  1  0  0  0  0
  4  5  1  0  0  0  0
  4 32  1  0  0  0  0
  5  6  2  0  0  0  0
  5 10  1  0  0  0  0
  6  7  1  0  0  0  0
  6 33  1  0  0  0  0
  7  8  2  0  0  0  0
  7 34  1  0  0  0  0
  8  9  1  0  0  0  0
  8 18  1  0  0  0  0
  9 10  2  0  0  0  0
  9 14  1  0  0  0  0
 10 11  1  0  0  0  0
 11 12  2  0  0  0  0
 11 35  1  0  0  0  0
 12 13  1  0  0  0  0
 12 36  1  0  0  0  0
 13 14  2  0  0  0  0
 13 37  1  0  0  0  0
 14 15  1  0  0  0  0
 15 16  2  0  0  0  0
 15 17  1  0  0  0  0
 17 18  1  0  0  0  0
 17 20  1  0  0  0  0
 18 19  2  0  0  0  0
 20 21  2  0  0  0  0
 20 25  1  0  0  0  0
 21 22  1  0  0  0  0
 21 38  1  0  0  0  0
 22 23  2  0  0  0  0
 22 39  1  0  0  0  0
 23 24  1  0  0  0  0
 23 40  1  0  0  0  0
 24 25  2  0  0  0  0
 24 26  1  0  0  0  0
 25 41  1  0  0  0  0
M  END
$$$$
