VGP
 OpenBabel04121316203D

 64 68  0  0  1  0  0  0  0  0999 V2000
    0.8496    0.1804    0.0497 C   0  0  0  0  0  0  0  0  0  0  0  0
    2.1770    0.1250    0.0385 C   0  0  0  0  0  0  0  0  0  0  0  0
    2.8534   -1.0769    0.5110 C   0  0  0  0  0  0  0  0  0  0  0  0
    2.3440   -2.3342    0.1940 C   0  0  0  0  0  0  0  0  0  0  0  0
    2.9014   -3.5088    0.6948 C   0  0  0  0  0  0  0  0  0  0  0  0
    2.3673   -4.7290    0.4415 O   0  0  0  0  0  0  0  0  0  0  0  0
    1.2402   -4.8322   -0.3911 C   0  0  0  0  0  0  0  0  0  0  0  0
    4.0415   -3.4628    1.4929 C   0  0  0  0  0  0  0  0  0  0  0  0
    4.5788   -2.1977    1.7139 C   0  0  0  0  0  0  0  0  0  0  0  0
    3.9999   -1.0050    1.2570 C   0  0  0  0  0  0  0  0  0  0  0  0
    5.8123   -2.1074    2.5080 C   0  0  2  0  0  0  0  0  0  0  0  0
    5.5911   -1.2584    3.1289 H   0  0  0  0  0  0  0  0  0  0  0  0
    6.9169   -1.7181    1.7127 O   0  0  0  0  0  0  0  0  0  0  0  0
    6.0410   -3.1605    3.4299 O   0  0  0  0  0  0  0  0  0  0  0  0
    5.8066   -4.4287    2.9818 C   0  0  0  0  0  0  0  0  0  0  0  0
    4.7329   -4.6162    2.1096 C   0  0  0  0  0  0  0  0  0  0  0  0
    4.3443   -5.9262    1.9033 C   0  0  0  0  0  0  0  0  0  0  0  0
    4.9580   -7.0256    2.4772 C   0  0  0  0  0  0  0  0  0  0  0  0
    4.4670   -8.2904    2.2394 O   0  0  0  0  0  0  0  0  0  0  0  0
    3.3142   -8.4160    1.4087 C   0  0  0  0  0  0  0  0  0  0  0  0
    6.0895   -6.8390    3.3002 C   0  0  0  0  0  0  0  0  0  0  0  0
    6.5599   -5.4975    3.5583 C   0  0  0  0  0  0  0  0  0  0  0  0
    7.7310   -5.3208    4.3699 C   0  0  0  0  0  0  0  0  0  0  0  0
    8.3414   -6.4726    4.9293 C   0  0  0  0  0  0  0  0  0  0  0  0
    7.8660   -7.7596    4.6960 C   0  0  0  0  0  0  0  0  0  0  0  0
    6.7587   -7.9384    3.8863 C   0  0  0  0  0  0  0  0  0  0  0  0
    6.3183   -9.2201    3.6652 O   0  0  0  0  0  0  0  0  0  0  0  0
    8.4087   -3.9817    4.7605 C   0  0  1  0  0  0  0  0  0  0  0  0
    9.4878   -4.1660    4.6686 H   0  0  0  0  0  0  0  0  0  0  0  0
    8.2274   -2.8011    3.9472 O   0  0  0  0  0  0  0  0  0  0  0  0
    8.4126   -1.6249    4.7593 C   0  0  2  0  0  0  0  0  0  0  0  0
    9.4669   -1.3599    4.6143 H   0  0  0  0  0  0  0  0  0  0  0  0
    8.1653   -2.0432    6.2008 C   0  0  1  0  0  0  0  0  0  0  0  0
    7.2221   -1.6726    6.6020 H   0  0  0  0  0  0  0  0  0  0  0  0
    8.1166   -3.5608    6.2085 C   0  0  1  0  0  0  0  0  0  0  0  0
    8.8557   -3.9908    6.8884 H   0  0  0  0  0  0  0  0  0  0  0  0
    6.8247   -3.9713    6.6915 O   0  0  0  0  0  0  0  0  0  0  0  0
    9.1904   -1.5295    7.0442 O   0  0  0  0  0  0  0  0  0  0  0  0
    7.5943   -0.3354    4.3908 C   0  0  2  0  0  0  0  0  0  0  0  0
    7.5107   -0.2335    3.3085 H   0  0  0  0  0  0  0  0  0  0  0  0
    8.3465    0.8244    4.7867 O   0  0  0  0  0  0  0  0  0  0  0  0
    6.1982   -0.1755    5.0404 C   0  0  0  0  0  0  0  0  0  0  0  0
    0.3122    1.0383   -0.3371 H   0  0  0  0  0  0  0  0  0  0  0  0
    0.2480   -0.6403    0.4452 H   0  0  0  0  0  0  0  0  0  0  0  0
    2.7957    0.9459   -0.3217 H   0  0  0  0  0  0  0  0  0  0  0  0
    1.4776   -2.3814   -0.4497 H   0  0  0  0  0  0  0  0  0  0  0  0
    1.0123   -5.8961   -0.4774 H   0  0  0  0  0  0  0  0  0  0  0  0
    1.4691   -4.4445   -1.3864 H   0  0  0  0  0  0  0  0  0  0  0  0
    0.3883   -4.3284    0.0709 H   0  0  0  0  0  0  0  0  0  0  0  0
    4.4502   -0.0475    1.5228 H   0  0  0  0  0  0  0  0  0  0  0  0
    7.0460   -2.4067    1.0477 H   0  0  0  0  0  0  0  0  0  0  0  0
    3.4975   -6.1245    1.2842 H   0  0  0  0  0  0  0  0  0  0  0  0
    3.0650   -9.4745    1.3173 H   0  0  0  0  0  0  0  0  0  0  0  0
    3.5142   -8.0377    0.3983 H   0  0  0  0  0  0  0  0  0  0  0  0
    2.4491   -7.9092    1.8549 H   0  0  0  0  0  0  0  0  0  0  0  0
    9.2093   -6.3672    5.5781 H   0  0  0  0  0  0  0  0  0  0  0  0
    8.3665   -8.6098    5.1484 H   0  0  0  0  0  0  0  0  0  0  0  0
    6.8646   -9.8650    4.1349 H   0  0  0  0  0  0  0  0  0  0  0  0
    6.1622   -3.7677    6.0050 H   0  0  0  0  0  0  0  0  0  0  0  0
    9.1922   -0.5628    6.9406 H   0  0  0  0  0  0  0  0  0  0  0  0
    8.2744    0.9191    5.7475 H   0  0  0  0  0  0  0  0  0  0  0  0
    6.2645    0.1087    6.0930 H   0  0  0  0  0  0  0  0  0  0  0  0
    5.5772   -1.0768    5.0091 H   0  0  0  0  0  0  0  0  0  0  0  0
    5.6453    0.6383    4.5524 H   0  0  0  0  0  0  0  0  0  0  0  0
  1  2  2  0  0  0  0
  1 43  1  0  0  0  0
  1 44  1  0  0  0  0
  2  3  1  0  0  0  0
  2 45  1  0  0  0  0
  3  4  2  0  0  0  0
  3 10  1  0  0  0  0
  4  5  1  0  0  0  0
  4 46  1  0  0  0  0
  5  6  1  0  0  0  0
  5  8  2  0  0  0  0
  6  7  1  0  0  0  0
  7 47  1  0  0  0  0
  7 48  1  0  0  0  0
  7 49  1  0  0  0  0
  8  9  1  0  0  0  0
  8 16  1  0  0  0  0
  9 10  2  0  0  0  0
  9 11  1  0  0  0  0
 10 50  1  0  0  0  0
 11 14  1  0  0  0  0
 11 13  1  0  0  0  0
 11 12  1  1  0  0  0
 13 51  1  0  0  0  0
 14 15  1  0  0  0  0
 15 16  2  0  0  0  0
 15 22  1  0  0  0  0
 16 17  1  0  0  0  0
 17 18  2  0  0  0  0
 17 52  1  0  0  0  0
 18 19  1  0  0  0  0
 18 21  1  0  0  0  0
 19 20  1  0  0  0  0
 20 53  1  0  0  0  0
 20 54  1  0  0  0  0
 20 55  1  0  0  0  0
 21 22  2  0  0  0  0
 21 26  1  0  0  0  0
 22 23  1  0  0  0  0
 23 24  2  0  0  0  0
 23 28  1  0  0  0  0
 24 25  1  0  0  0  0
 24 56  1  0  0  0  0
 25 26  2  0  0  0  0
 25 57  1  0  0  0  0
 26 27  1  0  0  0  0
 27 58  1  0  0  0  0
 28 29  1  6  0  0  0
 28 30  1  0  0  0  0
 28 35  1  0  0  0  0
 30 31  1  0  0  0  0
 31 33  1  0  0  0  0
 31 39  1  0  0  0  0
 31 32  1  6  0  0  0
 33 34  1  1  0  0  0
 33 35  1  0  0  0  0
 33 38  1  0  0  0  0
 35 37  1  0  0  0  0
 35 36  1  1  0  0  0
 37 59  1  0  0  0  0
 38 60  1  0  0  0  0
 39 42  1  0  0  0  0
 39 41  1  0  0  0  0
 39 40  1  6  0  0  0
 41 61  1  0  0  0  0
 42 62  1  0  0  0  0
 42 63  1  0  0  0  0
 42 64  1  0  0  0  0
M  END
$$$$
