VI
 OpenBabel04121316203D

 35 37  0  0  0  0  0  0  0  0999 V2000
    1.0279    0.1380    0.1484 O   0  0  0  0  0  0  0  0  0  0  0  0
    2.3408    0.1512   -0.0493 C   0  0  0  0  0  0  0  0  0  0  0  0
    2.8515   -0.8741   -0.4718 O   0  0  0  0  0  0  0  0  0  0  0  0
    3.0700    1.3648    0.2725 C   0  0  0  0  0  0  0  0  0  0  0  0
    2.6826    2.7739    0.2006 C   0  0  0  0  0  0  0  0  0  0  0  0
    3.7650    3.5303    0.5156 N   0  0  0  0  0  0  0  0  0  0  0  0
    4.8189    2.6678    0.7908 N   0  0  0  0  0  0  0  0  0  0  0  0
    4.4030    1.3137    0.7308 C   0  0  0  0  0  0  0  0  0  0  0  0
    5.2022    0.1480    1.1705 C   0  0  0  0  0  0  0  0  0  0  0  0
    6.1547    0.1622    1.9578 O   0  0  0  0  0  0  0  0  0  0  0  0
    4.8708   -1.0769    0.7235 O   0  0  0  0  0  0  0  0  0  0  0  0
    6.1665    3.1757    1.0791 C   0  0  0  0  0  0  0  0  0  0  0  0
    6.4975    4.5141    1.3118 C   0  0  0  0  0  0  0  0  0  0  0  0
    7.8632    4.8758    1.4984 C   0  0  0  0  0  0  0  0  0  0  0  0
    8.8658    3.9131    1.6624 C   0  0  0  0  0  0  0  0  0  0  0  0
    8.5211    2.5907    1.5762 C   0  0  0  0  0  0  0  0  0  0  0  0
    7.2532    2.2919    1.0920 C   0  0  0  0  0  0  0  0  0  0  0  0
    1.3459    3.4129   -0.2352 C   0  0  0  0  0  0  0  0  0  0  0  0
    0.2001    2.6583   -0.5336 C   0  0  0  0  0  0  0  0  0  0  0  0
   -0.9690    3.1098   -1.1588 C   0  0  0  0  0  0  0  0  0  0  0  0
   -1.1559    4.4588   -1.2842 C   0  0  0  0  0  0  0  0  0  0  0  0
   -0.1527    5.2981   -0.8005 C   0  0  0  0  0  0  0  0  0  0  0  0
    1.1084    4.7892   -0.3559 C   0  0  0  0  0  0  0  0  0  0  0  0
    0.6697   -0.0784   -0.7398 H   0  0  0  0  0  0  0  0  0  0  0  0
    4.0003   -1.2185    0.3032 H   0  0  0  0  0  0  0  0  0  0  0  0
    5.7507    5.3037    1.3157 H   0  0  0  0  0  0  0  0  0  0  0  0
    8.1651    5.9204    1.5100 H   0  0  0  0  0  0  0  0  0  0  0  0
    9.9140    4.1713    1.7892 H   0  0  0  0  0  0  0  0  0  0  0  0
    9.2278    1.7828    1.7532 H   0  0  0  0  0  0  0  0  0  0  0  0
    7.2002    1.3186    0.6317 H   0  0  0  0  0  0  0  0  0  0  0  0
    0.0469    1.6918   -0.1291 H   0  0  0  0  0  0  0  0  0  0  0  0
   -1.7444    2.3990   -1.4415 H   0  0  0  0  0  0  0  0  0  0  0  0
   -2.0929    4.8349   -1.6872 H   0  0  0  0  0  0  0  0  0  0  0  0
   -0.3625    6.3651   -0.7654 H   0  0  0  0  0  0  0  0  0  0  0  0
    1.8710    5.5114   -0.0780 H   0  0  0  0  0  0  0  0  0  0  0  0
  1  2  1  0  0  0  0
  1 24  1  0  0  0  0
  2  3  2  0  0  0  0
  2  4  1  0  0  0  0
  4  5  1  0  0  0  0
  4  8  2  0  0  0  0
  5  6  2  0  0  0  0
  5 18  1  0  0  0  0
  6  7  1  0  0  0  0
  7  8  1  0  0  0  0
  7 12  1  0  0  0  0
  8  9  1  0  0  0  0
  9 10  2  0  0  0  0
  9 11  1  0  0  0  0
 11 25  1  0  0  0  0
 12 13  2  0  0  0  0
 12 17  1  0  0  0  0
 13 14  1  0  0  0  0
 13 26  1  0  0  0  0
 14 15  2  0  0  0  0
 14 27  1  0  0  0  0
 15 16  1  0  0  0  0
 15 28  1  0  0  0  0
 16 17  2  0  0  0  0
 16 29  1  0  0  0  0
 17 30  1  0  0  0  0
 18 19  2  0  0  0  0
 18 23  1  0  0  0  0
 19 20  1  0  0  0  0
 19 31  1  0  0  0  0
 20 21  2  0  0  0  0
 20 32  1  0  0  0  0
 21 22  1  0  0  0  0
 21 33  1  0  0  0  0
 22 23  2  0  0  0  0
 22 34  1  0  0  0  0
 23 35  1  0  0  0  0
M  END
$$$$
