VIG
 OpenBabel04121316203D

 22 21  0  0  1  0  0  0  0  0999 V2000
    2.7482    3.2906    2.3049 C   0  0  0  0  0  0  0  0  0  0  0  0
    2.4927    2.3013    1.1729 C   0  0  0  0  0  0  0  0  0  0  0  0
    3.0416    0.8708    1.3231 C   0  0  2  0  0  0  0  0  0  0  0  0
    2.7144    0.3103    0.4377 H   0  0  0  0  0  0  0  0  0  0  0  0
    2.5134    0.1377    2.5609 C   0  0  0  0  0  0  0  0  0  0  0  0
    0.9811    0.0755    2.6116 C   0  0  0  0  0  0  0  0  0  0  0  0
    0.5243   -0.6283    3.8632 C   0  0  0  0  0  0  0  0  0  0  0  0
    1.2728   -1.0941    4.7121 O   0  0  0  0  0  0  0  0  0  0  0  0
   -0.8196   -0.6866    3.9835 O   0  0  0  0  0  0  0  0  0  0  0  0
    4.5052    0.8558    1.3052 N   0  0  0  0  0  0  0  0  0  0  0  0
    2.2770    4.2452    2.0418 H   0  0  0  0  0  0  0  0  0  0  0  0
    3.8132    3.4827    2.4623 H   0  0  0  0  0  0  0  0  0  0  0  0
    2.3035    2.9670    3.2513 H   0  0  0  0  0  0  0  0  0  0  0  0
    2.8815    2.7322    0.2437 H   0  0  0  0  0  0  0  0  0  0  0  0
    1.4079    2.2395    1.0346 H   0  0  0  0  0  0  0  0  0  0  0  0
    2.8934    0.6172    3.4718 H   0  0  0  0  0  0  0  0  0  0  0  0
    2.9074   -0.8890    2.5718 H   0  0  0  0  0  0  0  0  0  0  0  0
    0.5989   -0.4559    1.7323 H   0  0  0  0  0  0  0  0  0  0  0  0
    0.5541    1.0827    2.6344 H   0  0  0  0  0  0  0  0  0  0  0  0
   -1.3176   -0.2716    3.2544 H   0  0  0  0  0  0  0  0  0  0  0  0
    4.8416   -0.1083    1.3406 H   0  0  0  0  0  0  0  0  0  0  0  0
    4.8769    1.3042    2.1416 H   0  0  0  0  0  0  0  0  0  0  0  0
  1  2  1  0  0  0  0
  1 11  1  0  0  0  0
  1 12  1  0  0  0  0
  1 13  1  0  0  0  0
  2 14  1  0  0  0  0
  2 15  1  0  0  0  0
  3  5  1  0  0  0  0
  3 10  1  0  0  0  0
  3  4  1  6  0  0  0
  3  2  1  0  0  0  0
  5  6  1  0  0  0  0
  5 16  1  0  0  0  0
  5 17  1  0  0  0  0
  6  7  1  0  0  0  0
  6 18  1  0  0  0  0
  6 19  1  0  0  0  0
  7  8  2  0  0  0  0
  7  9  1  0  0  0  0
  9 20  1  0  0  0  0
 10 21  1  0  0  0  0
 10 22  1  0  0  0  0
M  END
$$$$
