VII
 OpenBabel04121316203D

 35 37  0  0  0  0  0  0  0  0999 V2000
    1.1784    0.0895   -0.0900 O   0  0  0  0  0  0  0  0  0  0  0  0
    2.5261    0.1764   -0.0031 C   0  0  0  0  0  0  0  0  0  0  0  0
    2.9860    1.2723    0.2087 O   0  0  0  0  0  0  0  0  0  0  0  0
    3.1887   -1.1333   -0.1203 C   0  0  0  0  0  0  0  0  0  0  0  0
    4.5517   -1.4188   -0.3740 C   0  0  0  0  0  0  0  0  0  0  0  0
    4.6902   -2.8164   -0.4458 O   0  0  0  0  0  0  0  0  0  0  0  0
    3.4567   -3.4038   -0.2038 C   0  0  0  0  0  0  0  0  0  0  0  0
    2.5167   -2.4156    0.0786 C   0  0  0  0  0  0  0  0  0  0  0  0
    1.1370   -2.7344    0.5223 C   0  0  0  0  0  0  0  0  0  0  0  0
    0.8057   -3.7454    1.1187 O   0  0  0  0  0  0  0  0  0  0  0  0
    0.1661   -1.8500    0.2123 O   0  0  0  0  0  0  0  0  0  0  0  0
    3.2478   -4.8791   -0.3091 C   0  0  0  0  0  0  0  0  0  0  0  0
    4.1477   -5.8755    0.0669 C   0  0  0  0  0  0  0  0  0  0  0  0
    3.7707   -7.2380   -0.0238 C   0  0  0  0  0  0  0  0  0  0  0  0
    2.4495   -7.6139   -0.2869 C   0  0  0  0  0  0  0  0  0  0  0  0
    1.5140   -6.6340   -0.5252 C   0  0  0  0  0  0  0  0  0  0  0  0
    1.9602   -5.3268   -0.6978 C   0  0  0  0  0  0  0  0  0  0  0  0
    5.7867   -0.5622   -0.6226 C   0  0  0  0  0  0  0  0  0  0  0  0
    5.7182    0.8336   -0.4653 C   0  0  0  0  0  0  0  0  0  0  0  0
    6.6925    1.7527   -0.8759 C   0  0  0  0  0  0  0  0  0  0  0  0
    7.9134    1.2889   -1.2979 C   0  0  0  0  0  0  0  0  0  0  0  0
    8.1220   -0.0891   -1.2954 C   0  0  0  0  0  0  0  0  0  0  0  0
    7.0587   -1.0063   -1.0242 C   0  0  0  0  0  0  0  0  0  0  0  0
    0.8205    0.3542    0.7927 H   0  0  0  0  0  0  0  0  0  0  0  0
    0.5025   -1.1702   -0.4116 H   0  0  0  0  0  0  0  0  0  0  0  0
    5.1360   -5.6308    0.4447 H   0  0  0  0  0  0  0  0  0  0  0  0
    4.5045   -8.0238    0.1354 H   0  0  0  0  0  0  0  0  0  0  0  0
    2.1452   -8.6564   -0.3231 H   0  0  0  0  0  0  0  0  0  0  0  0
    0.4511   -6.8574   -0.5955 H   0  0  0  0  0  0  0  0  0  0  0  0
    1.2154   -4.6304   -1.0706 H   0  0  0  0  0  0  0  0  0  0  0  0
    4.9063    1.3020    0.0456 H   0  0  0  0  0  0  0  0  0  0  0  0
    6.4782    2.8185   -0.8213 H   0  0  0  0  0  0  0  0  0  0  0  0
    8.6879    1.9967   -1.5850 H   0  0  0  0  0  0  0  0  0  0  0  0
    9.1267   -0.4461   -1.5170 H   0  0  0  0  0  0  0  0  0  0  0  0
    7.2794   -2.0645   -1.1365 H   0  0  0  0  0  0  0  0  0  0  0  0
  1  2  1  0  0  0  0
  1 24  1  0  0  0  0
  2  3  2  0  0  0  0
  2  4  1  0  0  0  0
  4  5  2  0  0  0  0
  4  8  1  0  0  0  0
  5  6  1  0  0  0  0
  5 18  1  0  0  0  0
  6  7  1  0  0  0  0
  7  8  2  0  0  0  0
  7 12  1  0  0  0  0
  8  9  1  0  0  0  0
  9 10  2  0  0  0  0
  9 11  1  0  0  0  0
 11 25  1  0  0  0  0
 12 13  2  0  0  0  0
 12 17  1  0  0  0  0
 13 14  1  0  0  0  0
 13 26  1  0  0  0  0
 14 15  2  0  0  0  0
 14 27  1  0  0  0  0
 15 16  1  0  0  0  0
 15 28  1  0  0  0  0
 16 17  2  0  0  0  0
 16 29  1  0  0  0  0
 17 30  1  0  0  0  0
 18 19  2  0  0  0  0
 18 23  1  0  0  0  0
 19 20  1  0  0  0  0
 19 31  1  0  0  0  0
 20 21  2  0  0  0  0
 20 32  1  0  0  0  0
 21 22  1  0  0  0  0
 21 33  1  0  0  0  0
 22 23  2  0  0  0  0
 22 34  1  0  0  0  0
 23 35  1  0  0  0  0
M  END
$$$$
