VIO
 OpenBabel04121316203D

 34 33  0  0  1  0  0  0  0  0999 V2000
    1.0126   -0.0465    0.0633 C   0  0  0  0  0  0  0  0  0  0  0  0
    2.5231   -0.0477    0.0619 C   0  0  0  0  0  0  0  0  0  0  0  0
    3.1158   -1.0841   -0.8916 C   0  0  0  0  0  0  0  0  0  0  0  0
    4.6081   -1.0741   -0.8716 C   0  0  0  0  0  0  0  0  0  0  0  0
    5.2538   -0.2246   -0.0966 N   0  3  0  0  0  0  0  0  0  0  0  0
    6.2608   -0.1756   -0.0563 H   0  0  0  0  0  0  0  0  0  0  0  0
    4.7766    0.4374    0.5011 H   0  0  0  0  0  0  0  0  0  0  0  0
    5.2515   -1.9331   -1.6409 N   0  0  0  0  0  0  0  0  0  0  0  0
    6.7193   -1.9680   -1.6507 C   0  0  0  0  0  0  0  0  0  0  0  0
    7.1893   -2.9988   -2.6358 C   0  0  0  0  0  0  0  0  0  0  0  0
    8.7126   -3.0421   -2.7135 C   0  0  0  0  0  0  0  0  0  0  0  0
    9.2182   -4.1014   -3.7014 C   0  0  1  0  0  0  0  0  0  0  0  0
    8.8433   -5.0947   -3.4320 H   0  0  0  0  0  0  0  0  0  0  0  0
    8.8058   -3.7923   -5.1668 C   0  0  0  0  0  0  0  0  0  0  0  0
    9.5887   -3.4429   -6.0471 O   0  0  0  0  0  0  0  0  0  0  0  0
    7.4819   -3.8799   -5.4300 O   0  0  0  0  0  0  0  0  0  0  0  0
   10.6866   -4.1408   -3.6110 N   0  0  0  0  0  0  0  0  0  0  0  0
    0.6479    0.7128    0.7622 H   0  0  0  0  0  0  0  0  0  0  0  0
    0.6256   -1.0193    0.3779 H   0  0  0  0  0  0  0  0  0  0  0  0
    0.6254    0.1863   -0.9322 H   0  0  0  0  0  0  0  0  0  0  0  0
    2.8755   -0.2454    1.0820 H   0  0  0  0  0  0  0  0  0  0  0  0
    2.8755    0.9525   -0.2195 H   0  0  0  0  0  0  0  0  0  0  0  0
    2.7637   -0.8899   -1.9132 H   0  0  0  0  0  0  0  0  0  0  0  0
    2.7584   -2.0848   -0.6154 H   0  0  0  0  0  0  0  0  0  0  0  0
    4.6943   -2.5526   -2.2287 H   0  0  0  0  0  0  0  0  0  0  0  0
    7.0764   -2.1952   -0.6419 H   0  0  0  0  0  0  0  0  0  0  0  0
    7.0810   -0.9799   -1.9574 H   0  0  0  0  0  0  0  0  0  0  0  0
    6.7648   -2.6903   -3.5916 H   0  0  0  0  0  0  0  0  0  0  0  0
    6.7901   -3.9880   -2.3832 H   0  0  0  0  0  0  0  0  0  0  0  0
    9.1087   -3.2520   -1.7086 H   0  0  0  0  0  0  0  0  0  0  0  0
    9.0891   -2.0494   -2.9948 H   0  0  0  0  0  0  0  0  0  0  0  0
    6.9233   -4.2743   -4.7393 H   0  0  0  0  0  0  0  0  0  0  0  0
   11.0316   -4.2635   -2.6636 H   0  0  0  0  0  0  0  0  0  0  0  0
   11.0800   -3.2697   -3.9785 H   0  0  0  0  0  0  0  0  0  0  0  0
  1  2  1  0  0  0  0
  1 18  1  0  0  0  0
  1 19  1  0  0  0  0
  1 20  1  0  0  0  0
  2  3  1  0  0  0  0
  2 21  1  0  0  0  0
  2 22  1  0  0  0  0
  3  4  1  0  0  0  0
  3 23  1  0  0  0  0
  3 24  1  0  0  0  0
  4  5  2  0  0  0  0
  4  8  1  0  0  0  0
  5  6  1  0  0  0  0
  5  7  1  0  0  0  0
  8  9  1  0  0  0  0
  8 25  1  0  0  0  0
  9 10  1  0  0  0  0
  9 26  1  0  0  0  0
  9 27  1  0  0  0  0
 10 11  1  0  0  0  0
 10 28  1  0  0  0  0
 10 29  1  0  0  0  0
 11 12  1  0  0  0  0
 11 30  1  0  0  0  0
 11 31  1  0  0  0  0
 12 13  1  1  0  0  0
 12 14  1  0  0  0  0
 12 17  1  0  0  0  0
 14 15  2  0  0  0  0
 14 16  1  0  0  0  0
 16 32  1  0  0  0  0
 17 33  1  0  0  0  0
 17 34  1  0  0  0  0
M  CHG  1   5   1
M  END
$$$$
