VMS
 OpenBabel04121316203D

 53 55  0  0  1  0  0  0  0  0999 V2000
    0.9806    0.0995   -0.0730 C   0  0  0  0  0  0  0  0  0  0  0  0
    2.5171    0.0845   -0.0581 C   0  0  0  0  0  0  0  0  0  0  0  0
    3.0777   -0.1395    1.3701 C   0  0  1  0  0  0  0  0  0  0  0  0
    2.7569   -1.1118    1.7617 H   0  0  0  0  0  0  0  0  0  0  0  0
    4.6415   -0.0831    1.4301 C   0  0  0  0  0  0  0  0  0  0  0  0
    5.2206    0.8098    2.0430 O   0  0  0  0  0  0  0  0  0  0  0  0
    5.3711   -1.0964    0.7655 N   0  0  0  0  0  0  0  0  0  0  0  0
    7.0327   -1.0076    0.7179 S   0  0  0  0  0  0  0  0  0  0  0  0
    7.3910    0.2348    0.0626 O   0  0  0  0  0  0  0  0  0  0  0  0
    7.5053   -1.3579    2.0339 O   0  0  0  0  0  0  0  0  0  0  0  0
    7.5322   -2.2001   -0.2813 O   0  0  0  0  0  0  0  0  0  0  0  0
    8.9609   -2.3451   -0.3641 C   0  0  0  0  0  0  0  0  0  0  0  0
    9.4292   -3.5123   -1.2489 C   0  0  1  0  0  0  0  0  0  0  0  0
    9.3733   -3.1901   -2.2987 H   0  0  0  0  0  0  0  0  0  0  0  0
   10.8044   -3.8981   -0.9782 O   0  0  0  0  0  0  0  0  0  0  0  0
   10.9354   -5.2380   -1.5231 C   0  0  2  0  0  0  0  0  0  0  0  0
   11.0741   -5.1500   -2.6072 H   0  0  0  0  0  0  0  0  0  0  0  0
    9.6080   -5.9346   -1.1912 C   0  0  1  0  0  0  0  0  0  0  0  0
    9.6729   -6.4677   -0.2355 H   0  0  0  0  0  0  0  0  0  0  0  0
    8.6088   -4.7772   -1.0333 C   0  0  2  0  0  0  0  0  0  0  0  0
    8.2013   -4.7927   -0.0173 H   0  0  0  0  0  0  0  0  0  0  0  0
    7.5099   -4.8230   -1.9358 O   0  0  0  0  0  0  0  0  0  0  0  0
    9.1687   -6.8707   -2.1729 O   0  0  0  0  0  0  0  0  0  0  0  0
   12.1206   -5.9068   -0.9979 N   0  0  0  0  0  0  0  0  0  0  0  0
   12.5631   -5.9395    0.2997 C   0  0  0  0  0  0  0  0  0  0  0  0
   13.7149   -6.5708    0.4198 N   0  0  0  0  0  0  0  0  0  0  0  0
   14.0324   -6.9830   -0.8577 C   0  0  0  0  0  0  0  0  0  0  0  0
   13.0253   -6.6289   -1.7445 C   0  0  0  0  0  0  0  0  0  0  0  0
   12.9741   -6.9136   -3.0575 N   0  0  0  0  0  0  0  0  0  0  0  0
   14.0886   -7.5720   -3.4522 C   0  0  0  0  0  0  0  0  0  0  0  0
   15.1523   -7.9512   -2.7103 N   0  0  0  0  0  0  0  0  0  0  0  0
   15.1447   -7.6669   -1.3879 C   0  0  0  0  0  0  0  0  0  0  0  0
   16.2231   -8.0579   -0.6249 N   0  0  0  0  0  0  0  0  0  0  0  0
    2.5468    0.8986    2.2925 N   0  0  0  0  0  0  0  0  0  0  0  0
    2.9656   -1.0017   -1.0403 C   0  0  0  0  0  0  0  0  0  0  0  0
    0.5656    0.9160    0.5236 H   0  0  0  0  0  0  0  0  0  0  0  0
    0.5820   -0.8450    0.3142 H   0  0  0  0  0  0  0  0  0  0  0  0
    0.6049    0.2361   -1.0920 H   0  0  0  0  0  0  0  0  0  0  0  0
    2.8786    1.0501   -0.4365 H   0  0  0  0  0  0  0  0  0  0  0  0
    4.9466   -1.8807    0.2903 H   0  0  0  0  0  0  0  0  0  0  0  0
    9.3605   -2.4865    0.6457 H   0  0  0  0  0  0  0  0  0  0  0  0
    9.3867   -1.4113   -0.7515 H   0  0  0  0  0  0  0  0  0  0  0  0
    7.1820   -5.7414   -1.9199 H   0  0  0  0  0  0  0  0  0  0  0  0
    9.8774   -7.5287   -2.3049 H   0  0  0  0  0  0  0  0  0  0  0  0
   12.0233   -5.4849    1.1204 H   0  0  0  0  0  0  0  0  0  0  0  0
   14.1424   -7.8276   -4.5078 H   0  0  0  0  0  0  0  0  0  0  0  0
   17.0088   -8.4949   -1.0802 H   0  0  0  0  0  0  0  0  0  0  0  0
   16.2462   -7.8013    0.3518 H   0  0  0  0  0  0  0  0  0  0  0  0
    1.5329    0.9480    2.2829 H   0  0  0  0  0  0  0  0  0  0  0  0
    2.8929    1.8138    1.9897 H   0  0  0  0  0  0  0  0  0  0  0  0
    2.7085   -1.9971   -0.6603 H   0  0  0  0  0  0  0  0  0  0  0  0
    4.0380   -0.9562   -1.2321 H   0  0  0  0  0  0  0  0  0  0  0  0
    2.4964   -0.8737   -2.0196 H   0  0  0  0  0  0  0  0  0  0  0  0
  1  2  1  0  0  0  0
  1 36  1  0  0  0  0
  1 37  1  0  0  0  0
  1 38  1  0  0  0  0
  2  3  1  0  0  0  0
  2 35  1  0  0  0  0
  2 39  1  0  0  0  0
  3  4  1  1  0  0  0
  3  5  1  0  0  0  0
  3 34  1  0  0  0  0
  5  6  2  0  0  0  0
  5  7  1  0  0  0  0
  7  8  1  0  0  0  0
  7 40  1  0  0  0  0
  8  9  2  0  0  0  0
  8 10  2  0  0  0  0
  8 11  1  0  0  0  0
 11 12  1  0  0  0  0
 12 13  1  0  0  0  0
 12 41  1  0  0  0  0
 12 42  1  0  0  0  0
 13 14  1  6  0  0  0
 13 15  1  0  0  0  0
 13 20  1  0  0  0  0
 15 16  1  0  0  0  0
 16 18  1  0  0  0  0
 16 24  1  0  0  0  0
 16 17  1  6  0  0  0
 18 19  1  1  0  0  0
 18 20  1  0  0  0  0
 18 23  1  0  0  0  0
 20 21  1  1  0  0  0
 20 22  1  0  0  0  0
 22 43  1  0  0  0  0
 23 44  1  0  0  0  0
 24 25  1  0  0  0  0
 24 28  1  0  0  0  0
 25 26  2  0  0  0  0
 25 45  1  0  0  0  0
 26 27  1  0  0  0  0
 27 28  2  0  0  0  0
 27 32  1  0  0  0  0
 28 29  1  0  0  0  0
 29 30  2  0  0  0  0
 30 31  1  0  0  0  0
 30 46  1  0  0  0  0
 31 32  2  0  0  0  0
 32 33  1  0  0  0  0
 33 47  1  0  0  0  0
 33 48  1  0  0  0  0
 34 49  1  0  0  0  0
 34 50  1  0  0  0  0
 35 51  1  0  0  0  0
 35 52  1  0  0  0  0
 35 53  1  0  0  0  0
M  END
$$$$
