VSV
 OpenBabel04121316203D

 55 57  0  0  1  0  0  0  0  0999 V2000
    6.1553   -6.5458   -0.8217 O   0  0  0  0  0  0  0  0  0  0  0  0
    5.2756   -5.5239   -0.8973 C   0  0  0  0  0  0  0  0  0  0  0  0
    4.0712   -5.6656   -0.7731 O   0  0  0  0  0  0  0  0  0  0  0  0
    5.9727   -4.2416   -1.2398 C   0  0  0  0  0  0  0  0  0  0  0  0
    4.9565   -3.0963   -1.3513 C   0  0  0  0  0  0  0  0  0  0  0  0
    5.4307   -1.6816   -1.7422 C   0  0  2  0  0  0  0  0  0  0  0  0
    4.9130   -0.9580   -1.0941 H   0  0  0  0  0  0  0  0  0  0  0  0
    5.0372   -1.2630   -3.1897 C   0  0  0  0  0  0  0  0  0  0  0  0
    5.7993   -0.7549   -4.0025 O   0  0  0  0  0  0  0  0  0  0  0  0
    3.7183   -1.3885   -3.4763 O   0  0  0  0  0  0  0  0  0  0  0  0
    6.8426   -1.4488   -1.5065 N   0  0  0  0  0  0  0  0  0  0  0  0
    7.7558   -2.1099   -2.2886 C   0  0  0  0  0  0  0  0  0  0  0  0
    7.4789   -2.8953   -3.1874 O   0  0  0  0  0  0  0  0  0  0  0  0
    9.1581   -1.8985   -1.9801 C   0  0  0  0  0  0  0  0  0  0  0  0
    9.7078   -0.6296   -1.9699 C   0  0  0  0  0  0  0  0  0  0  0  0
   11.0861   -0.5040   -1.8698 C   0  0  0  0  0  0  0  0  0  0  0  0
   11.8948   -1.6379   -1.9246 C   0  0  0  0  0  0  0  0  0  0  0  0
   11.3313   -2.9173   -1.9351 C   0  0  0  0  0  0  0  0  0  0  0  0
    9.9443   -3.0343   -1.8719 C   0  0  0  0  0  0  0  0  0  0  0  0
   12.2504   -4.0877   -2.1037 C   0  0  0  0  0  0  0  0  0  0  0  0
   11.5498   -5.3280   -1.9717 N   0  0  0  0  0  0  0  0  0  0  0  0
   12.1552   -6.5127   -2.2992 C   0  0  0  0  0  0  0  0  0  0  0  0
   13.4481   -6.6540   -2.8041 C   0  0  0  0  0  0  0  0  0  0  0  0
   13.9423   -7.9131   -3.1517 C   0  0  0  0  0  0  0  0  0  0  0  0
   13.2131   -9.0516   -2.8176 C   0  0  0  0  0  0  0  0  0  0  0  0
   12.0507   -8.8543   -2.0702 C   0  0  0  0  0  0  0  0  0  0  0  0
   11.4516   -7.6335   -1.9373 C   0  0  0  0  0  0  0  0  0  0  0  0
   13.6645  -10.3989   -3.2242 C   0  0  0  0  0  0  0  0  0  0  0  0
   12.9923  -11.5492   -3.0299 C   0  0  0  0  0  0  0  0  0  0  0  0
   11.4592  -11.8079   -2.2579 S   0  0  0  0  0  0  0  0  0  0  0  0
   12.0875  -13.2091   -1.4822 C   0  0  0  0  0  0  0  0  0  0  0  0
   11.8207  -13.5428   -0.3332 O   0  0  0  0  0  0  0  0  0  0  0  0
   12.9563  -13.7658   -2.3490 N   0  0  0  0  0  0  0  0  0  0  0  0
   13.5363  -12.9151   -3.2644 C   0  0  0  0  0  0  0  0  0  0  0  0
   14.3410  -13.2233   -4.1229 O   0  0  0  0  0  0  0  0  0  0  0  0
    6.2336   -6.9583   -1.7062 H   0  0  0  0  0  0  0  0  0  0  0  0
    6.4380   -4.4578   -2.2013 H   0  0  0  0  0  0  0  0  0  0  0  0
    6.7376   -4.0339   -0.4824 H   0  0  0  0  0  0  0  0  0  0  0  0
    4.4599   -3.0167   -0.3750 H   0  0  0  0  0  0  0  0  0  0  0  0
    4.1857   -3.4174   -2.0574 H   0  0  0  0  0  0  0  0  0  0  0  0
    3.1483   -1.7382   -2.7684 H   0  0  0  0  0  0  0  0  0  0  0  0
    7.1518   -0.7628   -0.8280 H   0  0  0  0  0  0  0  0  0  0  0  0
    9.0726    0.2389   -2.0952 H   0  0  0  0  0  0  0  0  0  0  0  0
   11.5370    0.4783   -1.8033 H   0  0  0  0  0  0  0  0  0  0  0  0
   12.9756   -1.5275   -1.9795 H   0  0  0  0  0  0  0  0  0  0  0  0
    9.4270   -3.9859   -1.8002 H   0  0  0  0  0  0  0  0  0  0  0  0
   13.0137   -4.0581   -1.3195 H   0  0  0  0  0  0  0  0  0  0  0  0
   12.7363   -4.0035   -3.0844 H   0  0  0  0  0  0  0  0  0  0  0  0
   10.5553   -5.3585   -2.1511 H   0  0  0  0  0  0  0  0  0  0  0  0
   14.0750   -5.7857   -2.9718 H   0  0  0  0  0  0  0  0  0  0  0  0
   14.9001   -7.9705   -3.6615 H   0  0  0  0  0  0  0  0  0  0  0  0
   11.5283   -9.6159   -1.5260 H   0  0  0  0  0  0  0  0  0  0  0  0
   10.4702   -7.5763   -1.4733 H   0  0  0  0  0  0  0  0  0  0  0  0
   14.6381  -10.4227   -3.7197 H   0  0  0  0  0  0  0  0  0  0  0  0
   13.2400  -14.7228   -2.2449 H   0  0  0  0  0  0  0  0  0  0  0  0
  1  2  1  0  0  0  0
  1 36  1  0  0  0  0
  2  3  2  0  0  0  0
  2  4  1  0  0  0  0
  4  5  1  0  0  0  0
  4 37  1  0  0  0  0
  4 38  1  0  0  0  0
  5 39  1  0  0  0  0
  5 40  1  0  0  0  0
  6  8  1  0  0  0  0
  6 11  1  0  0  0  0
  6  7  1  1  0  0  0
  6  5  1  0  0  0  0
  8  9  2  0  0  0  0
  8 10  1  0  0  0  0
 10 41  1  0  0  0  0
 11 12  1  0  0  0  0
 11 42  1  0  0  0  0
 12 13  2  0  0  0  0
 12 14  1  0  0  0  0
 14 15  2  0  0  0  0
 14 19  1  0  0  0  0
 15 16  1  0  0  0  0
 15 43  1  0  0  0  0
 16 17  2  0  0  0  0
 16 44  1  0  0  0  0
 17 18  1  0  0  0  0
 17 45  1  0  0  0  0
 18 19  2  0  0  0  0
 18 20  1  0  0  0  0
 19 46  1  0  0  0  0
 20 21  1  0  0  0  0
 20 47  1  0  0  0  0
 20 48  1  0  0  0  0
 21 22  1  0  0  0  0
 21 49  1  0  0  0  0
 22 23  2  0  0  0  0
 22 27  1  0  0  0  0
 23 24  1  0  0  0  0
 23 50  1  0  0  0  0
 24 25  2  0  0  0  0
 24 51  1  0  0  0  0
 25 26  1  0  0  0  0
 25 28  1  0  0  0  0
 26 27  2  0  0  0  0
 26 52  1  0  0  0  0
 27 53  1  0  0  0  0
 28 29  2  0  0  0  0
 28 54  1  0  0  0  0
 29 30  1  0  0  0  0
 29 34  1  0  0  0  0
 30 31  1  0  0  0  0
 31 32  2  0  0  0  0
 31 33  1  0  0  0  0
 33 34  1  0  0  0  0
 33 55  1  0  0  0  0
 34 35  2  0  0  0  0
M  END
$$$$
