VX2
 OpenBabel04121316203D

 44 47  0  0  0  0  0  0  0  0999 V2000
    0.9973    0.2343    0.0073 F   0  0  0  0  0  0  0  0  0  0  0  0
    2.3511    0.1101    0.0762 C   0  0  0  0  0  0  0  0  0  0  0  0
    2.7849   -1.1428    0.7860 C   0  0  0  0  0  0  0  0  0  0  0  0
    3.8779   -1.1498    1.6628 C   0  0  0  0  0  0  0  0  0  0  0  0
    4.2644   -2.3298    2.2858 C   0  0  0  0  0  0  0  0  0  0  0  0
    3.6527   -3.5273    1.9326 C   0  0  0  0  0  0  0  0  0  0  0  0
    2.5928   -3.5618    1.0231 C   0  0  0  0  0  0  0  0  0  0  0  0
    2.1161   -2.3457    0.5166 C   0  0  0  0  0  0  0  0  0  0  0  0
    2.0096   -4.8103    0.5381 C   0  0  0  0  0  0  0  0  0  0  0  0
    0.9983   -4.8826   -0.3192 N   0  0  0  0  0  0  0  0  0  0  0  0
    0.7570   -6.1947   -0.6153 N   0  0  0  0  0  0  0  0  0  0  0  0
    1.6152   -6.9130    0.0739 C   0  0  0  0  0  0  0  0  0  0  0  0
    2.4237   -6.1006    0.8442 N   0  0  0  0  0  0  0  0  0  0  0  0
    3.3812   -6.5265    1.7697 N   0  0  0  0  0  0  0  0  0  0  0  0
    3.4174   -7.8227    1.9354 C   0  0  0  0  0  0  0  0  0  0  0  0
    2.5658   -8.7440    1.1779 C   0  0  0  0  0  0  0  0  0  0  0  0
    1.7604   -8.2919    0.2081 C   0  0  0  0  0  0  0  0  0  0  0  0
    4.2701   -8.3863    2.8629 N   0  0  0  0  0  0  0  0  0  0  0  0
    5.2517   -9.4681    2.6032 C   0  0  0  0  0  0  0  0  0  0  0  0
    4.9344  -10.9318    2.1900 C   0  0  0  0  0  0  0  0  0  0  0  0
    4.6467  -11.2446    0.7169 C   0  0  0  0  0  0  0  0  0  0  0  0
    5.5633  -10.4750   -0.2252 C   0  0  0  0  0  0  0  0  0  0  0  0
    5.7557   -9.0190    0.1739 C   0  0  0  0  0  0  0  0  0  0  0  0
    6.2616   -8.8863    1.6167 C   0  0  0  0  0  0  0  0  0  0  0  0
    2.7989    0.1537   -1.2092 F   0  0  0  0  0  0  0  0  0  0  0  0
    2.8027    1.2491    0.6693 F   0  0  0  0  0  0  0  0  0  0  0  0
    4.4321   -0.2369    1.8688 H   0  0  0  0  0  0  0  0  0  0  0  0
    5.0577   -2.3403    3.0277 H   0  0  0  0  0  0  0  0  0  0  0  0
    4.0439   -4.4322    2.3813 H   0  0  0  0  0  0  0  0  0  0  0  0
    1.2335   -2.3308   -0.1274 H   0  0  0  0  0  0  0  0  0  0  0  0
    2.6666   -9.7725    1.4199 H   0  0  0  0  0  0  0  0  0  0  0  0
    1.1973   -8.9794   -0.3979 H   0  0  0  0  0  0  0  0  0  0  0  0
    4.7901   -7.6103    3.2858 H   0  0  0  0  0  0  0  0  0  0  0  0
    5.6702   -9.6098    3.6091 H   0  0  0  0  0  0  0  0  0  0  0  0
    4.2215  -11.4428    2.8461 H   0  0  0  0  0  0  0  0  0  0  0  0
    5.8870  -11.4666    2.3654 H   0  0  0  0  0  0  0  0  0  0  0  0
    3.6019  -11.0746    0.4599 H   0  0  0  0  0  0  0  0  0  0  0  0
    4.7687  -12.3216    0.5312 H   0  0  0  0  0  0  0  0  0  0  0  0
    5.1613  -10.5338   -1.2429 H   0  0  0  0  0  0  0  0  0  0  0  0
    6.5458  -10.9571   -0.2322 H   0  0  0  0  0  0  0  0  0  0  0  0
    4.8119   -8.4940    0.0215 H   0  0  0  0  0  0  0  0  0  0  0  0
    6.4520   -8.5198   -0.5031 H   0  0  0  0  0  0  0  0  0  0  0  0
    6.4379   -7.8265    1.8339 H   0  0  0  0  0  0  0  0  0  0  0  0
    7.2212   -9.3994    1.7348 H   0  0  0  0  0  0  0  0  0  0  0  0
  1  2  1  0  0  0  0
  2  3  1  0  0  0  0
  2 25  1  0  0  0  0
  2 26  1  0  0  0  0
  3  4  2  0  0  0  0
  3  8  1  0  0  0  0
  4  5  1  0  0  0  0
  4 27  1  0  0  0  0
  5  6  2  0  0  0  0
  5 28  1  0  0  0  0
  6  7  1  0  0  0  0
  6 29  1  0  0  0  0
  7  8  2  0  0  0  0
  7  9  1  0  0  0  0
  8 30  1  0  0  0  0
  9 10  2  0  0  0  0
  9 13  1  0  0  0  0
 10 11  1  0  0  0  0
 11 12  2  0  0  0  0
 12 13  1  0  0  0  0
 12 17  1  0  0  0  0
 13 14  1  0  0  0  0
 14 15  2  0  0  0  0
 15 16  1  0  0  0  0
 15 18  1  0  0  0  0
 16 17  2  0  0  0  0
 16 31  1  0  0  0  0
 17 32  1  0  0  0  0
 18 19  1  0  0  0  0
 18 33  1  0  0  0  0
 19 20  1  0  0  0  0
 19 24  1  0  0  0  0
 19 34  1  0  0  0  0
 20 21  1  0  0  0  0
 20 35  1  0  0  0  0
 20 36  1  0  0  0  0
 21 22  1  0  0  0  0
 21 37  1  0  0  0  0
 21 38  1  0  0  0  0
 22 23  1  0  0  0  0
 22 39  1  0  0  0  0
 22 40  1  0  0  0  0
 23 24  1  0  0  0  0
 23 41  1  0  0  0  0
 23 42  1  0  0  0  0
 24 43  1  0  0  0  0
 24 44  1  0  0  0  0
M  END
$$$$
