VX6
 OpenBabel04121316203D

 61 65  0  0  0  0  0  0  0  0999 V2000
    0.9131    0.0588    0.0241 C   0  0  0  0  0  0  0  0  0  0  0  0
    2.3788    0.0590   -0.0264 N   0  0  0  0  0  0  0  0  0  0  0  0
    2.8696   -1.2825   -0.4046 C   0  0  0  0  0  0  0  0  0  0  0  0
    2.4629   -1.6876   -1.8300 C   0  0  0  0  0  0  0  0  0  0  0  0
    2.9351   -0.6748   -2.7926 N   0  0  0  0  0  0  0  0  0  0  0  0
    2.5107    0.6923   -2.5043 C   0  0  0  0  0  0  0  0  0  0  0  0
    2.8707    1.0376   -1.0389 C   0  0  0  0  0  0  0  0  0  0  0  0
    3.7737   -0.9419   -3.8544 C   0  0  0  0  0  0  0  0  0  0  0  0
    4.3648    0.0214   -4.5665 N   0  0  0  0  0  0  0  0  0  0  0  0
    5.1245   -0.3746   -5.6031 C   0  0  0  0  0  0  0  0  0  0  0  0
    6.0657    0.9126   -6.4386 S   0  0  0  0  0  0  0  0  0  0  0  0
    6.8877    0.1895   -7.8467 C   0  0  0  0  0  0  0  0  0  0  0  0
    7.5292    0.9883   -8.8066 C   0  0  0  0  0  0  0  0  0  0  0  0
    7.9933    0.4357  -10.0261 C   0  0  0  0  0  0  0  0  0  0  0  0
    7.9355   -0.9422  -10.2323 C   0  0  0  0  0  0  0  0  0  0  0  0
    7.5020   -1.7231   -9.1856 C   0  0  0  0  0  0  0  0  0  0  0  0
    6.9399   -1.1700   -8.0660 C   0  0  0  0  0  0  0  0  0  0  0  0
    8.2776   -1.5493  -11.4580 N   0  0  0  0  0  0  0  0  0  0  0  0
    8.1416   -2.9096  -11.6812 C   0  0  0  0  0  0  0  0  0  0  0  0
    7.7341   -3.7608  -10.8903 O   0  0  0  0  0  0  0  0  0  0  0  0
    8.4772   -3.3989  -13.0319 C   0  0  0  0  0  0  0  0  0  0  0  0
    8.4286   -4.9073  -13.2375 C   0  0  0  0  0  0  0  0  0  0  0  0
    7.3825   -4.0292  -13.8604 C   0  0  0  0  0  0  0  0  0  0  0  0
    5.2426   -1.6582   -6.0035 N   0  0  0  0  0  0  0  0  0  0  0  0
    4.6657   -2.6230   -5.3117 C   0  0  0  0  0  0  0  0  0  0  0  0
    3.9939   -2.2499   -4.1922 C   0  0  0  0  0  0  0  0  0  0  0  0
    4.7703   -3.9871   -5.7015 N   0  0  0  0  0  0  0  0  0  0  0  0
    4.1365   -5.0328   -5.0930 C   0  0  0  0  0  0  0  0  0  0  0  0
    4.4874   -6.3590   -5.2271 N   0  0  0  0  0  0  0  0  0  0  0  0
    5.1672   -6.7717   -5.8558 H   0  0  0  0  0  0  0  0  0  0  0  0
    3.8578   -7.1784   -4.3348 N   0  0  0  0  0  0  0  0  0  0  0  0
    3.0075   -6.3604   -3.7090 C   0  0  0  0  0  0  0  0  0  0  0  0
    3.0556   -5.0784   -4.2467 C   0  0  0  0  0  0  0  0  0  0  0  0
    2.1074   -6.6948   -2.5846 C   0  0  0  0  0  0  0  0  0  0  0  0
    0.5553   -0.6807    0.7484 H   0  0  0  0  0  0  0  0  0  0  0  0
    0.4363   -0.1758   -0.9333 H   0  0  0  0  0  0  0  0  0  0  0  0
    0.5437    1.0382    0.3366 H   0  0  0  0  0  0  0  0  0  0  0  0
    2.5105   -2.0390    0.3043 H   0  0  0  0  0  0  0  0  0  0  0  0
    3.9668   -1.3045   -0.3302 H   0  0  0  0  0  0  0  0  0  0  0  0
    1.3761   -1.7867   -1.9264 H   0  0  0  0  0  0  0  0  0  0  0  0
    2.8426   -2.7008   -1.9607 H   0  0  0  0  0  0  0  0  0  0  0  0
    1.4234    0.7462   -2.6402 H   0  0  0  0  0  0  0  0  0  0  0  0
    2.9325    1.4387   -3.1844 H   0  0  0  0  0  0  0  0  0  0  0  0
    2.4950    2.0357   -0.7918 H   0  0  0  0  0  0  0  0  0  0  0  0
    3.9653    1.0933   -0.9555 H   0  0  0  0  0  0  0  0  0  0  0  0
    7.6634    2.0530   -8.6260 H   0  0  0  0  0  0  0  0  0  0  0  0
    8.3840    1.1005  -10.7906 H   0  0  0  0  0  0  0  0  0  0  0  0
    7.5173   -2.8017   -9.1662 H   0  0  0  0  0  0  0  0  0  0  0  0
    6.5553   -1.9302   -7.4207 H   0  0  0  0  0  0  0  0  0  0  0  0
    8.5418   -0.9456  -12.2254 H   0  0  0  0  0  0  0  0  0  0  0  0
    9.2723   -2.8666  -13.5391 H   0  0  0  0  0  0  0  0  0  0  0  0
    8.1226   -5.5316  -12.3979 H   0  0  0  0  0  0  0  0  0  0  0  0
    9.1961   -5.3683  -13.8406 H   0  0  0  0  0  0  0  0  0  0  0  0
    6.3840   -4.0631  -13.4304 H   0  0  0  0  0  0  0  0  0  0  0  0
    7.3958   -3.8846  -14.9307 H   0  0  0  0  0  0  0  0  0  0  0  0
    3.6349   -2.9990   -3.5431 H   0  0  0  0  0  0  0  0  0  0  0  0
    5.3876   -4.0997   -6.5017 H   0  0  0  0  0  0  0  0  0  0  0  0
    2.3981   -4.2922   -3.9209 H   0  0  0  0  0  0  0  0  0  0  0  0
    2.0706   -7.7560   -2.3520 H   0  0  0  0  0  0  0  0  0  0  0  0
    1.0971   -6.3399   -2.8276 H   0  0  0  0  0  0  0  0  0  0  0  0
    2.4177   -6.1361   -1.6899 H   0  0  0  0  0  0  0  0  0  0  0  0
  1  2  1  0  0  0  0
  1 35  1  0  0  0  0
  1 36  1  0  0  0  0
  1 37  1  0  0  0  0
  2  3  1  0  0  0  0
  2  7  1  0  0  0  0
  3  4  1  0  0  0  0
  3 38  1  0  0  0  0
  3 39  1  0  0  0  0
  4  5  1  0  0  0  0
  4 40  1  0  0  0  0
  4 41  1  0  0  0  0
  5  6  1  0  0  0  0
  5  8  1  0  0  0  0
  6  7  1  0  0  0  0
  6 42  1  0  0  0  0
  6 43  1  0  0  0  0
  7 44  1  0  0  0  0
  7 45  1  0  0  0  0
  8  9  2  0  0  0  0
  8 26  1  0  0  0  0
  9 10  1  0  0  0  0
 10 11  1  0  0  0  0
 10 24  2  0  0  0  0
 11 12  1  0  0  0  0
 12 13  2  0  0  0  0
 12 17  1  0  0  0  0
 13 14  1  0  0  0  0
 13 46  1  0  0  0  0
 14 15  2  0  0  0  0
 14 47  1  0  0  0  0
 15 16  1  0  0  0  0
 15 18  1  0  0  0  0
 16 17  2  0  0  0  0
 16 48  1  0  0  0  0
 17 49  1  0  0  0  0
 18 19  1  0  0  0  0
 18 50  1  0  0  0  0
 19 20  2  0  0  0  0
 19 21  1  0  0  0  0
 21 22  1  0  0  0  0
 21 23  1  0  0  0  0
 21 51  1  0  0  0  0
 22 23  1  0  0  0  0
 22 52  1  0  0  0  0
 22 53  1  0  0  0  0
 23 54  1  0  0  0  0
 23 55  1  0  0  0  0
 24 25  1  0  0  0  0
 25 26  2  0  0  0  0
 25 27  1  0  0  0  0
 26 56  1  0  0  0  0
 27 28  1  0  0  0  0
 27 57  1  0  0  0  0
 28 29  1  0  0  0  0
 28 33  2  0  0  0  0
 29 30  1  0  0  0  0
 29 31  1  0  0  0  0
 31 32  2  0  0  0  0
 32 33  1  0  0  0  0
 32 34  1  0  0  0  0
 33 58  1  0  0  0  0
 34 59  1  0  0  0  0
 34 60  1  0  0  0  0
 34 61  1  0  0  0  0
M  END
$$$$
