W22
 OpenBabel04121316203D

 31 32  0  0  1  0  0  0  0  0999 V2000
    7.4232    0.0506   -1.2008 O   0  0  0  0  0  0  0  0  0  0  0  0
    6.8288    1.1810   -1.6305 C   0  0  0  0  0  0  0  0  0  0  0  0
    7.4894    2.0446   -2.2074 O   0  0  0  0  0  0  0  0  0  0  0  0
    5.3949    1.4353   -1.2166 C   0  0  0  0  0  0  0  0  0  0  0  0
    4.5583    0.2095   -0.8840 C   0  0  2  0  0  0  0  0  0  0  0  0
    3.4989    0.4870   -1.0173 H   0  0  0  0  0  0  0  0  0  0  0  0
    4.8150   -0.2211    0.5000 N   0  0  0  0  0  0  0  0  0  0  0  0
    3.7032   -0.8403    1.0841 C   0  0  0  0  0  0  0  0  0  0  0  0
    2.8049   -0.1670    1.9206 C   0  0  0  0  0  0  0  0  0  0  0  0
    1.6775   -0.8316    2.4135 C   0  0  0  0  0  0  0  0  0  0  0  0
    1.4647   -2.1723    2.0925 C   0  0  0  0  0  0  0  0  0  0  0  0
    2.3496   -2.8412    1.2443 C   0  0  0  0  0  0  0  0  0  0  0  0
    3.4404   -2.1637    0.6945 C   0  0  0  0  0  0  0  0  0  0  0  0
    4.3739   -2.8097   -0.2973 C   0  0  0  0  0  0  0  0  0  0  0  0
    4.3298   -2.1789   -1.6270 N   0  0  0  0  0  0  0  0  0  0  0  0
    4.8094   -0.9183   -1.9009 C   0  0  0  0  0  0  0  0  0  0  0  0
    5.3567   -0.6904   -2.9827 O   0  0  0  0  0  0  0  0  0  0  0  0
    3.6468   -2.7885   -2.7432 C   0  0  0  0  0  0  0  0  0  0  0  0
    6.9023   -0.7699   -1.2982 H   0  0  0  0  0  0  0  0  0  0  0  0
    4.9023    1.9771   -2.0382 H   0  0  0  0  0  0  0  0  0  0  0  0
    5.4165    2.1251   -0.3628 H   0  0  0  0  0  0  0  0  0  0  0  0
    5.3603    0.3922    1.0970 H   0  0  0  0  0  0  0  0  0  0  0  0
    2.9464    0.8812    2.1714 H   0  0  0  0  0  0  0  0  0  0  0  0
    0.9601   -0.3066    3.0420 H   0  0  0  0  0  0  0  0  0  0  0  0
    0.5958   -2.6930    2.4879 H   0  0  0  0  0  0  0  0  0  0  0  0
    2.1777   -3.8872    1.0084 H   0  0  0  0  0  0  0  0  0  0  0  0
    4.2034   -3.8877   -0.3880 H   0  0  0  0  0  0  0  0  0  0  0  0
    5.4040   -2.7109    0.0827 H   0  0  0  0  0  0  0  0  0  0  0  0
    3.2228   -3.7589   -2.4966 H   0  0  0  0  0  0  0  0  0  0  0  0
    4.3304   -2.8680   -3.5963 H   0  0  0  0  0  0  0  0  0  0  0  0
    2.8503   -2.0936   -3.0403 H   0  0  0  0  0  0  0  0  0  0  0  0
  1  2  1  0  0  0  0
  1 19  1  0  0  0  0
  2  3  2  0  0  0  0
  2  4  1  0  0  0  0
  4 20  1  0  0  0  0
  4 21  1  0  0  0  0
  5  7  1  0  0  0  0
  5 16  1  0  0  0  0
  5  6  1  6  0  0  0
  5  4  1  0  0  0  0
  7  8  1  0  0  0  0
  7 22  1  0  0  0  0
  8  9  2  0  0  0  0
  8 13  1  0  0  0  0
  9 10  1  0  0  0  0
  9 23  1  0  0  0  0
 10 11  2  0  0  0  0
 10 24  1  0  0  0  0
 11 12  1  0  0  0  0
 11 25  1  0  0  0  0
 12 13  2  0  0  0  0
 12 26  1  0  0  0  0
 13 14  1  0  0  0  0
 14 15  1  0  0  0  0
 14 27  1  0  0  0  0
 14 28  1  0  0  0  0
 15 16  1  0  0  0  0
 15 18  1  0  0  0  0
 16 17  2  0  0  0  0
 18 29  1  0  0  0  0
 18 30  1  0  0  0  0
 18 31  1  0  0  0  0
M  END
$$$$
