W35
 OpenBabel04121316203D

 45 47  0  0  0  0  0  0  0  0999 V2000
    0.8874    0.0560    0.0576 C   0  0  0  0  0  0  0  0  0  0  0  0
    2.3607    0.0136    0.0571 C   0  0  0  0  0  0  0  0  0  0  0  0
    3.1287    1.1103    0.0606 N   0  0  0  0  0  0  0  0  0  0  0  0
    4.4429    0.6441    0.0651 O   0  0  0  0  0  0  0  0  0  0  0  0
    4.4265   -0.7143    0.0640 C   0  0  0  0  0  0  0  0  0  0  0  0
    3.1290   -1.1539    0.0557 C   0  0  0  0  0  0  0  0  0  0  0  0
    5.7136   -1.4429    0.0748 C   0  0  0  0  0  0  0  0  0  0  0  0
    5.4171   -2.9444    0.0786 C   0  0  0  0  0  0  0  0  0  0  0  0
    6.6667   -3.7890    0.0917 C   0  0  0  0  0  0  0  0  0  0  0  0
    6.2842   -5.2660    0.1012 C   0  0  0  0  0  0  0  0  0  0  0  0
    7.5455   -6.1046    0.1264 C   0  0  0  0  0  0  0  0  0  0  0  0
    7.2031   -7.4841    0.1972 O   0  0  0  0  0  0  0  0  0  0  0  0
    8.2682   -8.3440    0.1372 C   0  0  0  0  0  0  0  0  0  0  0  0
    9.6101   -7.9676    0.0122 C   0  0  0  0  0  0  0  0  0  0  0  0
   10.6059   -8.9305   -0.1928 C   0  0  0  0  0  0  0  0  0  0  0  0
   10.2752  -10.2847   -0.1703 C   0  0  0  0  0  0  0  0  0  0  0  0
    8.9503  -10.6615    0.0917 C   0  0  0  0  0  0  0  0  0  0  0  0
    7.9448   -9.6967    0.1938 C   0  0  0  0  0  0  0  0  0  0  0  0
   11.2515  -11.3538   -0.4741 C   0  0  0  0  0  0  0  0  0  0  0  0
   11.0118  -12.6183   -0.3618 N   0  0  0  0  0  0  0  0  0  0  0  0
   12.2620  -13.2491   -0.7930 C   0  0  0  0  0  0  0  0  0  0  0  0
   13.0322  -12.1441   -1.4774 C   0  0  0  0  0  0  0  0  0  0  0  0
   12.4506  -10.9472   -0.9684 O   0  0  0  0  0  0  0  0  0  0  0  0
    0.4994    1.0754    0.0594 H   0  0  0  0  0  0  0  0  0  0  0  0
    0.5071   -0.4688    0.9413 H   0  0  0  0  0  0  0  0  0  0  0  0
    0.5061   -0.4666   -0.8269 H   0  0  0  0  0  0  0  0  0  0  0  0
    2.7840   -2.1764    0.0535 H   0  0  0  0  0  0  0  0  0  0  0  0
    6.2951   -1.1714    0.9635 H   0  0  0  0  0  0  0  0  0  0  0  0
    6.3076   -1.1777   -0.8074 H   0  0  0  0  0  0  0  0  0  0  0  0
    4.8209   -3.2057   -0.8070 H   0  0  0  0  0  0  0  0  0  0  0  0
    4.8082   -3.1981    0.9577 H   0  0  0  0  0  0  0  0  0  0  0  0
    7.2633   -3.5491    0.9792 H   0  0  0  0  0  0  0  0  0  0  0  0
    7.2758   -3.5608   -0.7905 H   0  0  0  0  0  0  0  0  0  0  0  0
    5.6817   -5.5178   -0.7815 H   0  0  0  0  0  0  0  0  0  0  0  0
    5.6586   -5.5023    0.9711 H   0  0  0  0  0  0  0  0  0  0  0  0
    8.1314   -5.8328    1.0122 H   0  0  0  0  0  0  0  0  0  0  0  0
    8.1152   -5.8924   -0.7873 H   0  0  0  0  0  0  0  0  0  0  0  0
    9.9141   -6.9267    0.0480 H   0  0  0  0  0  0  0  0  0  0  0  0
   11.6253   -8.6019   -0.3763 H   0  0  0  0  0  0  0  0  0  0  0  0
    8.6880  -11.7126    0.1859 H   0  0  0  0  0  0  0  0  0  0  0  0
    6.9085  -10.0066    0.3058 H   0  0  0  0  0  0  0  0  0  0  0  0
   12.0685  -14.0862   -1.4701 H   0  0  0  0  0  0  0  0  0  0  0  0
   12.7971  -13.6295    0.0832 H   0  0  0  0  0  0  0  0  0  0  0  0
   12.8986  -12.1680   -2.5652 H   0  0  0  0  0  0  0  0  0  0  0  0
   14.1038  -12.1945   -1.2579 H   0  0  0  0  0  0  0  0  0  0  0  0
  1  2  1  0  0  0  0
  1 24  1  0  0  0  0
  1 25  1  0  0  0  0
  1 26  1  0  0  0  0
  2  3  2  0  0  0  0
  2  6  1  0  0  0  0
  3  4  1  0  0  0  0
  4  5  1  0  0  0  0
  5  6  2  0  0  0  0
  5  7  1  0  0  0  0
  6 27  1  0  0  0  0
  7  8  1  0  0  0  0
  7 28  1  0  0  0  0
  7 29  1  0  0  0  0
  8  9  1  0  0  0  0
  8 30  1  0  0  0  0
  8 31  1  0  0  0  0
  9 10  1  0  0  0  0
  9 32  1  0  0  0  0
  9 33  1  0  0  0  0
 10 11  1  0  0  0  0
 10 34  1  0  0  0  0
 10 35  1  0  0  0  0
 11 12  1  0  0  0  0
 11 36  1  0  0  0  0
 11 37  1  0  0  0  0
 12 13  1  0  0  0  0
 13 14  2  0  0  0  0
 13 18  1  0  0  0  0
 14 15  1  0  0  0  0
 14 38  1  0  0  0  0
 15 16  2  0  0  0  0
 15 39  1  0  0  0  0
 16 17  1  0  0  0  0
 16 19  1  0  0  0  0
 17 18  2  0  0  0  0
 17 40  1  0  0  0  0
 18 41  1  0  0  0  0
 19 20  2  0  0  0  0
 19 23  1  0  0  0  0
 20 21  1  0  0  0  0
 21 22  1  0  0  0  0
 21 42  1  0  0  0  0
 21 43  1  0  0  0  0
 22 23  1  0  0  0  0
 22 44  1  0  0  0  0
 22 45  1  0  0  0  0
M  END
$$$$
