W42
 OpenBabel04121316203D

 57 59  0  0  0  0  0  0  0  0999 V2000
    0.9359    0.0954   -0.0234 O   0  0  0  0  0  0  0  0  0  0  0  0
    2.3572    0.0960   -0.0208 C   0  0  0  0  0  0  0  0  0  0  0  0
    2.8550   -0.4995    1.2827 C   0  0  0  0  0  0  0  0  0  0  0  0
    4.2751   -0.5073    1.2870 O   0  0  0  0  0  0  0  0  0  0  0  0
    4.7532   -1.0490    2.5050 C   0  0  0  0  0  0  0  0  0  0  0  0
    6.1647   -1.0397    2.4954 O   0  0  0  0  0  0  0  0  0  0  0  0
    6.6598   -1.5318    3.7326 C   0  0  0  0  0  0  0  0  0  0  0  0
    8.1348   -1.5673    3.7410 C   0  0  0  0  0  0  0  0  0  0  0  0
    8.9026   -0.4693    3.7750 N   0  0  0  0  0  0  0  0  0  0  0  0
   10.2145   -0.9353    3.7599 O   0  0  0  0  0  0  0  0  0  0  0  0
   10.1945   -2.2914    3.7403 C   0  0  0  0  0  0  0  0  0  0  0  0
    8.8998   -2.7340    3.7261 C   0  0  0  0  0  0  0  0  0  0  0  0
   11.4748   -3.0228    3.7451 C   0  0  0  0  0  0  0  0  0  0  0  0
   11.1543   -4.5156    3.7489 C   0  0  0  0  0  0  0  0  0  0  0  0
   12.3835   -5.3755    3.7610 C   0  0  0  0  0  0  0  0  0  0  0  0
   11.9519   -6.8397    3.7627 C   0  0  0  0  0  0  0  0  0  0  0  0
   13.2051   -7.6717    3.7757 C   0  0  0  0  0  0  0  0  0  0  0  0
   12.9250   -9.0531    3.7773 O   0  0  0  0  0  0  0  0  0  0  0  0
   14.0167   -9.8908    3.7928 C   0  0  0  0  0  0  0  0  0  0  0  0
   15.3881   -9.5445    3.8110 C   0  0  0  0  0  0  0  0  0  0  0  0
   16.0876   -7.9521    3.8172 Cl  0  0  0  0  0  0  0  0  0  0  0  0
   16.3695  -10.5373    3.8242 C   0  0  0  0  0  0  0  0  0  0  0  0
   16.0230  -11.8824    3.8221 C   0  0  0  0  0  0  0  0  0  0  0  0
   14.6771  -12.2480    3.8061 C   0  0  0  0  0  0  0  0  0  0  0  0
   13.6862  -11.2633    3.7897 C   0  0  0  0  0  0  0  0  0  0  0  0
   12.0363  -11.8025    3.7594 Cl  0  0  0  0  0  0  0  0  0  0  0  0
   17.0628  -12.9171    3.8139 C   0  0  0  0  0  0  0  0  0  0  0  0
   16.8424  -14.1948    3.8524 N   0  0  0  0  0  0  0  0  0  0  0  0
   18.1933  -14.7638    3.8512 C   0  0  0  0  0  0  0  0  0  0  0  0
   19.0994  -13.6257    3.4411 C   0  0  0  0  0  0  0  0  0  0  0  0
   18.3373  -12.4634    3.7327 O   0  0  0  0  0  0  0  0  0  0  0  0
    0.6589    0.4858   -0.8696 H   0  0  0  0  0  0  0  0  0  0  0  0
    2.7211    1.1224   -0.1366 H   0  0  0  0  0  0  0  0  0  0  0  0
    2.7224   -0.4876   -0.8724 H   0  0  0  0  0  0  0  0  0  0  0  0
    2.4761   -1.5225    1.3943 H   0  0  0  0  0  0  0  0  0  0  0  0
    2.4802    0.0895    2.1285 H   0  0  0  0  0  0  0  0  0  0  0  0
    4.3991   -2.0820    2.6076 H   0  0  0  0  0  0  0  0  0  0  0  0
    4.3913   -0.4433    3.3440 H   0  0  0  0  0  0  0  0  0  0  0  0
    6.2862   -2.5576    3.8690 H   0  0  0  0  0  0  0  0  0  0  0  0
    6.2931   -0.9301    4.5704 H   0  0  0  0  0  0  0  0  0  0  0  0
    8.5522   -3.7560    3.7082 H   0  0  0  0  0  0  0  0  0  0  0  0
   12.0584   -2.7583    4.6339 H   0  0  0  0  0  0  0  0  0  0  0  0
   12.0670   -2.7627    2.8608 H   0  0  0  0  0  0  0  0  0  0  0  0
   10.5567   -4.7714    2.8625 H   0  0  0  0  0  0  0  0  0  0  0  0
   10.5445   -4.7643    4.6290 H   0  0  0  0  0  0  0  0  0  0  0  0
   12.9871   -5.1504    4.6488 H   0  0  0  0  0  0  0  0  0  0  0  0
   13.0004   -5.1564    2.8810 H   0  0  0  0  0  0  0  0  0  0  0  0
   11.3469   -7.0773    2.8796 H   0  0  0  0  0  0  0  0  0  0  0  0
   11.3339   -7.0710    4.6385 H   0  0  0  0  0  0  0  0  0  0  0  0
   13.7399   -7.4123    4.6951 H   0  0  0  0  0  0  0  0  0  0  0  0
   13.7583   -7.4181    2.8654 H   0  0  0  0  0  0  0  0  0  0  0  0
   17.4163  -10.2419    3.8336 H   0  0  0  0  0  0  0  0  0  0  0  0
   14.3998  -13.3005    3.7999 H   0  0  0  0  0  0  0  0  0  0  0  0
   18.2624  -15.6031    3.1547 H   0  0  0  0  0  0  0  0  0  0  0  0
   18.4344  -15.1218    4.8578 H   0  0  0  0  0  0  0  0  0  0  0  0
   19.3172  -13.6390    2.3676 H   0  0  0  0  0  0  0  0  0  0  0  0
   20.0454  -13.6288    3.9913 H   0  0  0  0  0  0  0  0  0  0  0  0
  1  2  1  0  0  0  0
  1 32  1  0  0  0  0
  2  3  1  0  0  0  0
  2 33  1  0  0  0  0
  2 34  1  0  0  0  0
  3  4  1  0  0  0  0
  3 35  1  0  0  0  0
  3 36  1  0  0  0  0
  4  5  1  0  0  0  0
  5  6  1  0  0  0  0
  5 37  1  0  0  0  0
  5 38  1  0  0  0  0
  6  7  1  0  0  0  0
  7  8  1  0  0  0  0
  7 39  1  0  0  0  0
  7 40  1  0  0  0  0
  8  9  2  0  0  0  0
  8 12  1  0  0  0  0
  9 10  1  0  0  0  0
 10 11  1  0  0  0  0
 11 12  2  0  0  0  0
 11 13  1  0  0  0  0
 12 41  1  0  0  0  0
 13 14  1  0  0  0  0
 13 42  1  0  0  0  0
 13 43  1  0  0  0  0
 14 15  1  0  0  0  0
 14 44  1  0  0  0  0
 14 45  1  0  0  0  0
 15 16  1  0  0  0  0
 15 46  1  0  0  0  0
 15 47  1  0  0  0  0
 16 17  1  0  0  0  0
 16 48  1  0  0  0  0
 16 49  1  0  0  0  0
 17 18  1  0  0  0  0
 17 50  1  0  0  0  0
 17 51  1  0  0  0  0
 18 19  1  0  0  0  0
 19 20  2  0  0  0  0
 19 25  1  0  0  0  0
 20 21  1  0  0  0  0
 20 22  1  0  0  0  0
 22 23  2  0  0  0  0
 22 52  1  0  0  0  0
 23 24  1  0  0  0  0
 23 27  1  0  0  0  0
 24 25  2  0  0  0  0
 24 53  1  0  0  0  0
 25 26  1  0  0  0  0
 27 28  2  0  0  0  0
 27 31  1  0  0  0  0
 28 29  1  0  0  0  0
 29 30  1  0  0  0  0
 29 54  1  0  0  0  0
 29 55  1  0  0  0  0
 30 31  1  0  0  0  0
 30 56  1  0  0  0  0
 30 57  1  0  0  0  0
M  END
$$$$
