W43
 OpenBabel04121316203D

 54 56  0  0  1  0  0  0  0  0999 V2000
    2.8983    0.1092   -1.4631 C   0  0  0  0  0  0  0  0  0  0  0  0
    2.4715   -0.0632   -0.0154 C   0  0  1  0  0  0  0  0  0  0  0  0
    1.3760   -0.0785    0.0402 H   0  0  0  0  0  0  0  0  0  0  0  0
    3.0624   -1.2895    0.6545 C   0  0  0  0  0  0  0  0  0  0  0  0
    3.3656   -0.8512    1.9802 O   0  0  0  0  0  0  0  0  0  0  0  0
    3.3862    0.4974    1.8849 C   0  0  0  0  0  0  0  0  0  0  0  0
    2.9569    1.0614    0.7922 N   0  0  0  0  0  0  0  0  0  0  0  0
    3.9008    1.2516    3.0448 C   0  0  0  0  0  0  0  0  0  0  0  0
    3.5790    2.6122    3.1022 C   0  0  0  0  0  0  0  0  0  0  0  0
    4.0642    3.4232    4.1252 C   0  0  0  0  0  0  0  0  0  0  0  0
    4.9766    2.9159    5.0510 C   0  0  0  0  0  0  0  0  0  0  0  0
    5.3008    1.5491    4.9961 C   0  0  0  0  0  0  0  0  0  0  0  0
    4.7257    0.7037    4.0318 C   0  0  0  0  0  0  0  0  0  0  0  0
    6.4609    0.8748    6.0918 Cl  0  0  0  0  0  0  0  0  0  0  0  0
    5.5930    3.6799    6.0088 O   0  0  0  0  0  0  0  0  0  0  0  0
    5.2692    5.0670    6.0103 C   0  0  0  0  0  0  0  0  0  0  0  0
    6.0963    5.7593    7.0766 C   0  0  0  0  0  0  0  0  0  0  0  0
    5.7258    7.2317    7.1274 C   0  0  0  0  0  0  0  0  0  0  0  0
    6.5307    7.9466    8.1928 C   0  0  0  0  0  0  0  0  0  0  0  0
    6.1403    9.4168    8.2249 C   0  0  0  0  0  0  0  0  0  0  0  0
    6.9465   10.1197    9.2907 C   0  0  0  0  0  0  0  0  0  0  0  0
    6.6047   11.6050    9.3865 C   0  0  0  0  0  0  0  0  0  0  0  0
    7.3951   12.2105   10.4785 C   0  0  0  0  0  0  0  0  0  0  0  0
    7.3060   13.5525   10.6681 O   0  0  0  0  0  0  0  0  0  0  0  0
    8.0835   13.9056   11.7674 N   0  0  0  0  0  0  0  0  0  0  0  0
    8.6201   12.7612   12.2084 C   0  0  0  0  0  0  0  0  0  0  0  0
    8.2350   11.6721   11.4181 C   0  0  0  0  0  0  0  0  0  0  0  0
    9.4895   12.6910   13.3968 C   0  0  0  0  0  0  0  0  0  0  0  0
    3.9892    0.1361   -1.5599 H   0  0  0  0  0  0  0  0  0  0  0  0
    2.5135    1.0510   -1.8703 H   0  0  0  0  0  0  0  0  0  0  0  0
    2.5190   -0.7095   -2.0830 H   0  0  0  0  0  0  0  0  0  0  0  0
    3.9890   -1.6327    0.1822 H   0  0  0  0  0  0  0  0  0  0  0  0
    2.3492   -2.1204    0.6688 H   0  0  0  0  0  0  0  0  0  0  0  0
    2.9473    3.0584    2.3358 H   0  0  0  0  0  0  0  0  0  0  0  0
    3.7232    4.4529    4.1479 H   0  0  0  0  0  0  0  0  0  0  0  0
    4.9574   -0.3570    4.0399 H   0  0  0  0  0  0  0  0  0  0  0  0
    4.2055    5.1977    6.2444 H   0  0  0  0  0  0  0  0  0  0  0  0
    5.4992    5.5215    5.0376 H   0  0  0  0  0  0  0  0  0  0  0  0
    7.1648    5.6375    6.8598 H   0  0  0  0  0  0  0  0  0  0  0  0
    5.9240    5.2835    8.0494 H   0  0  0  0  0  0  0  0  0  0  0  0
    4.6552    7.3409    7.3418 H   0  0  0  0  0  0  0  0  0  0  0  0
    5.9087    7.6998    6.1521 H   0  0  0  0  0  0  0  0  0  0  0  0
    7.6033    7.8452    7.9845 H   0  0  0  0  0  0  0  0  0  0  0  0
    6.3484    7.4856    9.1721 H   0  0  0  0  0  0  0  0  0  0  0  0
    5.0707    9.5165    8.4432 H   0  0  0  0  0  0  0  0  0  0  0  0
    6.3271    9.8798    7.2496 H   0  0  0  0  0  0  0  0  0  0  0  0
    8.0182    9.9968    9.0802 H   0  0  0  0  0  0  0  0  0  0  0  0
    6.7559    9.6290   10.2556 H   0  0  0  0  0  0  0  0  0  0  0  0
    5.5355   11.7277    9.5954 H   0  0  0  0  0  0  0  0  0  0  0  0
    6.8174   12.1032    8.4339 H   0  0  0  0  0  0  0  0  0  0  0  0
    8.5087   10.6346   11.5351 H   0  0  0  0  0  0  0  0  0  0  0  0
    9.6409   13.6687   13.8575 H   0  0  0  0  0  0  0  0  0  0  0  0
   10.4640   12.2760   13.1181 H   0  0  0  0  0  0  0  0  0  0  0  0
    9.0410   12.0203   14.1385 H   0  0  0  0  0  0  0  0  0  0  0  0
  1 29  1  0  0  0  0
  1 30  1  0  0  0  0
  1 31  1  0  0  0  0
  2  4  1  0  0  0  0
  2  7  1  0  0  0  0
  2  3  1  1  0  0  0
  2  1  1  0  0  0  0
  4  5  1  0  0  0  0
  4 32  1  0  0  0  0
  4 33  1  0  0  0  0
  5  6  1  0  0  0  0
  6  7  2  0  0  0  0
  6  8  1  0  0  0  0
  8  9  2  0  0  0  0
  8 13  1  0  0  0  0
  9 10  1  0  0  0  0
  9 34  1  0  0  0  0
 10 11  2  0  0  0  0
 10 35  1  0  0  0  0
 11 12  1  0  0  0  0
 11 15  1  0  0  0  0
 12 13  2  0  0  0  0
 12 14  1  0  0  0  0
 13 36  1  0  0  0  0
 15 16  1  0  0  0  0
 16 17  1  0  0  0  0
 16 37  1  0  0  0  0
 16 38  1  0  0  0  0
 17 18  1  0  0  0  0
 17 39  1  0  0  0  0
 17 40  1  0  0  0  0
 18 19  1  0  0  0  0
 18 41  1  0  0  0  0
 18 42  1  0  0  0  0
 19 20  1  0  0  0  0
 19 43  1  0  0  0  0
 19 44  1  0  0  0  0
 20 21  1  0  0  0  0
 20 45  1  0  0  0  0
 20 46  1  0  0  0  0
 21 22  1  0  0  0  0
 21 47  1  0  0  0  0
 21 48  1  0  0  0  0
 22 23  1  0  0  0  0
 22 49  1  0  0  0  0
 22 50  1  0  0  0  0
 23 24  1  0  0  0  0
 23 27  2  0  0  0  0
 24 25  1  0  0  0  0
 25 26  2  0  0  0  0
 26 27  1  0  0  0  0
 26 28  1  0  0  0  0
 27 51  1  0  0  0  0
 28 52  1  0  0  0  0
 28 53  1  0  0  0  0
 28 54  1  0  0  0  0
M  END
$$$$
