WH6
 OpenBabel04121316203D

 47 50  0  0  1  0  0  0  0  0999 V2000
    4.6438    0.7310   -1.9778 O   0  0  0  0  0  0  0  0  0  0  0  0
    5.1373   -0.5150   -1.8085 C   0  0  0  0  0  0  0  0  0  0  0  0
    5.6780   -1.1010   -2.7361 O   0  0  0  0  0  0  0  0  0  0  0  0
    4.8408   -1.1694   -0.4613 C   0  0  0  0  0  0  0  0  0  0  0  0
    4.5893   -0.3154    0.8309 C   0  0  2  0  0  0  0  0  0  0  0  0
    3.5094   -0.3742    1.0410 H   0  0  0  0  0  0  0  0  0  0  0  0
    4.9051    1.1440    0.6387 N   0  0  0  0  0  0  0  0  0  0  0  0
    4.1549    2.2707    0.9672 C   0  0  0  0  0  0  0  0  0  0  0  0
    3.0506    2.3229    1.4642 O   0  0  0  0  0  0  0  0  0  0  0  0
    4.9477    3.4635    0.5237 C   0  0  0  0  0  0  0  0  0  0  0  0
    6.0755    2.9616   -0.0843 C   0  0  0  0  0  0  0  0  0  0  0  0
    6.0756    1.5325    0.0425 C   0  0  0  0  0  0  0  0  0  0  0  0
    6.9806    0.8381   -0.4134 O   0  0  0  0  0  0  0  0  0  0  0  0
    7.1438    3.7114   -0.5367 C   0  0  0  0  0  0  0  0  0  0  0  0
    7.1228    5.0817   -0.3171 C   0  0  0  0  0  0  0  0  0  0  0  0
    5.9599    5.6479    0.2635 C   0  0  0  0  0  0  0  0  0  0  0  0
    4.8521    4.8404    0.6722 C   0  0  0  0  0  0  0  0  0  0  0  0
    8.4129    5.7836   -0.6173 C   0  0  0  0  0  0  0  0  0  0  0  0
    9.4266    5.1720   -0.9090 O   0  0  0  0  0  0  0  0  0  0  0  0
    8.4032    7.1230   -0.5137 O   0  0  0  0  0  0  0  0  0  0  0  0
    5.2717   -1.0223    2.0880 C   0  0  0  0  0  0  0  0  0  0  0  0
    6.7971   -1.0152    2.1079 C   0  0  0  0  0  0  0  0  0  0  0  0
    7.4975   -2.1816    1.7453 C   0  0  0  0  0  0  0  0  0  0  0  0
    8.8646   -2.1317    1.4750 C   0  0  0  0  0  0  0  0  0  0  0  0
    9.5348   -0.9136    1.4998 C   0  0  0  0  0  0  0  0  0  0  0  0
    8.8706    0.2498    1.8862 C   0  0  0  0  0  0  0  0  0  0  0  0
    7.5202    0.1918    2.3059 C   0  0  0  0  0  0  0  0  0  0  0  0
    6.9197    1.3919    2.7389 C   0  0  0  0  0  0  0  0  0  0  0  0
    7.5281    2.6216    2.4802 C   0  0  0  0  0  0  0  0  0  0  0  0
    8.7847    2.6611    1.8907 C   0  0  0  0  0  0  0  0  0  0  0  0
    9.5023    1.4870    1.7237 C   0  0  0  0  0  0  0  0  0  0  0  0
    4.2569    1.0608   -1.1513 H   0  0  0  0  0  0  0  0  0  0  0  0
    5.6660   -1.8689   -0.2832 H   0  0  0  0  0  0  0  0  0  0  0  0
    3.9582   -1.7945   -0.6399 H   0  0  0  0  0  0  0  0  0  0  0  0
    8.0290    3.1906   -0.9004 H   0  0  0  0  0  0  0  0  0  0  0  0
    5.9029    6.7163    0.4534 H   0  0  0  0  0  0  0  0  0  0  0  0
    3.9892    5.3104    1.1391 H   0  0  0  0  0  0  0  0  0  0  0  0
    7.5645    7.5502   -0.2885 H   0  0  0  0  0  0  0  0  0  0  0  0
    4.9295   -2.0708    2.1297 H   0  0  0  0  0  0  0  0  0  0  0  0
    4.9074   -0.5877    3.0267 H   0  0  0  0  0  0  0  0  0  0  0  0
    6.9824   -3.1324    1.6216 H   0  0  0  0  0  0  0  0  0  0  0  0
    9.4028   -3.0291    1.1838 H   0  0  0  0  0  0  0  0  0  0  0  0
   10.5695   -0.8643    1.1696 H   0  0  0  0  0  0  0  0  0  0  0  0
    5.8802    1.4003    3.0601 H   0  0  0  0  0  0  0  0  0  0  0  0
    6.9363    3.5306    2.5535 H   0  0  0  0  0  0  0  0  0  0  0  0
    9.1766    3.5772    1.4527 H   0  0  0  0  0  0  0  0  0  0  0  0
   10.5195    1.5534    1.3482 H   0  0  0  0  0  0  0  0  0  0  0  0
  1  2  1  0  0  0  0
  1 32  1  0  0  0  0
  2  3  2  0  0  0  0
  2  4  1  0  0  0  0
  4 33  1  0  0  0  0
  4 34  1  0  0  0  0
  5  7  1  0  0  0  0
  5 21  1  0  0  0  0
  5  6  1  1  0  0  0
  5  4  1  0  0  0  0
  7  8  1  0  0  0  0
  7 12  1  0  0  0  0
  8  9  2  0  0  0  0
  8 10  1  0  0  0  0
 10 11  2  0  0  0  0
 10 17  1  0  0  0  0
 11 12  1  0  0  0  0
 11 14  1  0  0  0  0
 12 13  2  0  0  0  0
 14 15  2  0  0  0  0
 14 35  1  0  0  0  0
 15 16  1  0  0  0  0
 15 18  1  0  0  0  0
 16 17  2  0  0  0  0
 16 36  1  0  0  0  0
 17 37  1  0  0  0  0
 18 19  2  0  0  0  0
 18 20  1  0  0  0  0
 20 38  1  0  0  0  0
 21 22  1  0  0  0  0
 21 39  1  0  0  0  0
 21 40  1  0  0  0  0
 22 23  2  0  0  0  0
 22 27  1  0  0  0  0
 23 24  1  0  0  0  0
 23 41  1  0  0  0  0
 24 25  2  0  0  0  0
 24 42  1  0  0  0  0
 25 26  1  0  0  0  0
 25 43  1  0  0  0  0
 26 27  2  0  0  0  0
 26 31  1  0  0  0  0
 27 28  1  0  0  0  0
 28 29  2  0  0  0  0
 28 44  1  0  0  0  0
 29 30  1  0  0  0  0
 29 45  1  0  0  0  0
 30 31  2  0  0  0  0
 30 46  1  0  0  0  0
 31 47  1  0  0  0  0
M  END
$$$$
