WO5
 OpenBabel04121316203D

 11 10  0  0  0  0  0  0  0  0999 V2000
    1.0558   -0.0807   -0.0192 O   0  0  0  0  0  0  0  0  0  0  0  0
    3.3358   -0.0807   -0.0192 W   0  0  0  0  0  0  0  0  0  0  0  0
    3.3358    0.7143    2.1176 O   0  0  0  0  0  0  0  0  0  0  0  0
    3.3358   -2.3289   -0.3991 O   0  0  0  0  0  0  0  0  0  0  0  0
    3.3358    1.3723   -1.7762 O   0  0  0  0  0  0  0  0  0  0  0  0
    5.6158   -0.0807   -0.0192 O   0  0  0  0  0  0  0  0  0  0  0  0
    0.7324    0.5022    0.6854 H   0  0  0  0  0  0  0  0  0  0  0  0
    2.4212    0.8271    2.4207 H   0  0  0  0  0  0  0  0  0  0  0  0
    2.4212   -2.6477   -0.4530 H   0  0  0  0  0  0  0  0  0  0  0  0
    2.4212    1.5784   -2.0254 H   0  0  0  0  0  0  0  0  0  0  0  0
    5.9391   -0.6636    0.6855 H   0  0  0  0  0  0  0  0  0  0  0  0
  1  2  1  0  0  0  0
  1  7  1  0  0  0  0
  2  3  1  0  0  0  0
  2  4  1  0  0  0  0
  2  5  1  0  0  0  0
  2  6  1  0  0  0  0
  3  8  1  0  0  0  0
  4  9  1  0  0  0  0
  5 10  1  0  0  0  0
  6 11  1  0  0  0  0
M  END
$$$$
