WOW
 OpenBabel04121316203D

 49 51  0  0  1  0  0  0  0  0999 V2000
    0.7905    0.1054    0.0374 N   0  0  0  0  0  0  0  0  0  0  0  0
    1.9589    0.0326    0.0823 C   0  0  0  0  0  0  0  0  0  0  0  0
    3.3730    0.0201    0.0942 C   0  0  0  0  0  0  0  0  0  0  0  0
    4.0101    1.2358    0.1051 C   0  0  0  0  0  0  0  0  0  0  0  0
    5.3458    1.2489   -0.2099 C   0  0  0  0  0  0  0  0  0  0  0  0
    6.1827    0.1340   -0.2523 C   0  0  0  0  0  0  0  0  0  0  0  0
    5.5365   -1.0867   -0.0611 C   0  0  0  0  0  0  0  0  0  0  0  0
    4.1357   -1.1469    0.0049 C   0  0  0  0  0  0  0  0  0  0  0  0
    3.3872   -2.6977   -0.0809 Cl  0  0  0  0  0  0  0  0  0  0  0  0
    7.5378    0.2612   -0.4837 N   0  0  0  0  0  0  0  0  0  0  0  0
    8.2180    1.5580   -0.5682 C   0  0  1  0  0  0  0  0  0  0  0  0
    8.3956    1.6040   -1.6515 H   0  0  0  0  0  0  0  0  0  0  0  0
    7.6256    2.9348   -0.4470 C   0  0  0  0  0  0  0  0  0  0  0  0
    8.8032    3.8502   -0.2249 C   0  0  0  0  0  0  0  0  0  0  0  0
    9.7419    3.0840    0.6455 N   0  0  0  0  0  0  0  0  0  0  0  0
    9.3162    1.6569    0.5543 C   0  0  0  0  0  0  0  0  0  0  0  0
   11.3607    3.5292    0.3362 S   0  0  0  0  0  0  0  0  0  0  0  0
   11.5952    3.3379   -1.0766 O   0  0  0  0  0  0  0  0  0  0  0  0
   11.5350    4.8595    0.8768 O   0  0  0  0  0  0  0  0  0  0  0  0
   12.3915    2.3877    1.2751 C   0  0  0  0  0  0  0  0  0  0  0  0
    8.3767   -0.9579   -0.7319 C   0  0  0  0  0  0  0  0  0  0  0  0
    9.8283   -0.7767   -1.2400 C   0  0  0  0  0  0  0  0  0  0  0  0
   10.4147    0.4208   -1.6748 C   0  0  0  0  0  0  0  0  0  0  0  0
   11.7218    0.6347   -2.0296 C   0  0  0  0  0  0  0  0  0  0  0  0
   12.5760   -0.4031   -2.0064 C   0  0  0  0  0  0  0  0  0  0  0  0
   12.0698   -1.6497   -1.6634 C   0  0  0  0  0  0  0  0  0  0  0  0
   10.7001   -1.8602   -1.3377 C   0  0  0  0  0  0  0  0  0  0  0  0
   10.1756   -3.2593   -1.2481 C   0  0  0  0  0  0  0  0  0  0  0  0
    3.5123    2.1940    0.2302 H   0  0  0  0  0  0  0  0  0  0  0  0
    5.6454    2.2296   -0.5001 H   0  0  0  0  0  0  0  0  0  0  0  0
    6.0961   -2.0163   -0.0068 H   0  0  0  0  0  0  0  0  0  0  0  0
    7.0095    3.0244    0.4431 H   0  0  0  0  0  0  0  0  0  0  0  0
    7.0919    3.2336   -1.3650 H   0  0  0  0  0  0  0  0  0  0  0  0
    8.4558    4.7475    0.2850 H   0  0  0  0  0  0  0  0  0  0  0  0
    9.2500    4.1264   -1.1873 H   0  0  0  0  0  0  0  0  0  0  0  0
    8.8766    1.2821    1.4885 H   0  0  0  0  0  0  0  0  0  0  0  0
   10.2002    1.0301    0.4855 H   0  0  0  0  0  0  0  0  0  0  0  0
   12.2155    1.3446    1.0093 H   0  0  0  0  0  0  0  0  0  0  0  0
   12.2121    2.5554    2.3367 H   0  0  0  0  0  0  0  0  0  0  0  0
   13.4371    2.6170    1.0422 H   0  0  0  0  0  0  0  0  0  0  0  0
    7.8694   -1.6057   -1.4607 H   0  0  0  0  0  0  0  0  0  0  0  0
    8.4054   -1.5084    0.2248 H   0  0  0  0  0  0  0  0  0  0  0  0
   10.0001    1.4004   -1.6906 H   0  0  0  0  0  0  0  0  0  0  0  0
   12.0231    1.6363   -2.3042 H   0  0  0  0  0  0  0  0  0  0  0  0
   13.5842   -0.1928   -2.3269 H   0  0  0  0  0  0  0  0  0  0  0  0
   12.7607   -2.4801   -1.7095 H   0  0  0  0  0  0  0  0  0  0  0  0
   10.9599   -3.9720   -1.5098 H   0  0  0  0  0  0  0  0  0  0  0  0
    9.3706   -3.3772   -1.9841 H   0  0  0  0  0  0  0  0  0  0  0  0
    9.7937   -3.4822   -0.2496 H   0  0  0  0  0  0  0  0  0  0  0  0
  1  2  3  0  0  0  0
  2  3  1  0  0  0  0
  3  4  2  0  0  0  0
  3  8  1  0  0  0  0
  4  5  1  0  0  0  0
  4 29  1  0  0  0  0
  5  6  2  0  0  0  0
  5 30  1  0  0  0  0
  6  7  1  0  0  0  0
  6 10  1  0  0  0  0
  7  8  2  0  0  0  0
  7 31  1  0  0  0  0
  8  9  1  0  0  0  0
 10 11  1  0  0  0  0
 10 21  1  0  0  0  0
 11 12  1  6  0  0  0
 11 13  1  0  0  0  0
 11 16  1  0  0  0  0
 13 14  1  0  0  0  0
 13 32  1  0  0  0  0
 13 33  1  0  0  0  0
 14 15  1  0  0  0  0
 14 34  1  0  0  0  0
 14 35  1  0  0  0  0
 15 16  1  0  0  0  0
 15 17  1  0  0  0  0
 16 36  1  0  0  0  0
 16 37  1  0  0  0  0
 17 18  2  0  0  0  0
 17 19  2  0  0  0  0
 17 20  1  0  0  0  0
 20 38  1  0  0  0  0
 20 39  1  0  0  0  0
 20 40  1  0  0  0  0
 21 22  1  0  0  0  0
 21 41  1  0  0  0  0
 21 42  1  0  0  0  0
 22 23  2  0  0  0  0
 22 27  1  0  0  0  0
 23 24  1  0  0  0  0
 23 43  1  0  0  0  0
 24 25  2  0  0  0  0
 24 44  1  0  0  0  0
 25 26  1  0  0  0  0
 25 45  1  0  0  0  0
 26 27  2  0  0  0  0
 26 46  1  0  0  0  0
 27 28  1  0  0  0  0
 28 47  1  0  0  0  0
 28 48  1  0  0  0  0
 28 49  1  0  0  0  0
M  END
$$$$
