WSA
 OpenBabel04121316203D

 61 65  0  0  1  0  0  0  0  0999 V2000
    4.4773   -2.7072    1.2818 O   0  0  0  0  0  0  0  0  0  0  0  0
    3.6767   -2.0855    0.5804 C   0  0  0  0  0  0  0  0  0  0  0  0
    2.9440   -0.8459    1.1229 C   0  0  2  0  0  0  0  0  0  0  0  0
    2.4421   -0.2878    0.3246 H   0  0  0  0  0  0  0  0  0  0  0  0
    3.9308    0.0866    1.8521 C   0  0  0  0  0  0  0  0  0  0  0  0
    4.9078    0.7703    0.9358 C   0  0  0  0  0  0  0  0  0  0  0  0
    4.9282    2.1344    0.7109 C   0  0  0  0  0  0  0  0  0  0  0  0
    5.8830    2.4043   -0.2294 N   0  0  0  0  0  0  0  0  0  0  0  0
    6.0959    3.3234   -0.5895 H   0  0  0  0  0  0  0  0  0  0  0  0
    6.5026    1.2441   -0.6310 C   0  0  0  0  0  0  0  0  0  0  0  0
    5.9597    0.2043    0.1242 C   0  0  0  0  0  0  0  0  0  0  0  0
    6.5188   -1.0793   -0.0783 C   0  0  0  0  0  0  0  0  0  0  0  0
    7.4588   -1.3252   -1.0776 C   0  0  0  0  0  0  0  0  0  0  0  0
    7.9621   -0.2707   -1.8136 C   0  0  0  0  0  0  0  0  0  0  0  0
    7.5133    1.0355   -1.5846 C   0  0  0  0  0  0  0  0  0  0  0  0
    1.9462   -1.3892    2.0663 N   0  0  0  0  0  0  0  0  0  0  0  0
    3.3663   -2.5886   -0.6987 N   0  0  0  0  0  0  0  0  0  0  0  0
    1.7769   -2.6054   -1.1852 S   0  0  0  0  0  0  0  0  0  0  0  0
    0.9700   -3.1134   -0.1053 O   0  0  0  0  0  0  0  0  0  0  0  0
    1.5171   -1.3088   -1.7794 O   0  0  0  0  0  0  0  0  0  0  0  0
    1.6693   -3.7060   -2.3827 O   0  0  0  0  0  0  0  0  0  0  0  0
    0.3420   -3.8305   -2.9054 C   0  0  0  0  0  0  0  0  0  0  0  0
    0.2084   -4.8932   -3.9955 C   0  0  1  0  0  0  0  0  0  0  0  0
    1.0054   -4.7508   -4.7366 H   0  0  0  0  0  0  0  0  0  0  0  0
    0.2852   -6.2520   -3.4709 O   0  0  0  0  0  0  0  0  0  0  0  0
   -0.3308   -7.0911   -4.4745 C   0  0  2  0  0  0  0  0  0  0  0  0
    0.4021   -7.3171   -5.2609 H   0  0  0  0  0  0  0  0  0  0  0  0
   -1.5040   -6.2284   -5.0182 C   0  0  1  0  0  0  0  0  0  0  0  0
   -2.4351   -6.4636   -4.4864 H   0  0  0  0  0  0  0  0  0  0  0  0
   -1.1684   -4.7937   -4.6493 C   0  0  2  0  0  0  0  0  0  0  0  0
   -1.9190   -4.4294   -3.9363 H   0  0  0  0  0  0  0  0  0  0  0  0
   -1.1963   -3.9080   -5.7609 O   0  0  0  0  0  0  0  0  0  0  0  0
   -1.7610   -6.3518   -6.4191 O   0  0  0  0  0  0  0  0  0  0  0  0
   -0.8218   -8.3897   -3.9715 N   0  0  0  0  0  0  0  0  0  0  0  0
   -1.9673   -8.9610   -4.5016 C   0  0  0  0  0  0  0  0  0  0  0  0
   -2.2951  -10.0992   -3.9615 N   0  0  0  0  0  0  0  0  0  0  0  0
   -1.2879  -10.3372   -3.0742 C   0  0  0  0  0  0  0  0  0  0  0  0
   -0.3281   -9.3217   -3.0758 C   0  0  0  0  0  0  0  0  0  0  0  0
    0.7954   -9.3331   -2.3310 N   0  0  0  0  0  0  0  0  0  0  0  0
    0.8526  -10.4517   -1.5502 C   0  0  0  0  0  0  0  0  0  0  0  0
   -0.0248  -11.4811   -1.4472 N   0  0  0  0  0  0  0  0  0  0  0  0
   -1.1219  -11.4361   -2.2202 C   0  0  0  0  0  0  0  0  0  0  0  0
   -2.0548  -12.4508   -2.1740 N   0  0  0  0  0  0  0  0  0  0  0  0
    4.4762   -0.4420    2.6416 H   0  0  0  0  0  0  0  0  0  0  0  0
    3.3406    0.8633    2.3665 H   0  0  0  0  0  0  0  0  0  0  0  0
    4.3272    2.9303    1.1342 H   0  0  0  0  0  0  0  0  0  0  0  0
    6.2676   -1.9295    0.5360 H   0  0  0  0  0  0  0  0  0  0  0  0
    7.8027   -2.3439   -1.2416 H   0  0  0  0  0  0  0  0  0  0  0  0
    8.7358   -0.4658   -2.5509 H   0  0  0  0  0  0  0  0  0  0  0  0
    7.9405    1.8610   -2.1416 H   0  0  0  0  0  0  0  0  0  0  0  0
    1.4506   -0.6591    2.5634 H   0  0  0  0  0  0  0  0  0  0  0  0
    2.4456   -1.9583    2.7549 H   0  0  0  0  0  0  0  0  0  0  0  0
    3.9016   -3.4090   -0.9597 H   0  0  0  0  0  0  0  0  0  0  0  0
    0.0577   -2.8531   -3.3162 H   0  0  0  0  0  0  0  0  0  0  0  0
   -0.3417   -4.0730   -2.0826 H   0  0  0  0  0  0  0  0  0  0  0  0
   -1.9825   -4.1582   -6.2887 H   0  0  0  0  0  0  0  0  0  0  0  0
   -1.8765   -7.2856   -6.6653 H   0  0  0  0  0  0  0  0  0  0  0  0
   -2.5673   -8.5028   -5.2695 H   0  0  0  0  0  0  0  0  0  0  0  0
    1.7240  -10.5468   -0.9053 H   0  0  0  0  0  0  0  0  0  0  0  0
   -1.9316  -13.2130   -1.5302 H   0  0  0  0  0  0  0  0  0  0  0  0
   -2.8810  -12.3639   -2.7531 H   0  0  0  0  0  0  0  0  0  0  0  0
  1  2  2  0  0  0  0
  2 17  1  0  0  0  0
  3  5  1  0  0  0  0
  3 16  1  0  0  0  0
  3  4  1  6  0  0  0
  3  2  1  0  0  0  0
  5  6  1  0  0  0  0
  5 44  1  0  0  0  0
  5 45  1  0  0  0  0
  6  7  2  0  0  0  0
  6 11  1  0  0  0  0
  7  8  1  0  0  0  0
  7 46  1  0  0  0  0
  8  9  1  0  0  0  0
  8 10  1  0  0  0  0
 10 11  2  0  0  0  0
 10 15  1  0  0  0  0
 11 12  1  0  0  0  0
 12 13  2  0  0  0  0
 12 47  1  0  0  0  0
 13 14  1  0  0  0  0
 13 48  1  0  0  0  0
 14 15  2  0  0  0  0
 14 49  1  0  0  0  0
 15 50  1  0  0  0  0
 16 51  1  0  0  0  0
 16 52  1  0  0  0  0
 17 18  1  0  0  0  0
 17 53  1  0  0  0  0
 18 19  2  0  0  0  0
 18 20  2  0  0  0  0
 18 21  1  0  0  0  0
 21 22  1  0  0  0  0
 22 23  1  0  0  0  0
 22 54  1  0  0  0  0
 22 55  1  0  0  0  0
 23 24  1  6  0  0  0
 23 25  1  0  0  0  0
 23 30  1  0  0  0  0
 25 26  1  0  0  0  0
 26 28  1  0  0  0  0
 26 34  1  0  0  0  0
 26 27  1  6  0  0  0
 28 29  1  1  0  0  0
 28 30  1  0  0  0  0
 28 33  1  0  0  0  0
 30 31  1  1  0  0  0
 30 32  1  0  0  0  0
 32 56  1  0  0  0  0
 33 57  1  0  0  0  0
 34 35  1  0  0  0  0
 34 38  1  0  0  0  0
 35 36  2  0  0  0  0
 35 58  1  0  0  0  0
 36 37  1  0  0  0  0
 37 38  2  0  0  0  0
 37 42  1  0  0  0  0
 38 39  1  0  0  0  0
 39 40  2  0  0  0  0
 40 41  1  0  0  0  0
 40 59  1  0  0  0  0
 41 42  2  0  0  0  0
 42 43  1  0  0  0  0
 43 60  1  0  0  0  0
 43 61  1  0  0  0  0
M  END
$$$$
