WSH
 OpenBabel04121316203D

 53 57  0  0  1  0  0  0  0  0999 V2000
    0.9442    0.1010   -0.0391 O   0  0  0  0  0  0  0  0  0  0  0  0
    2.1652    0.0978   -0.0761 C   0  0  0  0  0  0  0  0  0  0  0  0
    2.8763    0.2902   -1.2311 N   0  0  0  0  0  0  0  0  0  0  0  0
    2.2163    0.5757   -2.4767 C   0  0  2  0  0  0  0  0  0  0  0  0
    1.1306    0.5687   -2.3296 H   0  0  0  0  0  0  0  0  0  0  0  0
    2.6283   -0.4611   -3.4088 N   0  0  0  0  0  0  0  0  0  0  0  0
    2.1121   -0.4862   -4.5921 C   0  0  0  0  0  0  0  0  0  0  0  0
    2.5243   -1.5940   -5.4944 C   0  0  0  0  0  0  0  0  0  0  0  0
    2.8401   -1.3400   -6.8341 C   0  0  0  0  0  0  0  0  0  0  0  0
    2.8714   -2.4006   -7.7347 C   0  0  0  0  0  0  0  0  0  0  0  0
    2.7240   -3.7084   -7.2707 C   0  0  0  0  0  0  0  0  0  0  0  0
    2.5699   -3.9611   -5.9060 C   0  0  0  0  0  0  0  0  0  0  0  0
    2.4197   -2.9008   -5.0182 C   0  0  0  0  0  0  0  0  0  0  0  0
    1.0985    0.4760   -5.1471 C   0  0  0  0  0  0  0  0  0  0  0  0
    1.1983    1.8646   -4.9913 C   0  0  0  0  0  0  0  0  0  0  0  0
    2.1815    2.4427   -4.1541 N   0  0  0  0  0  0  0  0  0  0  0  0
    2.6780    1.8983   -2.9868 C   0  0  0  0  0  0  0  0  0  0  0  0
    3.5375    2.7356   -2.4403 N   0  0  0  0  0  0  0  0  0  0  0  0
    3.6355    3.8314   -3.2540 N   0  0  0  0  0  0  0  0  0  0  0  0
    2.8358    3.6572   -4.2870 C   0  0  0  0  0  0  0  0  0  0  0  0
    2.7671    4.5611   -5.4628 C   0  0  0  0  0  0  0  0  0  0  0  0
    0.2821    2.6970   -5.6541 C   0  0  0  0  0  0  0  0  0  0  0  0
   -0.7093    2.1704   -6.4784 C   0  0  0  0  0  0  0  0  0  0  0  0
   -0.8208    0.7978   -6.6288 C   0  0  0  0  0  0  0  0  0  0  0  0
    0.0707   -0.0440   -5.9630 C   0  0  0  0  0  0  0  0  0  0  0  0
    2.8804   -0.1093    1.0652 O   0  0  0  0  0  0  0  0  0  0  0  0
    4.3081   -0.1015    1.0800 C   0  0  0  0  0  0  0  0  0  0  0  0
    4.7896   -0.3610    2.4840 C   0  0  0  0  0  0  0  0  0  0  0  0
    5.2516    0.6904    3.2865 C   0  0  0  0  0  0  0  0  0  0  0  0
    5.8594    0.4230    4.5135 C   0  0  0  0  0  0  0  0  0  0  0  0
    5.8901   -0.8797    5.0063 C   0  0  0  0  0  0  0  0  0  0  0  0
    5.3001   -1.9116    4.2794 C   0  0  0  0  0  0  0  0  0  0  0  0
    4.7977   -1.6633    3.0018 C   0  0  0  0  0  0  0  0  0  0  0  0
    3.8778    0.3343   -1.2574 H   0  0  0  0  0  0  0  0  0  0  0  0
    3.0088   -0.3262   -7.1877 H   0  0  0  0  0  0  0  0  0  0  0  0
    2.9945   -2.2093   -8.7978 H   0  0  0  0  0  0  0  0  0  0  0  0
    2.7331   -4.5359   -7.9752 H   0  0  0  0  0  0  0  0  0  0  0  0
    2.5325   -4.9824   -5.5380 H   0  0  0  0  0  0  0  0  0  0  0  0
    2.1787   -3.0865   -3.9741 H   0  0  0  0  0  0  0  0  0  0  0  0
    3.4663    5.3931   -5.3455 H   0  0  0  0  0  0  0  0  0  0  0  0
    1.7826    5.0173   -5.5743 H   0  0  0  0  0  0  0  0  0  0  0  0
    3.0225    4.0291   -6.3854 H   0  0  0  0  0  0  0  0  0  0  0  0
    0.2602    3.7688   -5.5004 H   0  0  0  0  0  0  0  0  0  0  0  0
   -1.4077    2.8391   -6.9767 H   0  0  0  0  0  0  0  0  0  0  0  0
   -1.6047    0.3821   -7.2573 H   0  0  0  0  0  0  0  0  0  0  0  0
   -0.0402   -1.1176   -6.1097 H   0  0  0  0  0  0  0  0  0  0  0  0
    4.6810    0.8687    0.7320 H   0  0  0  0  0  0  0  0  0  0  0  0
    4.6955   -0.8879    0.4207 H   0  0  0  0  0  0  0  0  0  0  0  0
    5.1573    1.7212    2.9521 H   0  0  0  0  0  0  0  0  0  0  0  0
    6.3059    1.2317    5.0860 H   0  0  0  0  0  0  0  0  0  0  0  0
    6.3622   -1.0880    5.9624 H   0  0  0  0  0  0  0  0  0  0  0  0
    5.2420   -2.9111    4.7014 H   0  0  0  0  0  0  0  0  0  0  0  0
    4.4140   -2.4901    2.4082 H   0  0  0  0  0  0  0  0  0  0  0  0
  1  2  2  0  0  0  0
  2  3  1  0  0  0  0
  2 26  1  0  0  0  0
  3  4  1  0  0  0  0
  3 34  1  0  0  0  0
  4  5  1  1  0  0  0
  4  6  1  0  0  0  0
  4 17  1  0  0  0  0
  6  7  2  0  0  0  0
  7  8  1  0  0  0  0
  7 14  1  0  0  0  0
  8  9  2  0  0  0  0
  8 13  1  0  0  0  0
  9 10  1  0  0  0  0
  9 35  1  0  0  0  0
 10 11  2  0  0  0  0
 10 36  1  0  0  0  0
 11 12  1  0  0  0  0
 11 37  1  0  0  0  0
 12 13  2  0  0  0  0
 12 38  1  0  0  0  0
 13 39  1  0  0  0  0
 14 15  2  0  0  0  0
 14 25  1  0  0  0  0
 15 16  1  0  0  0  0
 15 22  1  0  0  0  0
 16 17  1  0  0  0  0
 16 20  1  0  0  0  0
 17 18  2  0  0  0  0
 18 19  1  0  0  0  0
 19 20  2  0  0  0  0
 20 21  1  0  0  0  0
 21 40  1  0  0  0  0
 21 41  1  0  0  0  0
 21 42  1  0  0  0  0
 22 23  2  0  0  0  0
 22 43  1  0  0  0  0
 23 24  1  0  0  0  0
 23 44  1  0  0  0  0
 24 25  2  0  0  0  0
 24 45  1  0  0  0  0
 25 46  1  0  0  0  0
 26 27  1  0  0  0  0
 27 28  1  0  0  0  0
 27 47  1  0  0  0  0
 27 48  1  0  0  0  0
 28 29  2  0  0  0  0
 28 33  1  0  0  0  0
 29 30  1  0  0  0  0
 29 49  1  0  0  0  0
 30 31  2  0  0  0  0
 30 50  1  0  0  0  0
 31 32  1  0  0  0  0
 31 51  1  0  0  0  0
 32 33  2  0  0  0  0
 32 52  1  0  0  0  0
 33 53  1  0  0  0  0
M  END
$$$$
