WTC
 OpenBabel04121316203D

 40 43  0  0  0  0  0  0  0  0999 V2000
    1.0425   -0.0609   -0.0674 O   0  0  0  0  0  0  0  0  0  0  0  0
    2.2522   -0.1267   -0.0266 C   0  0  0  0  0  0  0  0  0  0  0  0
    3.0567    0.9672   -0.1320 N   0  0  0  0  0  0  0  0  0  0  0  0
    2.5587    1.6690   -0.6311 H   0  0  0  0  0  0  0  0  0  0  0  0
    4.4320    1.0430   -0.0546 C   0  0  0  0  0  0  0  0  0  0  0  0
    5.0142    2.4816   -0.0119 C   0  0  0  0  0  0  0  0  0  0  0  0
    4.0563    3.6964   -0.0048 C   0  0  0  0  0  0  0  0  0  0  0  0
    2.6546    3.6279    0.0211 C   0  0  0  0  0  0  0  0  0  0  0  0
    1.8119    4.6349   -0.4097 C   0  0  0  0  0  0  0  0  0  0  0  0
    2.3155    5.9067   -0.3972 C   0  0  0  0  0  0  0  0  0  0  0  0
    3.6627    6.0926   -0.0782 C   0  0  0  0  0  0  0  0  0  0  0  0
    4.5507    5.0004    0.0030 C   0  0  0  0  0  0  0  0  0  0  0  0
    5.1631   -0.0454   -0.0099 N   0  0  0  0  0  0  0  0  0  0  0  0
    4.4057   -1.1965   -0.0205 C   0  0  0  0  0  0  0  0  0  0  0  0
    3.0354   -1.2960    0.0087 C   0  0  0  0  0  0  0  0  0  0  0  0
    2.6933   -2.6331   -0.0215 C   0  0  0  0  0  0  0  0  0  0  0  0
    3.7822   -3.3967   -0.0761 N   0  0  0  0  0  0  0  0  0  0  0  0
    4.8189   -2.5092   -0.0376 N   0  0  0  0  0  0  0  0  0  0  0  0
    6.1814   -2.9979    0.0003 C   0  0  0  0  0  0  0  0  0  0  0  0
    7.0208   -2.2677    1.0454 C   0  0  0  0  0  0  0  0  0  0  0  0
    8.1920   -3.1910    1.2985 C   0  0  0  0  0  0  0  0  0  0  0  0
    7.6040   -4.5899    1.2205 C   0  0  0  0  0  0  0  0  0  0  0  0
    6.3259   -4.4802    0.3932 C   0  0  0  0  0  0  0  0  0  0  0  0
    5.6627    2.5696   -0.8991 H   0  0  0  0  0  0  0  0  0  0  0  0
    5.6794    2.5552    0.8589 H   0  0  0  0  0  0  0  0  0  0  0  0
    2.1070    2.8316    0.5106 H   0  0  0  0  0  0  0  0  0  0  0  0
    0.7612    4.4177   -0.5855 H   0  0  0  0  0  0  0  0  0  0  0  0
    1.6317    6.7366   -0.5340 H   0  0  0  0  0  0  0  0  0  0  0  0
    4.0167    7.0999    0.1145 H   0  0  0  0  0  0  0  0  0  0  0  0
    5.6130    5.1942    0.1352 H   0  0  0  0  0  0  0  0  0  0  0  0
    1.6984   -3.0591   -0.0312 H   0  0  0  0  0  0  0  0  0  0  0  0
    6.5900   -2.8496   -1.0080 H   0  0  0  0  0  0  0  0  0  0  0  0
    6.4456   -2.1233    1.9689 H   0  0  0  0  0  0  0  0  0  0  0  0
    7.3548   -1.2847    0.7001 H   0  0  0  0  0  0  0  0  0  0  0  0
    8.6535   -2.9932    2.2701 H   0  0  0  0  0  0  0  0  0  0  0  0
    8.9556   -3.0549    0.5250 H   0  0  0  0  0  0  0  0  0  0  0  0
    7.3594   -4.9534    2.2252 H   0  0  0  0  0  0  0  0  0  0  0  0
    8.3132   -5.2968    0.7800 H   0  0  0  0  0  0  0  0  0  0  0  0
    5.4857   -4.8413    0.9990 H   0  0  0  0  0  0  0  0  0  0  0  0
    6.3695   -5.1189   -0.4966 H   0  0  0  0  0  0  0  0  0  0  0  0
  1  2  2  0  0  0  0
  2  3  1  0  0  0  0
  2 15  1  0  0  0  0
  3  4  1  0  0  0  0
  3  5  1  0  0  0  0
  5  6  1  0  0  0  0
  5 13  2  0  0  0  0
  6  7  1  0  0  0  0
  6 24  1  0  0  0  0
  6 25  1  0  0  0  0
  7  8  2  0  0  0  0
  7 12  1  0  0  0  0
  8  9  1  0  0  0  0
  8 26  1  0  0  0  0
  9 10  2  0  0  0  0
  9 27  1  0  0  0  0
 10 11  1  0  0  0  0
 10 28  1  0  0  0  0
 11 12  2  0  0  0  0
 11 29  1  0  0  0  0
 12 30  1  0  0  0  0
 13 14  1  0  0  0  0
 14 15  2  0  0  0  0
 14 18  1  0  0  0  0
 15 16  1  0  0  0  0
 16 17  2  0  0  0  0
 16 31  1  0  0  0  0
 17 18  1  0  0  0  0
 18 19  1  0  0  0  0
 19 20  1  0  0  0  0
 19 23  1  0  0  0  0
 19 32  1  0  0  0  0
 20 21  1  0  0  0  0
 20 33  1  0  0  0  0
 20 34  1  0  0  0  0
 21 22  1  0  0  0  0
 21 35  1  0  0  0  0
 21 36  1  0  0  0  0
 22 23  1  0  0  0  0
 22 37  1  0  0  0  0
 22 38  1  0  0  0  0
 23 39  1  0  0  0  0
 23 40  1  0  0  0  0
M  END
$$$$
