WTJ
 OpenBabel04121316203D

 44 46  0  0  0  0  0  0  0  0999 V2000
    1.0687    0.0404   -0.1031 C   0  0  0  0  0  0  0  0  0  0  0  0
    2.5337    0.0088   -0.0786 N   0  0  0  0  0  0  0  0  0  0  0  0
    3.0336   -1.1382    0.6937 C   0  0  0  0  0  0  0  0  0  0  0  0
    2.5819   -1.0932    2.1508 C   0  0  0  0  0  0  0  0  0  0  0  0
    3.0602   -2.2115    2.9119 N   0  0  0  0  0  0  0  0  0  0  0  0
    2.6789   -2.3236    4.2181 C   0  0  0  0  0  0  0  0  0  0  0  0
    2.0226   -1.4861    4.8357 O   0  0  0  0  0  0  0  0  0  0  0  0
    3.0939   -3.5482    4.8827 C   0  0  0  0  0  0  0  0  0  0  0  0
    3.8491   -3.4133    6.0346 C   0  0  0  0  0  0  0  0  0  0  0  0
    4.1684   -4.5402    6.7807 C   0  0  0  0  0  0  0  0  0  0  0  0
    3.6762   -5.7542    6.2954 C   0  0  0  0  0  0  0  0  0  0  0  0
    2.9505   -5.9085    5.1519 N   0  0  0  0  0  0  0  0  0  0  0  0
    2.6667   -4.7985    4.4509 C   0  0  0  0  0  0  0  0  0  0  0  0
    2.0789   -4.9805    3.2045 N   0  0  0  0  0  0  0  0  0  0  0  0
    4.9605   -4.4347    8.0112 C   0  0  0  0  0  0  0  0  0  0  0  0
    5.2703   -2.8753    8.6975 S   0  0  0  0  0  0  0  0  0  0  0  0
    6.1836   -3.5267    9.9680 C   0  0  0  0  0  0  0  0  0  0  0  0
    6.2334   -4.8938    9.9010 C   0  0  0  0  0  0  0  0  0  0  0  0
    5.5476   -5.4148    8.7889 C   0  0  0  0  0  0  0  0  0  0  0  0
    5.4705   -6.7193    8.4666 O   0  0  0  0  0  0  0  0  0  0  0  0
    6.0487   -7.5912    9.4233 C   0  0  0  0  0  0  0  0  0  0  0  0
    6.7990   -7.0127   10.6332 C   0  0  0  0  0  0  0  0  0  0  0  0
    6.9015   -5.6068   10.8195 O   0  0  0  0  0  0  0  0  0  0  0  0
    3.0490   -0.0559   -1.4454 C   0  0  0  0  0  0  0  0  0  0  0  0
    0.6484    0.1707    0.8991 H   0  0  0  0  0  0  0  0  0  0  0  0
    0.6531   -0.8771   -0.5343 H   0  0  0  0  0  0  0  0  0  0  0  0
    0.7102    0.8992   -0.6778 H   0  0  0  0  0  0  0  0  0  0  0  0
    4.1324   -1.1438    0.6818 H   0  0  0  0  0  0  0  0  0  0  0  0
    2.7134   -2.0859    0.2391 H   0  0  0  0  0  0  0  0  0  0  0  0
    1.4906   -1.1326    2.2324 H   0  0  0  0  0  0  0  0  0  0  0  0
    2.9212   -0.1741    2.6418 H   0  0  0  0  0  0  0  0  0  0  0  0
    3.6156   -2.9444    2.4794 H   0  0  0  0  0  0  0  0  0  0  0  0
    4.1647   -2.4127    6.3183 H   0  0  0  0  0  0  0  0  0  0  0  0
    3.8438   -6.6892    6.8217 H   0  0  0  0  0  0  0  0  0  0  0  0
    1.6476   -5.8949    3.1236 H   0  0  0  0  0  0  0  0  0  0  0  0
    1.5408   -4.1952    2.8568 H   0  0  0  0  0  0  0  0  0  0  0  0
    6.6266   -2.8642   10.6945 H   0  0  0  0  0  0  0  0  0  0  0  0
    6.7262   -8.2580    8.8753 H   0  0  0  0  0  0  0  0  0  0  0  0
    5.2481   -8.2468    9.7893 H   0  0  0  0  0  0  0  0  0  0  0  0
    7.8223   -7.4042   10.6210 H   0  0  0  0  0  0  0  0  0  0  0  0
    6.3392   -7.4195   11.5411 H   0  0  0  0  0  0  0  0  0  0  0  0
    2.7160    0.8149   -2.0193 H   0  0  0  0  0  0  0  0  0  0  0  0
    2.7146   -0.9628   -1.9618 H   0  0  0  0  0  0  0  0  0  0  0  0
    4.1444   -0.0395   -1.4484 H   0  0  0  0  0  0  0  0  0  0  0  0
  1  2  1  0  0  0  0
  1 25  1  0  0  0  0
  1 26  1  0  0  0  0
  1 27  1  0  0  0  0
  2  3  1  0  0  0  0
  2 24  1  0  0  0  0
  3  4  1  0  0  0  0
  3 28  1  0  0  0  0
  3 29  1  0  0  0  0
  4  5  1  0  0  0  0
  4 30  1  0  0  0  0
  4 31  1  0  0  0  0
  5  6  1  0  0  0  0
  5 32  1  0  0  0  0
  6  7  2  0  0  0  0
  6  8  1  0  0  0  0
  8  9  2  0  0  0  0
  8 13  1  0  0  0  0
  9 10  1  0  0  0  0
  9 33  1  0  0  0  0
 10 11  2  0  0  0  0
 10 15  1  0  0  0  0
 11 12  1  0  0  0  0
 11 34  1  0  0  0  0
 12 13  2  0  0  0  0
 13 14  1  0  0  0  0
 14 35  1  0  0  0  0
 14 36  1  0  0  0  0
 15 16  1  0  0  0  0
 15 19  2  0  0  0  0
 16 17  1  0  0  0  0
 17 18  2  0  0  0  0
 17 37  1  0  0  0  0
 18 19  1  0  0  0  0
 18 23  1  0  0  0  0
 19 20  1  0  0  0  0
 20 21  1  0  0  0  0
 21 22  1  0  0  0  0
 21 38  1  0  0  0  0
 21 39  1  0  0  0  0
 22 23  1  0  0  0  0
 22 40  1  0  0  0  0
 22 41  1  0  0  0  0
 24 42  1  0  0  0  0
 24 43  1  0  0  0  0
 24 44  1  0  0  0  0
M  END
$$$$
