WWF
 OpenBabel04121316203D

 61 62  0  0  1  0  0  0  0  0999 V2000
   -7.6965    0.4559   -2.1204 C   0  0  0  0  0  0  0  0  0  0  0  0
   -7.7267    1.7417   -2.9050 C   0  0  0  0  0  0  0  0  0  0  0  0
   -6.7514    2.7302   -2.2030 C   0  0  0  0  0  0  0  0  0  0  0  0
   -7.1299    3.2324   -0.7152 C   0  0  2  0  0  0  0  0  0  0  0  0
   -7.8713    2.6992   -0.1582 H   0  0  0  0  0  0  0  0  0  0  0  0
   -7.5118    4.7157   -0.8036 C   0  0  0  0  0  0  0  0  0  0  0  0
   -6.0877    5.5837   -0.7279 S   0  0  0  0  0  0  0  0  0  0  0  0
   -6.8496    7.0697   -0.7799 C   0  0  0  0  0  0  0  0  0  0  0  0
   -8.1824    6.8987   -1.1017 C   0  0  0  0  0  0  0  0  0  0  0  0
   -8.5767    5.5166   -1.1112 N   0  3  0  0  0  0  0  0  0  0  0  0
  -10.1035    5.1819   -1.5066 C   0  0  0  0  0  0  0  0  0  0  0  0
  -10.5925    3.7590   -1.3885 C   0  0  0  0  0  0  0  0  0  0  0  0
   -9.7248    2.9239   -0.9863 C   0  0  0  0  0  0  0  0  0  0  0  0
   -9.6914    1.6275   -0.5983 N   0  0  0  0  0  0  0  0  0  0  0  0
  -10.6475    0.9191   -1.1216 C   0  0  0  0  0  0  0  0  0  0  0  0
  -11.6529    1.5733   -1.7337 N   0  0  0  0  0  0  0  0  0  0  0  0
  -11.6457    2.9892   -1.7798 C   0  0  0  0  0  0  0  0  0  0  0  0
  -12.6745    3.5980   -2.4585 N   0  0  0  0  0  0  0  0  0  0  0  0
  -10.3566   -0.5818   -1.1439 C   0  0  0  0  0  0  0  0  0  0  0  0
   -9.1282    8.0053   -1.3994 C   0  0  0  0  0  0  0  0  0  0  0  0
   -5.9697    8.2653   -0.5345 C   0  0  0  0  0  0  0  0  0  0  0  0
   -4.5784    7.7857   -0.0682 C   0  0  0  0  0  0  0  0  0  0  0  0
   -3.7027    8.7026    0.5264 O   0  0  0  0  0  0  0  0  0  0  0  0
   -2.1652    8.1795    0.4796 P   0  0  2  0  0  0  0  0  0  0  0  0
   -1.9174    7.1280   -0.5512 O   0  0  0  0  0  0  0  0  0  0  0  0
   -1.7265    7.8879    2.0226 O   0  0  0  0  0  0  0  0  0  0  0  0
   -2.1079    6.2916    2.5696 P   0  0  0  0  0  0  0  0  0  0  0  0
   -1.2556    5.6411    1.4967 O   0  0  0  0  0  0  0  0  0  0  0  0
   -1.1358    6.5816    3.8388 O   0  0  0  0  0  0  0  0  0  0  0  0
   -2.4893    4.6952    3.1166 O   0  0  0  0  0  0  0  0  0  0  0  0
   -1.4455    9.5688    0.1742 O   0  0  0  0  0  0  0  0  0  0  0  0
   -6.1056    3.0359    0.2771 O   0  0  0  0  0  0  0  0  0  0  0  0
   -7.5235    1.3573   -4.3556 C   0  0  0  0  0  0  0  0  0  0  0  0
   -7.8296    0.6026   -1.0476 H   0  0  0  0  0  0  0  0  0  0  0  0
   -6.7539   -0.0754   -2.1938 H   0  0  0  0  0  0  0  0  0  0  0  0
   -8.4677   -0.1768   -2.5532 H   0  0  0  0  0  0  0  0  0  0  0  0
   -8.7320    2.1583   -3.0231 H   0  0  0  0  0  0  0  0  0  0  0  0
   -6.7026    3.6014   -2.8723 H   0  0  0  0  0  0  0  0  0  0  0  0
   -5.7628    2.2717   -2.1829 H   0  0  0  0  0  0  0  0  0  0  0  0
  -10.2202    5.5588   -2.5286 H   0  0  0  0  0  0  0  0  0  0  0  0
  -10.7008    5.7756   -0.8089 H   0  0  0  0  0  0  0  0  0  0  0  0
   -8.9037    3.1848   -1.6346 H   0  0  0  0  0  0  0  0  0  0  0  0
  -13.4659    2.9575   -2.4568 H   0  0  0  0  0  0  0  0  0  0  0  0
  -12.8902    4.5376   -2.1550 H   0  0  0  0  0  0  0  0  0  0  0  0
   -9.3220   -0.8378   -0.8303 H   0  0  0  0  0  0  0  0  0  0  0  0
  -10.4446   -0.9980   -2.1535 H   0  0  0  0  0  0  0  0  0  0  0  0
  -10.9525   -1.1283   -0.4224 H   0  0  0  0  0  0  0  0  0  0  0  0
   -8.6138    8.9712   -1.3026 H   0  0  0  0  0  0  0  0  0  0  0  0
   -9.9624    8.0197   -0.6959 H   0  0  0  0  0  0  0  0  0  0  0  0
   -9.5036    7.9546   -2.4254 H   0  0  0  0  0  0  0  0  0  0  0  0
   -6.4241    8.8984    0.2273 H   0  0  0  0  0  0  0  0  0  0  0  0
   -5.8892    8.8300   -1.4711 H   0  0  0  0  0  0  0  0  0  0  0  0
   -4.1162    7.3129   -0.9493 H   0  0  0  0  0  0  0  0  0  0  0  0
   -4.6819    7.0276    0.7164 H   0  0  0  0  0  0  0  0  0  0  0  0
   -0.2643    6.8812    3.5089 H   0  0  0  0  0  0  0  0  0  0  0  0
   -3.0323    4.2421    2.4488 H   0  0  0  0  0  0  0  0  0  0  0  0
   -0.5221    9.5644    0.4696 H   0  0  0  0  0  0  0  0  0  0  0  0
   -6.5718    3.0613    1.1431 H   0  0  0  0  0  0  0  0  0  0  0  0
   -6.6402    0.7331   -4.4588 H   0  0  0  0  0  0  0  0  0  0  0  0
   -7.4929    2.2301   -5.0075 H   0  0  0  0  0  0  0  0  0  0  0  0
   -8.3988    0.7601   -4.6724 H   0  0  0  0  0  0  0  0  0  0  0  0
  1  2  1  0  0  0  0
  1 34  1  0  0  0  0
  1 35  1  0  0  0  0
  1 36  1  0  0  0  0
  2  3  1  0  0  0  0
  2 33  1  0  0  0  0
  2 37  1  0  0  0  0
  3 38  1  0  0  0  0
  3 39  1  0  0  0  0
  4  6  1  0  0  0  0
  4 32  1  0  0  0  0
  4  5  1  1  0  0  0
  4  3  1  0  0  0  0
  6  7  1  0  0  0  0
  6 10  2  0  0  0  0
  7  8  1  0  0  0  0
  8  9  2  0  0  0  0
  8 21  1  0  0  0  0
  9 10  1  0  0  0  0
  9 20  1  0  0  0  0
 10 11  1  0  0  0  0
 11 12  1  0  0  0  0
 11 40  1  0  0  0  0
 11 41  1  0  0  0  0
 12 13  2  0  0  0  0
 12 17  1  0  0  0  0
 13 14  1  0  0  0  0
 13 42  1  0  0  0  0
 14 15  2  0  0  0  0
 15 16  1  0  0  0  0
 15 19  1  0  0  0  0
 16 17  2  0  0  0  0
 17 18  1  0  0  0  0
 18 43  1  0  0  0  0
 18 44  1  0  0  0  0
 19 45  1  0  0  0  0
 19 46  1  0  0  0  0
 19 47  1  0  0  0  0
 20 48  1  0  0  0  0
 20 49  1  0  0  0  0
 20 50  1  0  0  0  0
 21 22  1  0  0  0  0
 21 51  1  0  0  0  0
 21 52  1  0  0  0  0
 22 23  1  0  0  0  0
 22 53  1  0  0  0  0
 22 54  1  0  0  0  0
 24 26  1  1  0  0  0
 24 31  1  0  0  0  0
 24 25  2  0  0  0  0
 24 23  1  0  0  0  0
 26 27  1  0  0  0  0
 27 28  2  0  0  0  0
 27 29  1  0  0  0  0
 27 30  1  0  0  0  0
 29 55  1  0  0  0  0
 30 56  1  0  0  0  0
 31 57  1  0  0  0  0
 32 58  1  0  0  0  0
 33 59  1  0  0  0  0
 33 60  1  0  0  0  0
 33 61  1  0  0  0  0
M  CHG  1  10   1
M  END
$$$$
