WWV
 OpenBabel04121316203D

 42 43  0  0  0  0  0  0  0  0999 V2000
    0.9061   -0.0407    0.0704 O   0  0  0  0  0  0  0  0  0  0  0  0
    2.1273   -0.0384   -0.0698 C   0  0  0  0  0  0  0  0  0  0  0  0
    2.7769    0.3980   -1.2050 N   0  0  0  0  0  0  0  0  0  0  0  0
    2.1367    1.2102   -2.1735 C   0  0  0  0  0  0  0  0  0  0  0  0
    1.4598    0.5057   -3.1723 C   0  0  0  0  0  0  0  0  0  0  0  0
    1.0783    1.1428   -4.3498 C   0  0  0  0  0  0  0  0  0  0  0  0
    1.2271    2.5175   -4.4755 C   0  0  0  0  0  0  0  0  0  0  0  0
    1.7643    3.2523   -3.4232 C   0  0  0  0  0  0  0  0  0  0  0  0
    2.3012    2.6156   -2.2835 C   0  0  0  0  0  0  0  0  0  0  0  0
    2.9954    3.5410   -1.2905 C   0  0  0  0  0  0  0  0  0  0  0  0
    2.0505    4.5525   -0.6515 C   0  0  0  0  0  0  0  0  0  0  0  0
    3.6542    2.8359   -0.1499 C   0  0  0  0  0  0  0  0  0  0  0  0
    2.9257   -0.5394    0.9475 N   0  0  0  0  0  0  0  0  0  0  0  0
    4.3276   -0.5663    1.0145 C   0  0  0  0  0  0  0  0  0  0  0  0
    5.0541    0.6119    1.1499 C   0  0  0  0  0  0  0  0  0  0  0  0
    6.4101    0.6708    0.8549 C   0  0  0  0  0  0  0  0  0  0  0  0
    7.0943   -0.5221    0.6999 C   0  0  0  0  0  0  0  0  0  0  0  0
    6.4200   -1.7406    0.8618 C   0  0  0  0  0  0  0  0  0  0  0  0
    5.0217   -1.7621    0.9613 C   0  0  0  0  0  0  0  0  0  0  0  0
    8.8160   -0.4201    0.2977 S   0  0  0  0  0  0  0  0  0  0  0  0
    8.9116    0.0592   -1.0541 O   0  0  0  0  0  0  0  0  0  0  0  0
    9.4808    0.2137    1.4186 O   0  0  0  0  0  0  0  0  0  0  0  0
    9.2927   -2.0182    0.2880 N   0  0  0  0  0  0  0  0  0  0  0  0
    3.7720    0.5180   -1.1200 H   0  0  0  0  0  0  0  0  0  0  0  0
    1.2883   -0.5607   -3.0558 H   0  0  0  0  0  0  0  0  0  0  0  0
    0.6741    0.5601   -5.1709 H   0  0  0  0  0  0  0  0  0  0  0  0
    0.9227    3.0217   -5.3882 H   0  0  0  0  0  0  0  0  0  0  0  0
    1.7822    4.3382   -3.5079 H   0  0  0  0  0  0  0  0  0  0  0  0
    3.8000    4.0653   -1.8243 H   0  0  0  0  0  0  0  0  0  0  0  0
    1.2228    4.0400   -0.1484 H   0  0  0  0  0  0  0  0  0  0  0  0
    1.6399    5.2439   -1.3875 H   0  0  0  0  0  0  0  0  0  0  0  0
    2.5842    5.1450    0.1021 H   0  0  0  0  0  0  0  0  0  0  0  0
    2.9011    2.2835    0.4242 H   0  0  0  0  0  0  0  0  0  0  0  0
    4.1553    3.4955    0.5607 H   0  0  0  0  0  0  0  0  0  0  0  0
    4.4239    2.1922   -0.5741 H   0  0  0  0  0  0  0  0  0  0  0  0
    2.3977   -1.0849    1.6165 H   0  0  0  0  0  0  0  0  0  0  0  0
    4.5595    1.5128    1.4835 H   0  0  0  0  0  0  0  0  0  0  0  0
    6.9112    1.6330    0.7556 H   0  0  0  0  0  0  0  0  0  0  0  0
    6.9508   -2.6843    0.8797 H   0  0  0  0  0  0  0  0  0  0  0  0
    4.4888   -2.7075    0.9441 H   0  0  0  0  0  0  0  0  0  0  0  0
    8.9413   -2.5500   -0.5043 H   0  0  0  0  0  0  0  0  0  0  0  0
    9.3367   -2.4479    1.2069 H   0  0  0  0  0  0  0  0  0  0  0  0
  1  2  2  0  0  0  0
  2  3  1  0  0  0  0
  2 13  1  0  0  0  0
  3  4  1  0  0  0  0
  3 24  1  0  0  0  0
  4  5  2  0  0  0  0
  4  9  1  0  0  0  0
  5  6  1  0  0  0  0
  5 25  1  0  0  0  0
  6  7  2  0  0  0  0
  6 26  1  0  0  0  0
  7  8  1  0  0  0  0
  7 27  1  0  0  0  0
  8  9  2  0  0  0  0
  8 28  1  0  0  0  0
  9 10  1  0  0  0  0
 10 11  1  0  0  0  0
 10 12  1  0  0  0  0
 10 29  1  0  0  0  0
 11 30  1  0  0  0  0
 11 31  1  0  0  0  0
 11 32  1  0  0  0  0
 12 33  1  0  0  0  0
 12 34  1  0  0  0  0
 12 35  1  0  0  0  0
 13 14  1  0  0  0  0
 13 36  1  0  0  0  0
 14 15  2  0  0  0  0
 14 19  1  0  0  0  0
 15 16  1  0  0  0  0
 15 37  1  0  0  0  0
 16 17  2  0  0  0  0
 16 38  1  0  0  0  0
 17 18  1  0  0  0  0
 17 20  1  0  0  0  0
 18 19  2  0  0  0  0
 18 39  1  0  0  0  0
 19 40  1  0  0  0  0
 20 21  2  0  0  0  0
 20 22  2  0  0  0  0
 20 23  1  0  0  0  0
 23 41  1  0  0  0  0
 23 42  1  0  0  0  0
M  END
$$$$
