WWZ
 OpenBabel04121316203D

 33 34  0  0  0  0  0  0  0  0999 V2000
    0.8775   -0.0700    0.0138 O   0  0  0  0  0  0  0  0  0  0  0  0
    2.1000    0.0105   -0.0701 C   0  0  0  0  0  0  0  0  0  0  0  0
    2.7851    0.9566   -0.7919 N   0  0  0  0  0  0  0  0  0  0  0  0
    2.1361    1.9666   -1.5104 C   0  0  0  0  0  0  0  0  0  0  0  0
    1.2681    1.6287   -2.5494 C   0  0  0  0  0  0  0  0  0  0  0  0
    0.8640    2.6151   -3.4456 C   0  0  0  0  0  0  0  0  0  0  0  0
    1.1893    3.9429   -3.1933 C   0  0  0  0  0  0  0  0  0  0  0  0
    1.9117    4.3018   -2.0610 C   0  0  0  0  0  0  0  0  0  0  0  0
    2.4580    3.3023   -1.2580 C   0  0  0  0  0  0  0  0  0  0  0  0
    0.8128    4.8905   -4.0612 F   0  0  0  0  0  0  0  0  0  0  0  0
    2.8787   -0.8575    0.6484 N   0  0  0  0  0  0  0  0  0  0  0  0
    4.2710   -0.9102    0.6712 C   0  0  0  0  0  0  0  0  0  0  0  0
    4.9535   -1.5305   -0.3746 C   0  0  0  0  0  0  0  0  0  0  0  0
    6.3288   -1.7302   -0.2720 C   0  0  0  0  0  0  0  0  0  0  0  0
    7.0235   -1.1905    0.8144 C   0  0  0  0  0  0  0  0  0  0  0  0
    6.3533   -0.4376    1.7851 C   0  0  0  0  0  0  0  0  0  0  0  0
    4.9612   -0.3653    1.7524 C   0  0  0  0  0  0  0  0  0  0  0  0
    8.7540   -1.5609    0.9533 S   0  0  0  0  0  0  0  0  0  0  0  0
    8.8663   -2.9644    1.2487 O   0  0  0  0  0  0  0  0  0  0  0  0
    9.4213   -0.9210   -0.1606 O   0  0  0  0  0  0  0  0  0  0  0  0
    9.2147   -0.7387    2.3307 N   0  0  0  0  0  0  0  0  0  0  0  0
    3.7354    1.1365   -0.5031 H   0  0  0  0  0  0  0  0  0  0  0  0
    0.9698    0.5959   -2.7069 H   0  0  0  0  0  0  0  0  0  0  0  0
    0.3100    2.3540   -4.3406 H   0  0  0  0  0  0  0  0  0  0  0  0
    2.0596    5.3506   -1.8268 H   0  0  0  0  0  0  0  0  0  0  0  0
    3.0850    3.5743   -0.4136 H   0  0  0  0  0  0  0  0  0  0  0  0
    2.3580   -1.4660    1.2690 H   0  0  0  0  0  0  0  0  0  0  0  0
    4.4148   -1.8988   -1.2441 H   0  0  0  0  0  0  0  0  0  0  0  0
    6.8504   -2.3145   -1.0277 H   0  0  0  0  0  0  0  0  0  0  0  0
    6.8819    0.0787    2.5791 H   0  0  0  0  0  0  0  0  0  0  0  0
    4.4267    0.1397    2.5537 H   0  0  0  0  0  0  0  0  0  0  0  0
    8.8911   -1.1497    3.2024 H   0  0  0  0  0  0  0  0  0  0  0  0
    9.2884    0.2686    2.2298 H   0  0  0  0  0  0  0  0  0  0  0  0
  1  2  2  0  0  0  0
  2  3  1  0  0  0  0
  2 11  1  0  0  0  0
  3  4  1  0  0  0  0
  3 22  1  0  0  0  0
  4  5  2  0  0  0  0
  4  9  1  0  0  0  0
  5  6  1  0  0  0  0
  5 23  1  0  0  0  0
  6  7  2  0  0  0  0
  6 24  1  0  0  0  0
  7  8  1  0  0  0  0
  7 10  1  0  0  0  0
  8  9  2  0  0  0  0
  8 25  1  0  0  0  0
  9 26  1  0  0  0  0
 11 12  1  0  0  0  0
 11 27  1  0  0  0  0
 12 13  2  0  0  0  0
 12 17  1  0  0  0  0
 13 14  1  0  0  0  0
 13 28  1  0  0  0  0
 14 15  2  0  0  0  0
 14 29  1  0  0  0  0
 15 16  1  0  0  0  0
 15 18  1  0  0  0  0
 16 17  2  0  0  0  0
 16 30  1  0  0  0  0
 17 31  1  0  0  0  0
 18 19  2  0  0  0  0
 18 20  2  0  0  0  0
 18 21  1  0  0  0  0
 21 32  1  0  0  0  0
 21 33  1  0  0  0  0
M  END
$$$$
