X09
 OpenBabel04121316203D

 29 30  0  0  1  0  0  0  0  0999 V2000
    0.8585   -0.0305    0.0006 N   0  0  0  0  0  0  0  0  0  0  0  0
    2.3206   -0.0580    0.0488 C   0  0  0  0  0  0  0  0  0  0  0  0
    2.8661   -1.0964    1.0540 C   0  0  2  0  0  0  0  0  0  0  0  0
    2.3633   -0.9711    2.0223 H   0  0  0  0  0  0  0  0  0  0  0  0
    4.3952   -0.9145    1.2362 C   0  0  1  0  0  0  0  0  0  0  0  0
    4.7687   -0.0133    0.7357 H   0  0  0  0  0  0  0  0  0  0  0  0
    4.7137   -0.7891    2.6294 O   0  0  0  0  0  0  0  0  0  0  0  0
    5.0867   -2.1786    0.6714 C   0  0  1  0  0  0  0  0  0  0  0  0
    5.7285   -2.6514    1.4203 H   0  0  0  0  0  0  0  0  0  0  0  0
    3.9690   -3.0919    0.1844 C   0  0  2  0  0  0  0  0  0  0  0  0
    3.9679   -3.1956   -0.9076 H   0  0  0  0  0  0  0  0  0  0  0  0
    2.7502   -2.4416    0.5826 N   0  0  3  0  0  0  0  0  0  0  0  0
    1.6204   -3.3102    0.5066 C   0  0  0  0  0  0  0  0  0  0  0  0
    2.2428   -4.6407    0.9494 C   0  0  0  0  0  0  0  0  0  0  0  0
    3.7742   -4.4629    0.8404 C   0  0  2  0  0  0  0  0  0  0  0  0
    4.2164   -5.2507    0.2225 H   0  0  0  0  0  0  0  0  0  0  0  0
    4.3503   -4.5667    2.1406 O   0  0  0  0  0  0  0  0  0  0  0  0
    5.9360   -1.8092   -0.4272 O   0  0  0  0  0  0  0  0  0  0  0  0
    0.5522    0.7229   -0.6129 H   0  0  0  0  0  0  0  0  0  0  0  0
    0.4917    0.1821    0.9273 H   0  0  0  0  0  0  0  0  0  0  0  0
    2.6725    0.9412    0.3314 H   0  0  0  0  0  0  0  0  0  0  0  0
    2.7102   -0.2622   -0.9559 H   0  0  0  0  0  0  0  0  0  0  0  0
    4.3202    0.0376    2.9450 H   0  0  0  0  0  0  0  0  0  0  0  0
    1.2768   -3.3872   -0.5321 H   0  0  0  0  0  0  0  0  0  0  0  0
    0.7680   -3.0295    1.1308 H   0  0  0  0  0  0  0  0  0  0  0  0
    1.9005   -5.4571    0.3038 H   0  0  0  0  0  0  0  0  0  0  0  0
    1.9475   -4.8766    1.9790 H   0  0  0  0  0  0  0  0  0  0  0  0
    4.0880   -3.7721    2.6408 H   0  0  0  0  0  0  0  0  0  0  0  0
    5.3821   -1.3942   -1.1104 H   0  0  0  0  0  0  0  0  0  0  0  0
  1  2  1  0  0  0  0
  1 19  1  0  0  0  0
  1 20  1  0  0  0  0
  2  3  1  0  0  0  0
  2 21  1  0  0  0  0
  2 22  1  0  0  0  0
  3  4  1  1  0  0  0
  3  5  1  0  0  0  0
  3 12  1  0  0  0  0
  5  6  1  6  0  0  0
  5  7  1  0  0  0  0
  5  8  1  0  0  0  0
  7 23  1  0  0  0  0
  8 10  1  0  0  0  0
  8 18  1  0  0  0  0
  8  9  1  1  0  0  0
 10 11  1  6  0  0  0
 10 12  1  0  0  0  0
 10 15  1  0  0  0  0
 12 13  1  0  0  0  0
 13 14  1  0  0  0  0
 13 24  1  0  0  0  0
 13 25  1  0  0  0  0
 14 15  1  0  0  0  0
 14 26  1  0  0  0  0
 14 27  1  0  0  0  0
 15 17  1  0  0  0  0
 15 16  1  6  0  0  0
 17 28  1  0  0  0  0
 18 29  1  0  0  0  0
M  END
$$$$
