X0J
 OpenBabel04121316203D

101106  0  0  1  0  0  0  0  0999 V2000
    0.9258   -0.1209   -0.1686 C   0  0  0  0  0  0  0  0  0  0  0  0
    2.3784   -0.0722   -0.1695 N   0  0  0  0  0  0  0  0  0  0  0  0
    2.8678    0.2042    1.1752 C   0  0  0  0  0  0  0  0  0  0  0  0
    2.4910    1.5770    1.7573 C   0  0  0  0  0  0  0  0  0  0  0  0
    3.0102    1.7745    3.1925 C   0  0  1  0  0  0  0  0  0  0  0  0
    2.5030    0.9947    3.7566 H   0  0  0  0  0  0  0  0  0  0  0  0
    4.4861    1.6750    3.2751 N   0  0  0  0  0  0  0  0  0  0  0  0
    5.2143    0.5204    3.0106 C   0  0  0  0  0  0  0  0  0  0  0  0
    6.2508    0.6258    2.0461 C   0  0  0  0  0  0  0  0  0  0  0  0
    6.7201   -0.5041    1.3457 C   0  0  0  0  0  0  0  0  0  0  0  0
    6.2617   -1.7799    1.6890 C   0  0  0  0  0  0  0  0  0  0  0  0
    5.3891   -1.9219    2.7586 C   0  0  0  0  0  0  0  0  0  0  0  0
    4.8389   -0.7871    3.3890 C   0  0  0  0  0  0  0  0  0  0  0  0
    3.7766   -1.0707    4.3717 N   0  3  0  0  0  0  0  0  0  0  0  0
    3.1882   -2.1597    4.2558 O   0  0  0  0  0  0  0  0  0  0  0  0
    3.5229   -0.2471    5.2550 O   0  5  0  0  0  0  0  0  0  0  0  0
    6.8042   -3.1727    0.7083 S   0  0  0  0  0  0  0  0  0  0  0  0
    6.2394   -2.9596   -0.6097 O   0  0  0  0  0  0  0  0  0  0  0  0
    8.2222   -3.2619    0.9535 O   0  0  0  0  0  0  0  0  0  0  0  0
    6.0682   -4.5389    1.3533 N   0  0  0  0  0  0  0  0  0  0  0  0
    6.3945   -5.8097    0.8358 C   0  0  0  0  0  0  0  0  0  0  0  0
    7.1367   -5.9718   -0.1091 O   0  0  0  0  0  0  0  0  0  0  0  0
    5.7796   -6.9941    1.5014 C   0  0  0  0  0  0  0  0  0  0  0  0
    6.4396   -8.2228    1.3352 C   0  0  0  0  0  0  0  0  0  0  0  0
    5.8625   -9.4224    1.7714 C   0  0  0  0  0  0  0  0  0  0  0  0
    4.6543   -9.4091    2.4609 C   0  0  0  0  0  0  0  0  0  0  0  0
    4.0843   -8.1537    2.7485 C   0  0  0  0  0  0  0  0  0  0  0  0
    4.5949   -6.9598    2.2310 C   0  0  0  0  0  0  0  0  0  0  0  0
    3.9577  -10.5494    2.7879 N   0  0  0  0  0  0  0  0  0  0  0  0
    2.5260  -10.5668    2.4471 C   0  0  0  0  0  0  0  0  0  0  0  0
    2.1941  -11.7766    1.5534 C   0  0  0  0  0  0  0  0  0  0  0  0
    2.6041  -13.0655    2.1528 N   0  0  0  0  0  0  0  0  0  0  0  0
    4.0795  -13.0042    2.3470 C   0  0  0  0  0  0  0  0  0  0  0  0
    4.5459  -11.8209    3.2342 C   0  0  0  0  0  0  0  0  0  0  0  0
    1.8765  -13.2469    3.4281 C   0  0  0  0  0  0  0  0  0  0  0  0
    2.1409  -14.5794    4.0608 C   0  0  0  0  0  0  0  0  0  0  0  0
    3.2360  -14.7896    4.9047 C   0  0  0  0  0  0  0  0  0  0  0  0
    3.5293  -16.0611    5.3540 C   0  0  0  0  0  0  0  0  0  0  0  0
    2.7839  -17.1310    4.8775 C   0  0  0  0  0  0  0  0  0  0  0  0
    1.6582  -16.9578    4.0471 C   0  0  0  0  0  0  0  0  0  0  0  0
    1.3167  -15.6470    3.7126 C   0  0  0  0  0  0  0  0  0  0  0  0
    0.9449  -18.1109    3.4610 C   0  0  0  0  0  0  0  0  0  0  0  0
    1.2567  -19.4196    3.8606 C   0  0  0  0  0  0  0  0  0  0  0  0
    0.8141  -20.5224    3.1423 C   0  0  0  0  0  0  0  0  0  0  0  0
   -0.0945  -20.3497    2.1089 C   0  0  0  0  0  0  0  0  0  0  0  0
   -0.5578  -19.0777    1.7986 C   0  0  0  0  0  0  0  0  0  0  0  0
    0.0056  -17.9672    2.4226 C   0  0  0  0  0  0  0  0  0  0  0  0
    2.5055    3.0937    3.8287 C   0  0  0  0  0  0  0  0  0  0  0  0
    3.0726    3.1646    5.5867 S   0  0  0  0  0  0  0  0  0  0  0  0
    2.4816    4.7551    6.0979 C   0  0  0  0  0  0  0  0  0  0  0  0
    1.3236    4.8731    6.8717 C   0  0  0  0  0  0  0  0  0  0  0  0
    0.8424    6.1364    7.2227 C   0  0  0  0  0  0  0  0  0  0  0  0
    1.5872    7.2735    6.9156 C   0  0  0  0  0  0  0  0  0  0  0  0
    2.8147    7.1451    6.2695 C   0  0  0  0  0  0  0  0  0  0  0  0
    3.2345    5.8954    5.8142 C   0  0  0  0  0  0  0  0  0  0  0  0
    2.9411   -1.3510   -0.6308 C   0  0  0  0  0  0  0  0  0  0  0  0
    0.5089    0.8388    0.1490 H   0  0  0  0  0  0  0  0  0  0  0  0
    0.5499   -0.8992    0.5042 H   0  0  0  0  0  0  0  0  0  0  0  0
    0.5569   -0.2909   -1.1802 H   0  0  0  0  0  0  0  0  0  0  0  0
    3.9433    0.1689    1.0604 H   0  0  0  0  0  0  0  0  0  0  0  0
    2.5587   -0.5964    1.8615 H   0  0  0  0  0  0  0  0  0  0  0  0
    1.3995    1.6445    1.8188 H   0  0  0  0  0  0  0  0  0  0  0  0
    2.8411    2.3713    1.0918 H   0  0  0  0  0  0  0  0  0  0  0  0
    4.9956    2.5227    3.5108 H   0  0  0  0  0  0  0  0  0  0  0  0
    6.6011    1.6063    1.7188 H   0  0  0  0  0  0  0  0  0  0  0  0
    7.3999   -0.3758    0.5005 H   0  0  0  0  0  0  0  0  0  0  0  0
    5.0716   -2.8941    3.1013 H   0  0  0  0  0  0  0  0  0  0  0  0
    5.4858   -4.4602    2.1675 H   0  0  0  0  0  0  0  0  0  0  0  0
    7.3995   -8.2537    0.8222 H   0  0  0  0  0  0  0  0  0  0  0  0
    6.3376  -10.3596    1.4931 H   0  0  0  0  0  0  0  0  0  0  0  0
    3.1885   -8.1185    3.3675 H   0  0  0  0  0  0  0  0  0  0  0  0
    4.0129   -6.0558    2.3738 H   0  0  0  0  0  0  0  0  0  0  0  0
    2.2015   -9.6688    1.9112 H   0  0  0  0  0  0  0  0  0  0  0  0
    1.9511  -10.5869    3.3787 H   0  0  0  0  0  0  0  0  0  0  0  0
    2.6945  -11.6595    0.5817 H   0  0  0  0  0  0  0  0  0  0  0  0
    1.1197  -11.7877    1.3376 H   0  0  0  0  0  0  0  0  0  0  0  0
    4.5623  -12.9279    1.3632 H   0  0  0  0  0  0  0  0  0  0  0  0
    4.4498  -13.9553    2.7463 H   0  0  0  0  0  0  0  0  0  0  0  0
    5.6382  -11.8047    3.3079 H   0  0  0  0  0  0  0  0  0  0  0  0
    4.1933  -11.9821    4.2594 H   0  0  0  0  0  0  0  0  0  0  0  0
    0.7983  -13.1656    3.2288 H   0  0  0  0  0  0  0  0  0  0  0  0
    2.0861  -12.4821    4.1795 H   0  0  0  0  0  0  0  0  0  0  0  0
    3.9006  -13.9777    5.1765 H   0  0  0  0  0  0  0  0  0  0  0  0
    4.3618  -16.2371    6.0266 H   0  0  0  0  0  0  0  0  0  0  0  0
    3.1406  -18.1176    5.1491 H   0  0  0  0  0  0  0  0  0  0  0  0
    0.4376  -15.4218    3.1157 H   0  0  0  0  0  0  0  0  0  0  0  0
    1.8868  -19.6114    4.7224 H   0  0  0  0  0  0  0  0  0  0  0  0
    1.1897  -21.5072    3.3999 H   0  0  0  0  0  0  0  0  0  0  0  0
   -0.4452  -21.2095    1.5506 H   0  0  0  0  0  0  0  0  0  0  0  0
   -1.3301  -18.9379    1.0486 H   0  0  0  0  0  0  0  0  0  0  0  0
   -0.2900  -16.9912    2.0473 H   0  0  0  0  0  0  0  0  0  0  0  0
    1.4086    3.1056    3.8211 H   0  0  0  0  0  0  0  0  0  0  0  0
    2.8651    3.9604    3.2640 H   0  0  0  0  0  0  0  0  0  0  0  0
    0.7930    3.9878    7.2151 H   0  0  0  0  0  0  0  0  0  0  0  0
   -0.1022    6.2334    7.7517 H   0  0  0  0  0  0  0  0  0  0  0  0
    1.2215    8.2573    7.1977 H   0  0  0  0  0  0  0  0  0  0  0  0
    3.4481    8.0154    6.1222 H   0  0  0  0  0  0  0  0  0  0  0  0
    4.1668    5.8142    5.2622 H   0  0  0  0  0  0  0  0  0  0  0  0
    2.6329   -1.5517   -1.6598 H   0  0  0  0  0  0  0  0  0  0  0  0
    2.6323   -2.1920    0.0032 H   0  0  0  0  0  0  0  0  0  0  0  0
    4.0378   -1.3227   -0.6317 H   0  0  0  0  0  0  0  0  0  0  0  0
  1  2  1  0  0  0  0
  1 57  1  0  0  0  0
  1 58  1  0  0  0  0
  1 59  1  0  0  0  0
  2  3  1  0  0  0  0
  2 56  1  0  0  0  0
  3  4  1  0  0  0  0
  3 60  1  0  0  0  0
  3 61  1  0  0  0  0
  4  5  1  0  0  0  0
  4 62  1  0  0  0  0
  4 63  1  0  0  0  0
  5  6  1  1  0  0  0
  5  7  1  0  0  0  0
  5 48  1  0  0  0  0
  7  8  1  0  0  0  0
  7 64  1  0  0  0  0
  8  9  2  0  0  0  0
  8 13  1  0  0  0  0
  9 10  1  0  0  0  0
  9 65  1  0  0  0  0
 10 11  2  0  0  0  0
 10 66  1  0  0  0  0
 11 12  1  0  0  0  0
 11 17  1  0  0  0  0
 12 13  2  0  0  0  0
 12 67  1  0  0  0  0
 13 14  1  0  0  0  0
 14 15  2  0  0  0  0
 14 16  1  0  0  0  0
 17 18  2  0  0  0  0
 17 19  2  0  0  0  0
 17 20  1  0  0  0  0
 20 21  1  0  0  0  0
 20 68  1  0  0  0  0
 21 22  2  0  0  0  0
 21 23  1  0  0  0  0
 23 24  2  0  0  0  0
 23 28  1  0  0  0  0
 24 25  1  0  0  0  0
 24 69  1  0  0  0  0
 25 26  2  0  0  0  0
 25 70  1  0  0  0  0
 26 27  1  0  0  0  0
 26 29  1  0  0  0  0
 27 28  2  0  0  0  0
 27 71  1  0  0  0  0
 28 72  1  0  0  0  0
 29 30  1  0  0  0  0
 29 34  1  0  0  0  0
 30 31  1  0  0  0  0
 30 73  1  0  0  0  0
 30 74  1  0  0  0  0
 31 32  1  0  0  0  0
 31 75  1  0  0  0  0
 31 76  1  0  0  0  0
 32 33  1  0  0  0  0
 32 35  1  0  0  0  0
 33 34  1  0  0  0  0
 33 77  1  0  0  0  0
 33 78  1  0  0  0  0
 34 79  1  0  0  0  0
 34 80  1  0  0  0  0
 35 36  1  0  0  0  0
 35 81  1  0  0  0  0
 35 82  1  0  0  0  0
 36 37  2  0  0  0  0
 36 41  1  0  0  0  0
 37 38  1  0  0  0  0
 37 83  1  0  0  0  0
 38 39  2  0  0  0  0
 38 84  1  0  0  0  0
 39 40  1  0  0  0  0
 39 85  1  0  0  0  0
 40 41  2  0  0  0  0
 40 42  1  0  0  0  0
 41 86  1  0  0  0  0
 42 43  2  0  0  0  0
 42 47  1  0  0  0  0
 43 44  1  0  0  0  0
 43 87  1  0  0  0  0
 44 45  2  0  0  0  0
 44 88  1  0  0  0  0
 45 46  1  0  0  0  0
 45 89  1  0  0  0  0
 46 47  2  0  0  0  0
 46 90  1  0  0  0  0
 47 91  1  0  0  0  0
 48 49  1  0  0  0  0
 48 92  1  0  0  0  0
 48 93  1  0  0  0  0
 49 50  1  0  0  0  0
 50 51  2  0  0  0  0
 50 55  1  0  0  0  0
 51 52  1  0  0  0  0
 51 94  1  0  0  0  0
 52 53  2  0  0  0  0
 52 95  1  0  0  0  0
 53 54  1  0  0  0  0
 53 96  1  0  0  0  0
 54 55  2  0  0  0  0
 54 97  1  0  0  0  0
 55 98  1  0  0  0  0
 56 99  1  0  0  0  0
 56100  1  0  0  0  0
 56101  1  0  0  0  0
M  CHG  2  14   1  16  -1
M  END
$$$$
