X0W
 OpenBabel04121316203D

 25 26  0  0  0  0  0  0  0  0999 V2000
    0.9952   -0.1692   -0.0039 C   0  0  0  0  0  0  0  0  0  0  0  0
    2.4165   -0.1632   -0.1493 O   0  0  0  0  0  0  0  0  0  0  0  0
    3.0281   -0.4792    1.0375 C   0  0  0  0  0  0  0  0  0  0  0  0
    3.0371   -1.8332    1.3543 C   0  0  0  0  0  0  0  0  0  0  0  0
    3.6763   -2.2300    2.5285 C   0  0  0  0  0  0  0  0  0  0  0  0
    3.7958   -3.8221    3.1254 S   0  0  0  0  0  0  0  0  0  0  0  0
    4.6795   -3.2366    4.4665 C   0  0  0  0  0  0  0  0  0  0  0  0
    4.8949   -1.9380    4.4993 N   0  0  0  0  0  0  0  0  0  0  0  0
    4.3186   -1.3378    3.3773 C   0  0  0  0  0  0  0  0  0  0  0  0
    4.3252    0.0346    3.0229 C   0  0  0  0  0  0  0  0  0  0  0  0
    3.6823    0.4632    1.8383 C   0  0  0  0  0  0  0  0  0  0  0  0
    3.7784    1.8154    1.6088 O   0  0  0  0  0  0  0  0  0  0  0  0
    3.1819    2.3084    0.4138 C   0  0  0  0  0  0  0  0  0  0  0  0
    5.1276   -4.2337    5.4755 C   0  0  0  0  0  0  0  0  0  0  0  0
    0.5775    0.2240   -0.9345 H   0  0  0  0  0  0  0  0  0  0  0  0
    0.6752    0.4831    0.8165 H   0  0  0  0  0  0  0  0  0  0  0  0
    0.6096   -1.1815    0.1482 H   0  0  0  0  0  0  0  0  0  0  0  0
    2.5695   -2.5647    0.7089 H   0  0  0  0  0  0  0  0  0  0  0  0
    4.8321    0.7531    3.6614 H   0  0  0  0  0  0  0  0  0  0  0  0
    3.3600    3.3834    0.3421 H   0  0  0  0  0  0  0  0  0  0  0  0
    2.0965    2.1825    0.4450 H   0  0  0  0  0  0  0  0  0  0  0  0
    3.6275    1.8454   -0.4736 H   0  0  0  0  0  0  0  0  0  0  0  0
    4.8099   -5.2473    5.2008 H   0  0  0  0  0  0  0  0  0  0  0  0
    4.6942   -4.0080    6.4526 H   0  0  0  0  0  0  0  0  0  0  0  0
    6.2177   -4.2398    5.5473 H   0  0  0  0  0  0  0  0  0  0  0  0
  1  2  1  0  0  0  0
  1 15  1  0  0  0  0
  1 16  1  0  0  0  0
  1 17  1  0  0  0  0
  2  3  1  0  0  0  0
  3  4  2  0  0  0  0
  3 11  1  0  0  0  0
  4  5  1  0  0  0  0
  4 18  1  0  0  0  0
  5  6  1  0  0  0  0
  5  9  2  0  0  0  0
  6  7  1  0  0  0  0
  7  8  2  0  0  0  0
  7 14  1  0  0  0  0
  8  9  1  0  0  0  0
  9 10  1  0  0  0  0
 10 11  2  0  0  0  0
 10 19  1  0  0  0  0
 11 12  1  0  0  0  0
 12 13  1  0  0  0  0
 13 20  1  0  0  0  0
 13 21  1  0  0  0  0
 13 22  1  0  0  0  0
 14 23  1  0  0  0  0
 14 24  1  0  0  0  0
 14 25  1  0  0  0  0
M  END
$$$$
