X1P
 OpenBabel04121316203D

 25 25  0  0  1  0  0  0  0  0999 V2000
    2.8682    0.1903    1.4305 O   0  0  0  0  0  0  0  0  0  0  0  0
    2.3649   -0.0976    0.1274 C   0  0  2  0  0  0  0  0  0  0  0  0
    1.2718   -0.1195    0.2135 H   0  0  0  0  0  0  0  0  0  0  0  0
    2.8733   -1.4750   -0.3348 C   0  0  0  0  0  0  0  0  0  0  0  0
    2.4906   -1.8243   -1.6701 O   0  0  0  0  0  0  0  0  0  0  0  0
    2.9173   -0.8435   -2.6242 C   0  0  1  0  0  0  0  0  0  0  0  0
    2.5840   -1.1693   -3.6161 H   0  0  0  0  0  0  0  0  0  0  0  0
    2.1662    0.4823   -2.2556 C   0  0  1  0  0  0  0  0  0  0  0  0
    1.1179    0.2194   -2.0660 H   0  0  0  0  0  0  0  0  0  0  0  0
    2.7325    0.9878   -0.9062 C   0  0  1  0  0  0  0  0  0  0  0  0
    3.8204    1.1011   -0.9091 H   0  0  0  0  0  0  0  0  0  0  0  0
    2.2283    2.2664   -0.5152 O   0  0  0  0  0  0  0  0  0  0  0  0
    2.0139    1.4352   -3.3079 O   0  0  0  0  0  0  0  0  0  0  0  0
    4.3605   -0.8237   -2.6476 O   0  0  0  0  0  0  0  0  0  0  0  0
    4.9505    0.2830   -3.8392 P   0  0  0  0  0  0  0  0  0  0  0  0
    4.6168    1.5064   -3.0056 O   0  0  0  0  0  0  0  0  0  0  0  0
    6.4555   -0.1301   -3.3984 O   0  0  0  0  0  0  0  0  0  0  0  0
    5.5406    1.3898   -5.0308 O   0  0  0  0  0  0  0  0  0  0  0  0
    3.8087    0.4242    1.3503 H   0  0  0  0  0  0  0  0  0  0  0  0
    2.4774   -2.2457    0.3331 H   0  0  0  0  0  0  0  0  0  0  0  0
    3.9649   -1.5298   -0.2478 H   0  0  0  0  0  0  0  0  0  0  0  0
    1.2803    2.3039   -0.7165 H   0  0  0  0  0  0  0  0  0  0  0  0
    2.8690    1.6020   -3.7421 H   0  0  0  0  0  0  0  0  0  0  0  0
    6.6294    0.2450   -2.5160 H   0  0  0  0  0  0  0  0  0  0  0  0
    4.9028    2.1169   -5.1476 H   0  0  0  0  0  0  0  0  0  0  0  0
  1 19  1  0  0  0  0
  2  4  1  0  0  0  0
  2 10  1  0  0  0  0
  2  3  1  1  0  0  0
  2  1  1  0  0  0  0
  4  5  1  0  0  0  0
  4 20  1  0  0  0  0
  4 21  1  0  0  0  0
  5  6  1  0  0  0  0
  6  7  1  6  0  0  0
  6  8  1  0  0  0  0
  6 14  1  0  0  0  0
  8  9  1  1  0  0  0
  8 10  1  0  0  0  0
  8 13  1  0  0  0  0
 10 12  1  0  0  0  0
 10 11  1  6  0  0  0
 12 22  1  0  0  0  0
 13 23  1  0  0  0  0
 14 15  1  0  0  0  0
 15 16  2  0  0  0  0
 15 17  1  0  0  0  0
 15 18  1  0  0  0  0
 17 24  1  0  0  0  0
 18 25  1  0  0  0  0
M  END
$$$$
