X22
 OpenBabel04121316203D

 72 75  0  0  1  0  0  0  0  0999 V2000
    1.8596    1.4757    1.3612 C   0  0  0  0  0  0  0  0  0  0  0  0
    3.2712    1.8967    1.1890 C   0  0  0  0  0  0  0  0  0  0  0  0
    3.4308    3.2728    0.5015 C   0  0  1  0  0  0  0  0  0  0  0  0
    2.9753    3.2968   -0.4960 H   0  0  0  0  0  0  0  0  0  0  0  0
    2.8853    4.5254    1.2914 C   0  0  0  0  0  0  0  0  0  0  0  0
    3.6374    5.3672    1.7943 O   0  0  0  0  0  0  0  0  0  0  0  0
    1.5365    4.6980    1.4681 N   0  0  0  0  0  0  0  0  0  0  0  0
    0.4059    3.9396    0.8966 C   0  0  1  0  0  0  0  0  0  0  0  0
    0.8493    3.2113    0.2324 H   0  0  0  0  0  0  0  0  0  0  0  0
   -0.4574    3.3137    2.0301 C   0  0  1  0  0  0  0  0  0  0  0  0
    0.1928    3.0279    2.8710 H   0  0  0  0  0  0  0  0  0  0  0  0
   -1.3673    4.3313    2.6950 C   0  0  0  0  0  0  0  0  0  0  0  0
   -0.5972    5.4433    3.1253 O   0  0  0  0  0  0  0  0  0  0  0  0
   -1.1766    2.0179    1.6046 C   0  0  0  0  0  0  0  0  0  0  0  0
   -2.4107    2.2592    0.7641 C   0  0  0  0  0  0  0  0  0  0  0  0
   -2.0855    2.8350   -0.6300 C   0  0  2  0  0  0  0  0  0  0  0  0
   -1.4050    2.1466   -1.1505 H   0  0  0  0  0  0  0  0  0  0  0  0
   -1.4875    4.1874   -0.6905 N   0  0  0  0  0  0  0  0  0  0  0  0
   -0.3366    4.7237   -0.1473 C   0  0  0  0  0  0  0  0  0  0  0  0
    0.1576    5.7754   -0.5917 O   0  0  0  0  0  0  0  0  0  0  0  0
   -2.1092    5.0208   -1.7046 C   0  0  1  0  0  0  0  0  0  0  0  0
   -1.3778    5.3001   -2.4721 H   0  0  0  0  0  0  0  0  0  0  0  0
   -3.2658    4.2241   -2.2828 C   0  0  0  0  0  0  0  0  0  0  0  0
   -3.3828    2.9564   -1.4484 C   0  0  0  0  0  0  0  0  0  0  0  0
   -2.6854    6.2318   -0.9631 C   0  0  0  0  0  0  0  0  0  0  0  0
   -3.6928    6.0970   -0.2972 O   0  0  0  0  0  0  0  0  0  0  0  0
   -1.9408    7.3921   -1.0319 N   0  0  0  0  0  0  0  0  0  0  0  0
   -2.3090    8.5851   -0.2968 C   0  0  0  0  0  0  0  0  0  0  0  0
   -2.4051    8.3967    1.2470 C   0  0  0  0  0  0  0  0  0  0  0  0
   -3.5539    7.8788    1.8686 C   0  0  0  0  0  0  0  0  0  0  0  0
   -3.6967    7.8909    3.2669 C   0  0  0  0  0  0  0  0  0  0  0  0
   -2.6724    8.3509    4.0874 C   0  0  0  0  0  0  0  0  0  0  0  0
   -1.4861    8.7339    3.5172 C   0  0  0  0  0  0  0  0  0  0  0  0
   -1.3914    8.7803    2.1372 C   0  0  0  0  0  0  0  0  0  0  0  0
   -1.4321    9.7734   -0.7532 C   0  0  0  0  0  0  0  0  0  0  0  0
   -0.1803   10.0343   -0.1840 C   0  0  0  0  0  0  0  0  0  0  0  0
    0.3374   11.3201   -0.1328 C   0  0  0  0  0  0  0  0  0  0  0  0
   -0.0951   12.2245   -1.0761 C   0  0  0  0  0  0  0  0  0  0  0  0
   -1.0888   11.8350   -1.9741 C   0  0  0  0  0  0  0  0  0  0  0  0
   -1.8295   10.6639   -1.7492 C   0  0  0  0  0  0  0  0  0  0  0  0
    4.8932    3.4052    0.3237 N   0  0  0  0  0  0  0  0  0  0  0  0
    1.6240    0.5715    1.9154 H   0  0  0  0  0  0  0  0  0  0  0  0
    1.3544    1.4322    0.3912 H   0  0  0  0  0  0  0  0  0  0  0  0
    1.5186    2.2447    2.0194 H   0  0  0  0  0  0  0  0  0  0  0  0
    3.7511    1.1031    0.6130 H   0  0  0  0  0  0  0  0  0  0  0  0
    3.7026    1.9390    2.1940 H   0  0  0  0  0  0  0  0  0  0  0  0
    1.2872    5.5917    1.8903 H   0  0  0  0  0  0  0  0  0  0  0  0
   -1.8529    3.8818    3.5679 H   0  0  0  0  0  0  0  0  0  0  0  0
   -2.1312    4.6865    2.0061 H   0  0  0  0  0  0  0  0  0  0  0  0
    0.0796    5.1285    3.7488 H   0  0  0  0  0  0  0  0  0  0  0  0
   -1.4225    1.4375    2.5060 H   0  0  0  0  0  0  0  0  0  0  0  0
   -0.5427    1.3375    1.0306 H   0  0  0  0  0  0  0  0  0  0  0  0
   -3.1105    2.8945    1.3133 H   0  0  0  0  0  0  0  0  0  0  0  0
   -2.9206    1.2898    0.6562 H   0  0  0  0  0  0  0  0  0  0  0  0
   -3.0870    4.0031   -3.3377 H   0  0  0  0  0  0  0  0  0  0  0  0
   -4.2084    4.7842   -2.2455 H   0  0  0  0  0  0  0  0  0  0  0  0
   -3.5448    2.0895   -2.0982 H   0  0  0  0  0  0  0  0  0  0  0  0
   -4.2603    3.0274   -0.7931 H   0  0  0  0  0  0  0  0  0  0  0  0
   -1.0151    7.3620   -1.4463 H   0  0  0  0  0  0  0  0  0  0  0  0
   -3.3359    8.8125   -0.6255 H   0  0  0  0  0  0  0  0  0  0  0  0
   -4.3791    7.4684    1.2914 H   0  0  0  0  0  0  0  0  0  0  0  0
   -4.6251    7.5543    3.7150 H   0  0  0  0  0  0  0  0  0  0  0  0
   -2.7851    8.4237    5.1604 H   0  0  0  0  0  0  0  0  0  0  0  0
   -0.6242    9.0495    4.0960 H   0  0  0  0  0  0  0  0  0  0  0  0
   -0.4604    9.2142    1.8527 H   0  0  0  0  0  0  0  0  0  0  0  0
    0.3801    9.2476    0.3098 H   0  0  0  0  0  0  0  0  0  0  0  0
    1.1003   11.5757    0.5988 H   0  0  0  0  0  0  0  0  0  0  0  0
    0.3913   13.1915   -1.1485 H   0  0  0  0  0  0  0  0  0  0  0  0
   -1.3013   12.4615   -2.8333 H   0  0  0  0  0  0  0  0  0  0  0  0
   -2.6957   10.4501   -2.3688 H   0  0  0  0  0  0  0  0  0  0  0  0
    5.2577    2.5543   -0.0990 H   0  0  0  0  0  0  0  0  0  0  0  0
    5.3044    3.4591    1.2596 H   0  0  0  0  0  0  0  0  0  0  0  0
  1  2  1  0  0  0  0
  1 42  1  0  0  0  0
  1 43  1  0  0  0  0
  1 44  1  0  0  0  0
  2  3  1  0  0  0  0
  2 45  1  0  0  0  0
  2 46  1  0  0  0  0
  3  4  1  6  0  0  0
  3  5  1  0  0  0  0
  3 41  1  0  0  0  0
  5  6  2  0  0  0  0
  5  7  1  0  0  0  0
  7 47  1  0  0  0  0
  8 10  1  0  0  0  0
  8 19  1  0  0  0  0
  8  9  1  6  0  0  0
  8  7  1  0  0  0  0
 10 11  1  1  0  0  0
 10 12  1  0  0  0  0
 10 14  1  0  0  0  0
 12 13  1  0  0  0  0
 12 48  1  0  0  0  0
 12 49  1  0  0  0  0
 13 50  1  0  0  0  0
 14 15  1  0  0  0  0
 14 51  1  0  0  0  0
 14 52  1  0  0  0  0
 15 16  1  0  0  0  0
 15 53  1  0  0  0  0
 15 54  1  0  0  0  0
 16 17  1  6  0  0  0
 16 18  1  0  0  0  0
 16 24  1  0  0  0  0
 18 19  1  0  0  0  0
 18 21  1  0  0  0  0
 19 20  2  0  0  0  0
 21 23  1  0  0  0  0
 21 25  1  0  0  0  0
 21 22  1  6  0  0  0
 23 24  1  0  0  0  0
 23 55  1  0  0  0  0
 23 56  1  0  0  0  0
 24 57  1  0  0  0  0
 24 58  1  0  0  0  0
 25 26  2  0  0  0  0
 25 27  1  0  0  0  0
 27 28  1  0  0  0  0
 27 59  1  0  0  0  0
 28 29  1  0  0  0  0
 28 35  1  0  0  0  0
 28 60  1  0  0  0  0
 29 30  2  0  0  0  0
 29 34  1  0  0  0  0
 30 31  1  0  0  0  0
 30 61  1  0  0  0  0
 31 32  2  0  0  0  0
 31 62  1  0  0  0  0
 32 33  1  0  0  0  0
 32 63  1  0  0  0  0
 33 34  2  0  0  0  0
 33 64  1  0  0  0  0
 34 65  1  0  0  0  0
 35 36  2  0  0  0  0
 35 40  1  0  0  0  0
 36 37  1  0  0  0  0
 36 66  1  0  0  0  0
 37 38  2  0  0  0  0
 37 67  1  0  0  0  0
 38 39  1  0  0  0  0
 38 68  1  0  0  0  0
 39 40  2  0  0  0  0
 39 69  1  0  0  0  0
 40 70  1  0  0  0  0
 41 71  1  0  0  0  0
 41 72  1  0  0  0  0
M  END
$$$$
