X55
 OpenBabel04121316203D

 39 41  0  0  1  0  0  0  0  0999 V2000
    1.0232   -0.0874    0.0709 C   0  0  0  0  0  0  0  0  0  0  0  0
    2.4408   -0.1575   -0.0162 O   0  0  0  0  0  0  0  0  0  0  0  0
    3.0663    0.3231    1.1005 C   0  0  0  0  0  0  0  0  0  0  0  0
    3.0310    1.6784    1.4001 C   0  0  0  0  0  0  0  0  0  0  0  0
    3.8691    2.2067    2.4023 C   0  0  0  0  0  0  0  0  0  0  0  0
    4.7015    1.3327    3.1305 C   0  0  0  0  0  0  0  0  0  0  0  0
    4.6326   -0.0409    2.9160 C   0  0  0  0  0  0  0  0  0  0  0  0
    3.8683   -0.5286    1.8594 C   0  0  0  0  0  0  0  0  0  0  0  0
    3.9003   -1.8604    1.5567 O   0  0  0  0  0  0  0  0  0  0  0  0
    5.9025    1.9343    4.4901 Br  0  0  0  0  0  0  0  0  0  0  0  0
    3.8860    3.6842    2.6611 C   0  0  1  0  0  0  0  0  0  0  0  0
    4.2158    3.9406    3.6710 H   0  0  0  0  0  0  0  0  0  0  0  0
    5.1018    4.3958    1.5265 S   0  0  0  0  0  0  0  0  0  0  0  0
    4.3101    5.9847    1.6249 C   0  0  0  0  0  0  0  0  0  0  0  0
    2.8513    5.7091    1.9624 C   0  0  0  0  0  0  0  0  0  0  0  0
    1.9654    6.5599    1.8269 O   0  0  0  0  0  0  0  0  0  0  0  0
    2.6461    4.4304    2.4866 N   0  0  0  0  0  0  0  0  0  0  0  0
    1.3341    4.0552    3.0928 C   0  0  0  0  0  0  0  0  0  0  0  0
    1.2448    2.7257    3.8327 C   0  0  0  0  0  0  0  0  0  0  0  0
    2.1905    2.3624    4.8010 C   0  0  0  0  0  0  0  0  0  0  0  0
    2.3628    1.0183    5.1512 C   0  0  0  0  0  0  0  0  0  0  0  0
    1.4607    0.0598    4.7158 C   0  0  0  0  0  0  0  0  0  0  0  0
    0.3513    0.4615    3.9820 C   0  0  0  0  0  0  0  0  0  0  0  0
    0.2678    1.7740    3.4976 C   0  0  0  0  0  0  0  0  0  0  0  0
    0.6233   -0.4709   -0.8727 H   0  0  0  0  0  0  0  0  0  0  0  0
    0.6592    0.9385    0.1883 H   0  0  0  0  0  0  0  0  0  0  0  0
    0.6541   -0.7227    0.8817 H   0  0  0  0  0  0  0  0  0  0  0  0
    2.3592    2.3353    0.8527 H   0  0  0  0  0  0  0  0  0  0  0  0
    5.1587   -0.7147    3.5835 H   0  0  0  0  0  0  0  0  0  0  0  0
    4.5977   -2.2801    2.0838 H   0  0  0  0  0  0  0  0  0  0  0  0
    4.4299    6.5019    0.6740 H   0  0  0  0  0  0  0  0  0  0  0  0
    4.7836    6.5383    2.4396 H   0  0  0  0  0  0  0  0  0  0  0  0
    0.6314    4.0407    2.2462 H   0  0  0  0  0  0  0  0  0  0  0  0
    0.9837    4.8588    3.7528 H   0  0  0  0  0  0  0  0  0  0  0  0
    2.9264    3.0811    5.1488 H   0  0  0  0  0  0  0  0  0  0  0  0
    3.2650    0.7054    5.6734 H   0  0  0  0  0  0  0  0  0  0  0  0
    1.6343   -0.9905    4.9350 H   0  0  0  0  0  0  0  0  0  0  0  0
   -0.4181   -0.2660    3.7403 H   0  0  0  0  0  0  0  0  0  0  0  0
   -0.5383    2.0229    2.8113 H   0  0  0  0  0  0  0  0  0  0  0  0
  1  2  1  0  0  0  0
  1 25  1  0  0  0  0
  1 26  1  0  0  0  0
  1 27  1  0  0  0  0
  2  3  1  0  0  0  0
  3  4  2  0  0  0  0
  3  8  1  0  0  0  0
  4  5  1  0  0  0  0
  4 28  1  0  0  0  0
  5  6  2  0  0  0  0
  5 11  1  0  0  0  0
  6  7  1  0  0  0  0
  6 10  1  0  0  0  0
  7  8  2  0  0  0  0
  7 29  1  0  0  0  0
  8  9  1  0  0  0  0
  9 30  1  0  0  0  0
 11 12  1  1  0  0  0
 11 13  1  0  0  0  0
 11 17  1  0  0  0  0
 13 14  1  0  0  0  0
 14 15  1  0  0  0  0
 14 31  1  0  0  0  0
 14 32  1  0  0  0  0
 15 16  2  0  0  0  0
 15 17  1  0  0  0  0
 17 18  1  0  0  0  0
 18 19  1  0  0  0  0
 18 33  1  0  0  0  0
 18 34  1  0  0  0  0
 19 20  2  0  0  0  0
 19 24  1  0  0  0  0
 20 21  1  0  0  0  0
 20 35  1  0  0  0  0
 21 22  2  0  0  0  0
 21 36  1  0  0  0  0
 22 23  1  0  0  0  0
 22 37  1  0  0  0  0
 23 24  2  0  0  0  0
 23 38  1  0  0  0  0
 24 39  1  0  0  0  0
M  END
$$$$
