X5S
 OpenBabel04121316203D

 88 92  0  0  1  0  0  0  0  0999 V2000
   16.6029    9.5551   10.0317 O   0  0  0  0  0  0  0  0  0  0  0  0
   16.2367    8.6800    8.9531 C   0  0  1  0  0  0  0  0  0  0  0  0
   17.1581    8.2234    8.5812 H   0  0  0  0  0  0  0  0  0  0  0  0
   15.2479    7.5324    9.3472 C   0  0  1  0  0  0  0  0  0  0  0  0
   15.7693    7.0431   10.1802 H   0  0  0  0  0  0  0  0  0  0  0  0
   14.0805    8.0276   10.0230 O   0  0  0  0  0  0  0  0  0  0  0  0
   13.3181    8.8469    9.1595 C   0  0  0  0  0  0  0  0  0  0  0  0
   14.1812    9.9827    8.3925 C   0  0  2  0  0  0  0  0  0  0  0  0
   13.6477   10.3408    7.5116 H   0  0  0  0  0  0  0  0  0  0  0  0
   15.6377    9.6051    7.9360 C   0  0  2  0  0  0  0  0  0  0  0  0
   16.1595   10.5537    7.8106 H   0  0  0  0  0  0  0  0  0  0  0  0
   15.9987    9.0186    6.6925 O   0  0  0  0  0  0  0  0  0  0  0  0
   14.3080   11.5675    9.3455 S   0  0  0  0  0  0  0  0  0  0  0  0
   12.9324   12.4548    8.5790 C   0  0  2  0  0  0  0  0  0  0  0  0
   12.5632   13.0072    9.4481 H   0  0  0  0  0  0  0  0  0  0  0  0
   11.9635   11.5019    8.1443 O   0  0  0  0  0  0  0  0  0  0  0  0
   10.6756   12.0562    8.0626 C   0  0  0  0  0  0  0  0  0  0  0  0
   10.6478   13.1664    7.0272 C   0  0  2  0  0  0  0  0  0  0  0  0
   10.8680   12.7351    6.0400 H   0  0  0  0  0  0  0  0  0  0  0  0
   11.7472   14.2094    7.3142 C   0  0  1  0  0  0  0  0  0  0  0  0
   11.5431   14.7261    8.2588 H   0  0  0  0  0  0  0  0  0  0  0  0
   13.1418   13.5138    7.4592 C   0  0  1  0  0  0  0  0  0  0  0  0
   13.4293   13.0702    6.4954 H   0  0  0  0  0  0  0  0  0  0  0  0
   14.1400   14.4855    7.7890 O   0  0  0  0  0  0  0  0  0  0  0  0
   11.7579   15.2238    6.3086 O   0  0  0  0  0  0  0  0  0  0  0  0
    8.9641   13.8701    6.8895 S   0  0  0  0  0  0  0  0  0  0  0  0
    8.6104   14.4262    8.6124 C   0  0  2  0  0  0  0  0  0  0  0  0
    9.3960   15.1396    8.8871 H   0  0  0  0  0  0  0  0  0  0  0  0
    8.6101   13.3327    9.5292 O   0  0  0  0  0  0  0  0  0  0  0  0
    8.3405   13.7071   10.8789 C   0  0  0  0  0  0  0  0  0  0  0  0
    6.9493   14.3187   10.9918 C   0  0  2  0  0  0  0  0  0  0  0  0
    6.1925   13.5774   10.7064 H   0  0  0  0  0  0  0  0  0  0  0  0
    6.8669   15.5250   10.0504 C   0  0  1  0  0  0  0  0  0  0  0  0
    7.5422   16.3160   10.3988 H   0  0  0  0  0  0  0  0  0  0  0  0
    7.2353   15.1234    8.6130 C   0  0  1  0  0  0  0  0  0  0  0  0
    6.4654   14.4354    8.2390 H   0  0  0  0  0  0  0  0  0  0  0  0
    7.2413   16.2735    7.7564 O   0  0  0  0  0  0  0  0  0  0  0  0
    5.5561   16.0913   10.0930 O   0  0  0  0  0  0  0  0  0  0  0  0
    6.6579   14.7264   12.3297 O   0  0  0  0  0  0  0  0  0  0  0  0
   14.9675    5.9802    8.1889 S   0  0  0  0  0  0  0  0  0  0  0  0
   13.7922    6.2958    6.6641 C   0  0  2  0  0  0  0  0  0  0  0  0
   12.7657    6.2027    7.0298 H   0  0  0  0  0  0  0  0  0  0  0  0
   14.0661    5.3229    5.5144 C   0  0  0  0  0  0  0  0  0  0  0  0
   13.2664    5.6806    4.3483 O   0  0  0  0  0  0  0  0  0  0  0  0
   13.6416    6.9462    3.7641 C   0  0  2  0  0  0  0  0  0  0  0  0
   14.7159    6.9034    3.6701 H   0  0  0  0  0  0  0  0  0  0  0  0
   13.3522    8.0836    4.7015 C   0  0  1  0  0  0  0  0  0  0  0  0
   12.2853    8.3114    4.8316 H   0  0  0  0  0  0  0  0  0  0  0  0
   13.9761    7.6092    5.9794 C   0  0  1  0  0  0  0  0  0  0  0  0
   15.0577    7.5988    5.7525 H   0  0  0  0  0  0  0  0  0  0  0  0
   13.4580    8.5570    6.7761 O   0  0  0  0  0  0  0  0  0  0  0  0
   14.0014    9.3807    4.5059 O   0  0  0  0  0  0  0  0  0  0  0  0
   12.7419    7.2419    2.2056 S   0  0  0  0  0  0  0  0  0  0  0  0
   14.1246    7.5025    1.0315 C   0  0  2  0  0  0  0  0  0  0  0  0
   13.8605    8.4185    0.4895 H   0  0  0  0  0  0  0  0  0  0  0  0
   14.2858    6.3957   -0.0136 C   0  0  0  0  0  0  0  0  0  0  0  0
   15.3056    6.7981   -0.9494 O   0  0  0  0  0  0  0  0  0  0  0  0
   16.5839    6.9946   -0.3468 C   0  0  2  0  0  0  0  0  0  0  0  0
   16.9489    6.0402    0.0510 H   0  0  0  0  0  0  0  0  0  0  0  0
   16.5618    8.0563    0.7461 C   0  0  1  0  0  0  0  0  0  0  0  0
   16.3730    9.0648    0.3598 H   0  0  0  0  0  0  0  0  0  0  0  0
   15.4767    7.7074    1.7119 C   0  0  1  0  0  0  0  0  0  0  0  0
   15.7964    6.7782    2.2058 H   0  0  0  0  0  0  0  0  0  0  0  0
   15.4574    8.7634    2.6602 O   0  0  0  0  0  0  0  0  0  0  0  0
   17.7910    8.0948    1.4816 O   0  0  0  0  0  0  0  0  0  0  0  0
   17.5019    7.4315   -1.3375 O   0  0  0  0  0  0  0  0  0  0  0  0
   17.0008    9.0482   10.7473 H   0  0  0  0  0  0  0  0  0  0  0  0
   12.4199    9.2422    9.6522 H   0  0  0  0  0  0  0  0  0  0  0  0
   12.8308    8.0681    8.5597 H   0  0  0  0  0  0  0  0  0  0  0  0
   15.4917    9.4349    5.9719 H   0  0  0  0  0  0  0  0  0  0  0  0
   10.4604   12.3992    9.0698 H   0  0  0  0  0  0  0  0  0  0  0  0
    9.9822   11.2518    7.8039 H   0  0  0  0  0  0  0  0  0  0  0  0
   13.8993   14.9157    8.6244 H   0  0  0  0  0  0  0  0  0  0  0  0
   10.8392   15.5407    6.2092 H   0  0  0  0  0  0  0  0  0  0  0  0
    9.1114   14.4006   11.2403 H   0  0  0  0  0  0  0  0  0  0  0  0
    8.4144   12.8155   11.5123 H   0  0  0  0  0  0  0  0  0  0  0  0
    7.8357   16.9440    8.1267 H   0  0  0  0  0  0  0  0  0  0  0  0
    5.3179   16.1861   11.0341 H   0  0  0  0  0  0  0  0  0  0  0  0
    7.3582   15.3234   12.6437 H   0  0  0  0  0  0  0  0  0  0  0  0
   13.7986    4.3065    5.7964 H   0  0  0  0  0  0  0  0  0  0  0  0
   15.1329    5.3312    5.2358 H   0  0  0  0  0  0  0  0  0  0  0  0
   12.4630    8.5439    6.7432 H   0  0  0  0  0  0  0  0  0  0  0  0
   13.5271    9.9205    3.8543 H   0  0  0  0  0  0  0  0  0  0  0  0
   13.3598    6.2604   -0.5861 H   0  0  0  0  0  0  0  0  0  0  0  0
   14.5474    5.4211    0.4202 H   0  0  0  0  0  0  0  0  0  0  0  0
   14.9143    9.4962    2.3320 H   0  0  0  0  0  0  0  0  0  0  0  0
   18.4840    8.4237    0.8891 H   0  0  0  0  0  0  0  0  0  0  0  0
   17.2512    8.3467   -1.5469 H   0  0  0  0  0  0  0  0  0  0  0  0
  1  2  1  0  0  0  0
  1 67  1  0  0  0  0
  2  3  1  6  0  0  0
  2  4  1  0  0  0  0
  2 10  1  0  0  0  0
  4  6  1  0  0  0  0
  4 40  1  0  0  0  0
  4  5  1  1  0  0  0
  6  7  1  0  0  0  0
  7  8  1  0  0  0  0
  7 68  1  0  0  0  0
  7 69  1  0  0  0  0
  8 10  1  0  0  0  0
  8 13  1  0  0  0  0
  8  9  1  6  0  0  0
 10 11  1  1  0  0  0
 10 12  1  0  0  0  0
 12 70  1  0  0  0  0
 14 16  1  0  0  0  0
 14 22  1  0  0  0  0
 14 15  1  1  0  0  0
 14 13  1  0  0  0  0
 16 17  1  0  0  0  0
 17 18  1  0  0  0  0
 17 71  1  0  0  0  0
 17 72  1  0  0  0  0
 18 20  1  0  0  0  0
 18 26  1  0  0  0  0
 18 19  1  6  0  0  0
 20 21  1  1  0  0  0
 20 22  1  0  0  0  0
 20 25  1  0  0  0  0
 22 24  1  0  0  0  0
 22 23  1  6  0  0  0
 24 73  1  0  0  0  0
 25 74  1  0  0  0  0
 27 29  1  0  0  0  0
 27 35  1  0  0  0  0
 27 28  1  1  0  0  0
 27 26  1  0  0  0  0
 29 30  1  0  0  0  0
 30 31  1  0  0  0  0
 30 75  1  0  0  0  0
 30 76  1  0  0  0  0
 31 33  1  0  0  0  0
 31 39  1  0  0  0  0
 31 32  1  6  0  0  0
 33 34  1  1  0  0  0
 33 35  1  0  0  0  0
 33 38  1  0  0  0  0
 35 37  1  0  0  0  0
 35 36  1  6  0  0  0
 37 77  1  0  0  0  0
 38 78  1  0  0  0  0
 39 79  1  0  0  0  0
 41 43  1  0  0  0  0
 41 49  1  0  0  0  0
 41 42  1  1  0  0  0
 41 40  1  0  0  0  0
 43 44  1  0  0  0  0
 43 80  1  0  0  0  0
 43 81  1  0  0  0  0
 44 45  1  0  0  0  0
 45 47  1  0  0  0  0
 45 53  1  0  0  0  0
 45 46  1  6  0  0  0
 47 48  1  1  0  0  0
 47 49  1  0  0  0  0
 47 52  1  0  0  0  0
 49 51  1  0  0  0  0
 49 50  1  6  0  0  0
 51 82  1  0  0  0  0
 52 83  1  0  0  0  0
 54 56  1  0  0  0  0
 54 62  1  0  0  0  0
 54 55  1  6  0  0  0
 54 53  1  0  0  0  0
 56 57  1  0  0  0  0
 56 84  1  0  0  0  0
 56 85  1  0  0  0  0
 57 58  1  0  0  0  0
 58 60  1  0  0  0  0
 58 66  1  0  0  0  0
 58 59  1  1  0  0  0
 60 61  1  6  0  0  0
 60 62  1  0  0  0  0
 60 65  1  0  0  0  0
 62 64  1  0  0  0  0
 62 63  1  1  0  0  0
 64 86  1  0  0  0  0
 65 87  1  0  0  0  0
 66 88  1  0  0  0  0
M  END
$$$$
