X8D
 OpenBabel04121316203D

 24 26  0  0  0  0  0  0  0  0999 V2000
    0.9440   -0.1769   -0.0108 C   0  0  0  0  0  0  0  0  0  0  0  0
    2.4410   -0.1878   -0.0092 C   0  0  0  0  0  0  0  0  0  0  0  0
    3.1274   -1.3385   -0.0077 C   0  0  0  0  0  0  0  0  0  0  0  0
    4.5917   -1.3190   -0.0026 C   0  0  0  0  0  0  0  0  0  0  0  0
    5.3426   -2.3787    0.0006 N   0  0  0  0  0  0  0  0  0  0  0  0
    6.6070   -1.8683    0.0062 N   0  0  0  0  0  0  0  0  0  0  0  0
    7.4244   -2.4644    0.0104 H   0  0  0  0  0  0  0  0  0  0  0  0
    6.5798   -0.4641    0.0065 C   0  0  0  0  0  0  0  0  0  0  0  0
    7.5781    0.2448    0.0121 O   0  0  0  0  0  0  0  0  0  0  0  0
    5.2448   -0.1294    0.0001 N   0  0  0  0  0  0  0  0  0  0  0  0
    4.5814    1.1213   -0.0027 C   0  0  0  0  0  0  0  0  0  0  0  0
    3.1657    1.1012   -0.0076 C   0  0  0  0  0  0  0  0  0  0  0  0
    2.4420    2.3056   -0.0101 C   0  0  0  0  0  0  0  0  0  0  0  0
    3.0917    3.5286   -0.0078 C   0  0  0  0  0  0  0  0  0  0  0  0
    4.4819    3.5578   -0.0031 C   0  0  0  0  0  0  0  0  0  0  0  0
    5.2302    2.3640   -0.0006 C   0  0  0  0  0  0  0  0  0  0  0  0
    0.5282   -1.1872   -0.0087 H   0  0  0  0  0  0  0  0  0  0  0  0
    0.5682    0.3335   -0.9047 H   0  0  0  0  0  0  0  0  0  0  0  0
    0.5669    0.3370    0.8806 H   0  0  0  0  0  0  0  0  0  0  0  0
    2.6496   -2.3092   -0.0085 H   0  0  0  0  0  0  0  0  0  0  0  0
    1.3557    2.3144   -0.0135 H   0  0  0  0  0  0  0  0  0  0  0  0
    2.5024    4.4430   -0.0095 H   0  0  0  0  0  0  0  0  0  0  0  0
    4.9800    4.5246   -0.0011 H   0  0  0  0  0  0  0  0  0  0  0  0
    6.3148    2.4406    0.0031 H   0  0  0  0  0  0  0  0  0  0  0  0
  1  2  1  0  0  0  0
  1 17  1  0  0  0  0
  1 18  1  0  0  0  0
  1 19  1  0  0  0  0
  2  3  2  0  0  0  0
  2 12  1  0  0  0  0
  3  4  1  0  0  0  0
  3 20  1  0  0  0  0
  4  5  2  0  0  0  0
  4 10  1  0  0  0  0
  5  6  1  0  0  0  0
  6  7  1  0  0  0  0
  6  8  1  0  0  0  0
  8  9  2  0  0  0  0
  8 10  1  0  0  0  0
 10 11  1  0  0  0  0
 11 12  2  0  0  0  0
 11 16  1  0  0  0  0
 12 13  1  0  0  0  0
 13 14  2  0  0  0  0
 13 21  1  0  0  0  0
 14 15  1  0  0  0  0
 14 22  1  0  0  0  0
 15 16  2  0  0  0  0
 15 23  1  0  0  0  0
 16 24  1  0  0  0  0
M  END
$$$$
