X92
 OpenBabel04121316203D

 56 58  0  0  1  0  0  0  0  0999 V2000
    1.2107   -1.3602    5.1389 O   0  0  0  0  0  0  0  0  0  0  0  0
    0.7473   -0.6604    4.0952 C   0  0  0  0  0  0  0  0  0  0  0  0
   -0.0416    0.2825    4.2174 O   0  0  0  0  0  0  0  0  0  0  0  0
    1.2713   -1.0886    2.7402 C   0  0  2  0  0  0  0  0  0  0  0  0
    0.7270   -0.4086    2.1310 H   0  0  0  0  0  0  0  0  0  0  0  0
    0.8437   -2.4265    2.2978 N   0  0  0  0  0  0  0  0  0  0  0  0
    1.1163   -2.6118    0.8271 C   0  0  2  0  0  0  0  0  0  0  0  0
    2.1804   -2.4980    0.6076 H   0  0  0  0  0  0  0  0  0  0  0  0
    0.2824   -1.5989   -0.0341 C   0  0  0  0  0  0  0  0  0  0  0  0
   -0.6696   -1.9537   -0.7230 O   0  0  0  0  0  0  0  0  0  0  0  0
    0.7638   -0.2950   -0.0681 N   0  0  0  0  0  0  0  0  0  0  0  0
    2.0785   -0.0191   -0.5854 C   0  0  1  0  0  0  0  0  0  0  0  0
    2.8166    0.0148    0.1980 H   0  0  0  0  0  0  0  0  0  0  0  0
    2.4838   -0.9201   -1.7302 C   0  0  0  0  0  0  0  0  0  0  0  0
    1.7744   -0.2986   -2.9152 C   0  0  0  0  0  0  0  0  0  0  0  0
    1.5336    1.1745   -2.5724 C   0  0  0  0  0  0  0  0  0  0  0  0
    1.9733    1.3854   -1.1316 C   0  0  1  0  0  0  0  0  0  0  0  0
    2.9460    1.8905   -1.0835 H   0  0  0  0  0  0  0  0  0  0  0  0
    0.9258    2.0794   -0.2551 C   0  0  0  0  0  0  0  0  0  0  0  0
    0.0606    0.9470    0.3285 C   0  0  1  0  0  0  0  0  0  0  0  0
    0.1274    1.0983    1.4109 H   0  0  0  0  0  0  0  0  0  0  0  0
   -1.4094    1.0737   -0.0409 C   0  0  0  0  0  0  0  0  0  0  0  0
   -1.8500    0.9672   -1.1765 O   0  0  0  0  0  0  0  0  0  0  0  0
   -2.2132    1.3507    1.0218 O   0  0  0  0  0  0  0  0  0  0  0  0
    0.7986   -4.0552    0.4565 C   0  0  0  0  0  0  0  0  0  0  0  0
    2.7460   -0.7983    2.5565 C   0  0  0  0  0  0  0  0  0  0  0  0
    3.6320   -1.6666    3.4082 C   0  0  0  0  0  0  0  0  0  0  0  0
    5.0624   -1.4366    3.0677 C   0  0  0  0  0  0  0  0  0  0  0  0
    5.5734   -0.1343    3.0093 C   0  0  0  0  0  0  0  0  0  0  0  0
    6.8778    0.0712    2.6018 C   0  0  0  0  0  0  0  0  0  0  0  0
    7.7048   -1.0287    2.3895 C   0  0  0  0  0  0  0  0  0  0  0  0
    7.2265   -2.3281    2.5682 C   0  0  0  0  0  0  0  0  0  0  0  0
    5.8869   -2.5364    2.8463 C   0  0  0  0  0  0  0  0  0  0  0  0
    1.7311   -2.1345    4.8458 H   0  0  0  0  0  0  0  0  0  0  0  0
   -0.1763   -2.4893    2.3949 H   0  0  0  0  0  0  0  0  0  0  0  0
    2.1886   -1.9693   -1.6120 H   0  0  0  0  0  0  0  0  0  0  0  0
    3.5711   -0.9194   -1.8443 H   0  0  0  0  0  0  0  0  0  0  0  0
    0.8063   -0.7931   -3.0632 H   0  0  0  0  0  0  0  0  0  0  0  0
    2.3604   -0.4287   -3.8257 H   0  0  0  0  0  0  0  0  0  0  0  0
    0.4734    1.4150   -2.6953 H   0  0  0  0  0  0  0  0  0  0  0  0
    2.1034    1.8325   -3.2316 H   0  0  0  0  0  0  0  0  0  0  0  0
    0.3412    2.8190   -0.8079 H   0  0  0  0  0  0  0  0  0  0  0  0
    1.4279    2.6170    0.5635 H   0  0  0  0  0  0  0  0  0  0  0  0
   -1.7935    1.4019    1.9061 H   0  0  0  0  0  0  0  0  0  0  0  0
    1.0778   -4.2483   -0.5864 H   0  0  0  0  0  0  0  0  0  0  0  0
   -0.2658   -4.2766    0.5674 H   0  0  0  0  0  0  0  0  0  0  0  0
    1.3721   -4.7495    1.0814 H   0  0  0  0  0  0  0  0  0  0  0  0
    2.9253    0.2788    2.6641 H   0  0  0  0  0  0  0  0  0  0  0  0
    3.0752   -1.0460    1.5530 H   0  0  0  0  0  0  0  0  0  0  0  0
    3.3623   -2.7127    3.2134 H   0  0  0  0  0  0  0  0  0  0  0  0
    3.5208   -1.4462    4.4653 H   0  0  0  0  0  0  0  0  0  0  0  0
    4.9544    0.7222    3.2676 H   0  0  0  0  0  0  0  0  0  0  0  0
    7.2462    1.0837    2.4716 H   0  0  0  0  0  0  0  0  0  0  0  0
    8.7360   -0.8717    2.0950 H   0  0  0  0  0  0  0  0  0  0  0  0
    7.8928   -3.1803    2.4888 H   0  0  0  0  0  0  0  0  0  0  0  0
    5.4876   -3.5470    2.9043 H   0  0  0  0  0  0  0  0  0  0  0  0
  1  2  1  0  0  0  0
  1 34  1  0  0  0  0
  2  3  2  0  0  0  0
  4  6  1  0  0  0  0
  4 26  1  0  0  0  0
  4  5  1  6  0  0  0
  4  2  1  0  0  0  0
  6 35  1  0  0  0  0
  7  9  1  0  0  0  0
  7 25  1  0  0  0  0
  7  8  1  6  0  0  0
  7  6  1  0  0  0  0
  9 10  2  0  0  0  0
  9 11  1  0  0  0  0
 11 12  1  0  0  0  0
 11 20  1  0  0  0  0
 12 13  1  1  0  0  0
 12 14  1  0  0  0  0
 12 17  1  0  0  0  0
 14 15  1  0  0  0  0
 14 36  1  0  0  0  0
 14 37  1  0  0  0  0
 15 16  1  0  0  0  0
 15 38  1  0  0  0  0
 15 39  1  0  0  0  0
 16 17  1  0  0  0  0
 16 40  1  0  0  0  0
 16 41  1  0  0  0  0
 17 18  1  1  0  0  0
 17 19  1  0  0  0  0
 19 20  1  0  0  0  0
 19 42  1  0  0  0  0
 19 43  1  0  0  0  0
 20 22  1  0  0  0  0
 20 21  1  1  0  0  0
 22 23  2  0  0  0  0
 22 24  1  0  0  0  0
 24 44  1  0  0  0  0
 25 45  1  0  0  0  0
 25 46  1  0  0  0  0
 25 47  1  0  0  0  0
 26 27  1  0  0  0  0
 26 48  1  0  0  0  0
 26 49  1  0  0  0  0
 27 28  1  0  0  0  0
 27 50  1  0  0  0  0
 27 51  1  0  0  0  0
 28 29  2  0  0  0  0
 28 33  1  0  0  0  0
 29 30  1  0  0  0  0
 29 52  1  0  0  0  0
 30 31  2  0  0  0  0
 30 53  1  0  0  0  0
 31 32  1  0  0  0  0
 31 54  1  0  0  0  0
 32 33  2  0  0  0  0
 32 55  1  0  0  0  0
 33 56  1  0  0  0  0
M  END
$$$$
