X99
 OpenBabel04121316203D

 50 53  0  0  1  0  0  0  0  0999 V2000
    1.0554    0.2232   -0.2740 O   0  0  0  0  0  0  0  0  0  0  0  0
    2.2720    0.1589   -0.1083 C   0  0  0  0  0  0  0  0  0  0  0  0
    3.1720    0.8555   -0.9198 N   0  0  0  0  0  0  0  0  0  0  0  0
    3.1727    2.3149   -0.9039 C   0  0  0  0  0  0  0  0  0  0  0  0
    2.9675    2.7880   -2.3277 C   0  0  0  0  0  0  0  0  0  0  0  0
    3.4435    1.6585   -3.2159 C   0  0  0  0  0  0  0  0  0  0  0  0
    3.4356    0.4140   -2.3132 C   0  0  1  0  0  0  0  0  0  0  0  0
    2.6517   -0.2842   -2.6459 H   0  0  0  0  0  0  0  0  0  0  0  0
    4.8009   -0.3480   -2.3797 C   0  0  0  0  0  0  0  0  0  0  0  0
    5.0171   -1.1460   -3.2950 O   0  0  0  0  0  0  0  0  0  0  0  0
    5.7854   -0.0767   -1.4382 N   0  0  0  0  0  0  0  0  0  0  0  0
    6.1478    1.2179   -0.8884 C   0  0  0  0  0  0  0  0  0  0  0  0
    7.5848    1.0670   -0.4573 C   0  0  0  0  0  0  0  0  0  0  0  0
    7.7199   -0.4018   -0.0904 C   0  0  0  0  0  0  0  0  0  0  0  0
    6.6667   -1.1239   -0.9152 C   0  0  0  0  0  0  0  0  0  0  0  0
    3.6911    3.9059   -2.5761 F   0  0  0  0  0  0  0  0  0  0  0  0
    1.6730    3.0867   -2.5531 F   0  0  0  0  0  0  0  0  0  0  0  0
    2.8499   -0.6789    1.0557 C   0  0  0  0  0  0  0  0  0  0  0  0
    4.3509   -0.6094    1.1600 C   0  0  0  0  0  0  0  0  0  0  0  0
    5.0229   -1.4849    2.1078 N   0  0  0  0  0  0  0  0  0  0  0  0
    4.9527   -2.8277    1.9401 C   0  0  0  0  0  0  0  0  0  0  0  0
    4.3834   -3.4726    1.0645 O   0  0  0  0  0  0  0  0  0  0  0  0
    5.7282   -3.4352    2.9853 C   0  0  0  0  0  0  0  0  0  0  0  0
    6.3870   -2.4465    3.6893 C   0  0  0  0  0  0  0  0  0  0  0  0
    5.9929   -1.1657    3.0442 C   0  0  0  0  0  0  0  0  0  0  0  0
    6.4911   -0.0852    3.2943 O   0  0  0  0  0  0  0  0  0  0  0  0
    7.1577   -2.8003    4.7879 C   0  0  0  0  0  0  0  0  0  0  0  0
    7.1859   -4.1657    5.1571 C   0  0  0  0  0  0  0  0  0  0  0  0
    6.4854   -5.1420    4.4211 C   0  0  0  0  0  0  0  0  0  0  0  0
    5.7553   -4.7746    3.3041 C   0  0  0  0  0  0  0  0  0  0  0  0
    4.1740    2.6285   -0.6213 H   0  0  0  0  0  0  0  0  0  0  0  0
    2.5072    2.7413   -0.1537 H   0  0  0  0  0  0  0  0  0  0  0  0
    4.4373    1.8548   -3.6347 H   0  0  0  0  0  0  0  0  0  0  0  0
    2.7614    1.5465   -4.0700 H   0  0  0  0  0  0  0  0  0  0  0  0
    5.5779    1.4387    0.0099 H   0  0  0  0  0  0  0  0  0  0  0  0
    5.9918    2.0232   -1.6084 H   0  0  0  0  0  0  0  0  0  0  0  0
    7.8187    1.7341    0.3801 H   0  0  0  0  0  0  0  0  0  0  0  0
    8.2347    1.3044   -1.2990 H   0  0  0  0  0  0  0  0  0  0  0  0
    7.5413   -0.5243    0.9831 H   0  0  0  0  0  0  0  0  0  0  0  0
    8.7130   -0.7987   -0.2929 H   0  0  0  0  0  0  0  0  0  0  0  0
    6.1347   -1.7864   -0.2315 H   0  0  0  0  0  0  0  0  0  0  0  0
    7.0062   -1.8176   -1.6806 H   0  0  0  0  0  0  0  0  0  0  0  0
    2.5500   -1.7194    0.8766 H   0  0  0  0  0  0  0  0  0  0  0  0
    2.4325   -0.3513    2.0070 H   0  0  0  0  0  0  0  0  0  0  0  0
    4.6923    0.4099    1.2938 H   0  0  0  0  0  0  0  0  0  0  0  0
    4.5745   -0.9999    0.1833 H   0  0  0  0  0  0  0  0  0  0  0  0
    7.7018   -2.0720    5.3829 H   0  0  0  0  0  0  0  0  0  0  0  0
    7.7406   -4.4899    6.0377 H   0  0  0  0  0  0  0  0  0  0  0  0
    6.4948   -6.1871    4.7235 H   0  0  0  0  0  0  0  0  0  0  0  0
    5.1868   -5.4832    2.7126 H   0  0  0  0  0  0  0  0  0  0  0  0
  1  2  2  0  0  0  0
  2  3  1  0  0  0  0
  2 18  1  0  0  0  0
  3  4  1  0  0  0  0
  3  7  1  0  0  0  0
  4  5  1  0  0  0  0
  4 31  1  0  0  0  0
  4 32  1  0  0  0  0
  5  6  1  0  0  0  0
  5 16  1  0  0  0  0
  5 17  1  0  0  0  0
  6  7  1  0  0  0  0
  6 33  1  0  0  0  0
  6 34  1  0  0  0  0
  7  9  1  0  0  0  0
  7  8  1  6  0  0  0
  9 10  2  0  0  0  0
  9 11  1  0  0  0  0
 11 12  1  0  0  0  0
 11 15  1  0  0  0  0
 12 13  1  0  0  0  0
 12 35  1  0  0  0  0
 12 36  1  0  0  0  0
 13 14  1  0  0  0  0
 13 37  1  0  0  0  0
 13 38  1  0  0  0  0
 14 15  1  0  0  0  0
 14 39  1  0  0  0  0
 14 40  1  0  0  0  0
 15 41  1  0  0  0  0
 15 42  1  0  0  0  0
 18 19  1  0  0  0  0
 18 43  1  0  0  0  0
 18 44  1  0  0  0  0
 19 20  1  0  0  0  0
 19 45  1  0  0  0  0
 19 46  1  0  0  0  0
 20 21  1  0  0  0  0
 20 25  1  0  0  0  0
 21 22  2  0  0  0  0
 21 23  1  0  0  0  0
 23 24  2  0  0  0  0
 23 30  1  0  0  0  0
 24 25  1  0  0  0  0
 24 27  1  0  0  0  0
 25 26  2  0  0  0  0
 27 28  2  0  0  0  0
 27 47  1  0  0  0  0
 28 29  1  0  0  0  0
 28 48  1  0  0  0  0
 29 30  2  0  0  0  0
 29 49  1  0  0  0  0
 30 50  1  0  0  0  0
M  END
$$$$
