XAH
 OpenBabel04121316203D

 60 62  0  0  1  0  0  0  0  0999 V2000
    0.9413   -0.0819   -0.0871 N   0  0  0  0  0  0  0  0  0  0  0  0
    2.3824   -0.0109   -0.0363 C   0  0  0  0  0  0  0  0  0  0  0  0
    2.7546    1.2305    0.7895 C   0  0  0  0  0  0  0  0  0  0  0  0
    4.2441    1.3090    0.7828 C   0  0  0  0  0  0  0  0  0  0  0  0
    4.9170    2.4925    1.4548 C   0  0  0  0  0  0  0  0  0  0  0  0
    6.4393    2.5705    1.2387 C   0  0  1  0  0  0  0  0  0  0  0  0
    6.8592    1.6448    1.6124 H   0  0  0  0  0  0  0  0  0  0  0  0
    7.0082    2.7940   -0.2934 C   0  0  0  0  0  0  0  0  0  0  0  0
    8.0628    3.4423   -0.4846 O   0  0  0  0  0  0  0  0  0  0  0  0
    6.3550    2.1533   -1.3518 N   0  0  0  0  0  0  0  0  0  0  0  0
    7.0512    1.7382   -2.5298 O   0  0  0  0  0  0  0  0  0  0  0  0
    7.0373    0.1152   -2.8545 P   0  0  1  0  0  0  0  0  0  0  0  0
    8.2982   -0.4216   -3.4462 O   0  0  0  0  0  0  0  0  0  0  0  0
    6.5061   -0.6778   -1.5429 O   0  0  0  0  0  0  0  0  0  0  0  0
    7.0543   -0.2880   -0.3219 C   0  0  0  0  0  0  0  0  0  0  0  0
    6.7548   -1.0173    0.9360 C   0  0  1  0  0  0  0  0  0  0  0  0
    6.0028   -0.5422    1.5685 H   0  0  0  0  0  0  0  0  0  0  0  0
    6.3133   -2.3450    0.7510 O   0  0  0  0  0  0  0  0  0  0  0  0
    6.6128   -2.9207    2.0161 C   0  0  2  0  0  0  0  0  0  0  0  0
    5.7766   -2.7813    2.7153 H   0  0  0  0  0  0  0  0  0  0  0  0
    7.9207   -2.2012    2.4658 C   0  0  1  0  0  0  0  0  0  0  0  0
    8.8065   -2.7124    2.0685 H   0  0  0  0  0  0  0  0  0  0  0  0
    8.0019   -0.9116    1.7612 C   0  0  2  0  0  0  0  0  0  0  0  0
    8.8991   -0.8491    1.1383 H   0  0  0  0  0  0  0  0  0  0  0  0
    8.0301    0.1996    2.6383 O   0  0  0  0  0  0  0  0  0  0  0  0
    8.0105   -1.9970    3.8673 O   0  0  0  0  0  0  0  0  0  0  0  0
    6.8316   -4.3368    1.8556 N   0  0  0  0  0  0  0  0  0  0  0  0
    6.3304   -5.2278    0.9527 C   0  0  0  0  0  0  0  0  0  0  0  0
    7.0472   -6.3418    0.9494 N   0  0  0  0  0  0  0  0  0  0  0  0
    8.0356   -6.1397    1.8995 C   0  0  0  0  0  0  0  0  0  0  0  0
    7.8254   -4.9580    2.5504 C   0  0  0  0  0  0  0  0  0  0  0  0
    8.5430   -4.4270    3.5508 N   0  0  0  0  0  0  0  0  0  0  0  0
    9.6643   -5.0972    3.7866 C   0  0  0  0  0  0  0  0  0  0  0  0
   10.0009   -6.2705    3.2477 N   0  0  0  0  0  0  0  0  0  0  0  0
    9.1675   -6.8363    2.3342 C   0  0  0  0  0  0  0  0  0  0  0  0
    9.5087   -8.0658    1.8430 N   0  0  0  0  0  0  0  0  0  0  0  0
    5.8043   -0.1758   -3.8479 O   0  0  0  0  0  0  0  0  0  0  0  0
    7.0181    3.5659    2.1720 N   0  0  0  0  0  0  0  0  0  0  0  0
    0.6594   -0.8620   -0.6755 H   0  0  0  0  0  0  0  0  0  0  0  0
    0.5932    0.7653   -0.5342 H   0  0  0  0  0  0  0  0  0  0  0  0
    2.7932    0.0488   -1.0563 H   0  0  0  0  0  0  0  0  0  0  0  0
    2.8025   -0.9240    0.4075 H   0  0  0  0  0  0  0  0  0  0  0  0
    2.4022    1.1479    1.8184 H   0  0  0  0  0  0  0  0  0  0  0  0
    2.3634    2.1408    0.3256 H   0  0  0  0  0  0  0  0  0  0  0  0
    4.4321    1.3097   -0.2672 H   0  0  0  0  0  0  0  0  0  0  0  0
    4.5739    0.3735    1.2045 H   0  0  0  0  0  0  0  0  0  0  0  0
    4.6961    2.4028    2.5299 H   0  0  0  0  0  0  0  0  0  0  0  0
    4.4826    3.4237    1.0956 H   0  0  0  0  0  0  0  0  0  0  0  0
    5.6560    1.4583   -1.1931 H   0  0  0  0  0  0  0  0  0  0  0  0
    6.4726    0.5398   -0.0211 H   0  0  0  0  0  0  0  0  0  0  0  0
    8.0668    0.1095   -0.4340 H   0  0  0  0  0  0  0  0  0  0  0  0
    8.7771    0.0476    3.2500 H   0  0  0  0  0  0  0  0  0  0  0  0
    8.0551   -2.9059    4.2289 H   0  0  0  0  0  0  0  0  0  0  0  0
    5.4781   -5.0250    0.3099 H   0  0  0  0  0  0  0  0  0  0  0  0
   10.3614   -4.6155    4.4664 H   0  0  0  0  0  0  0  0  0  0  0  0
   10.2751   -8.5371    2.2934 H   0  0  0  0  0  0  0  0  0  0  0  0
    8.8575   -8.5217    1.2223 H   0  0  0  0  0  0  0  0  0  0  0  0
    6.0663   -0.8761   -4.4857 H   0  0  0  0  0  0  0  0  0  0  0  0
    6.6908    3.4160    3.1282 H   0  0  0  0  0  0  0  0  0  0  0  0
    6.7494    4.5029    1.8926 H   0  0  0  0  0  0  0  0  0  0  0  0
  1  2  1  0  0  0  0
  1 39  1  0  0  0  0
  1 40  1  0  0  0  0
  2  3  1  0  0  0  0
  2 41  1  0  0  0  0
  2 42  1  0  0  0  0
  3  4  1  0  0  0  0
  3 43  1  0  0  0  0
  3 44  1  0  0  0  0
  4  5  1  0  0  0  0
  4 45  1  0  0  0  0
  4 46  1  0  0  0  0
  5  6  1  0  0  0  0
  5 47  1  0  0  0  0
  5 48  1  0  0  0  0
  6  7  1  1  0  0  0
  6  8  1  0  0  0  0
  6 38  1  0  0  0  0
  8  9  2  0  0  0  0
  8 10  1  0  0  0  0
 10 11  1  0  0  0  0
 10 49  1  0  0  0  0
 12 11  1  1  0  0  0
 12 13  2  0  0  0  0
 12 14  1  0  0  0  0
 12 37  1  0  0  0  0
 14 15  1  0  0  0  0
 15 16  1  0  0  0  0
 15 50  1  0  0  0  0
 15 51  1  0  0  0  0
 16 17  1  1  0  0  0
 16 18  1  0  0  0  0
 16 23  1  0  0  0  0
 18 19  1  0  0  0  0
 19 21  1  0  0  0  0
 19 27  1  0  0  0  0
 19 20  1  1  0  0  0
 21 22  1  6  0  0  0
 21 23  1  0  0  0  0
 21 26  1  0  0  0  0
 23 24  1  6  0  0  0
 23 25  1  0  0  0  0
 25 52  1  0  0  0  0
 26 53  1  0  0  0  0
 27 28  1  0  0  0  0
 27 31  1  0  0  0  0
 28 29  2  0  0  0  0
 28 54  1  0  0  0  0
 29 30  1  0  0  0  0
 30 31  2  0  0  0  0
 30 35  1  0  0  0  0
 31 32  1  0  0  0  0
 32 33  2  0  0  0  0
 33 34  1  0  0  0  0
 33 55  1  0  0  0  0
 34 35  2  0  0  0  0
 35 36  1  0  0  0  0
 36 56  1  0  0  0  0
 36 57  1  0  0  0  0
 37 58  1  0  0  0  0
 38 59  1  0  0  0  0
 38 60  1  0  0  0  0
M  END
$$$$
