XAN
 OpenBabel04121316203D

 15 16  0  0  0  0  0  0  0  0999 V2000
    1.0260   -0.0700    0.0881 O   0  0  0  0  0  0  0  0  0  0  0  0
    2.2411   -0.0097    0.0905 C   0  0  0  0  0  0  0  0  0  0  0  0
    2.9895    1.1313    0.0916 N   0  0  0  0  0  0  0  0  0  0  0  0
    2.4874    2.0062    0.0886 H   0  0  0  0  0  0  0  0  0  0  0  0
    4.3650    1.2266    0.1039 C   0  0  0  0  0  0  0  0  0  0  0  0
    4.9222    2.3177    0.1099 O   0  0  0  0  0  0  0  0  0  0  0  0
    5.0436   -0.0495    0.1093 C   0  0  0  0  0  0  0  0  0  0  0  0
    4.3321   -1.2189    0.1032 C   0  0  0  0  0  0  0  0  0  0  0  0
    2.9623   -1.2404    0.0929 N   0  0  0  0  0  0  0  0  0  0  0  0
    2.4232   -2.0972    0.0885 H   0  0  0  0  0  0  0  0  0  0  0  0
    5.2492   -2.2265    0.1104 N   0  0  0  0  0  0  0  0  0  0  0  0
    5.0797   -3.2232    0.1093 H   0  0  0  0  0  0  0  0  0  0  0  0
    6.4843   -1.6270    0.1209 C   0  0  0  0  0  0  0  0  0  0  0  0
    6.3899   -0.3132    0.1205 N   0  0  0  0  0  0  0  0  0  0  0  0
    7.4079   -2.1946    0.1285 H   0  0  0  0  0  0  0  0  0  0  0  0
  1  2  2  0  0  0  0
  2  3  1  0  0  0  0
  2  9  1  0  0  0  0
  3  4  1  0  0  0  0
  3  5  1  0  0  0  0
  5  6  2  0  0  0  0
  5  7  1  0  0  0  0
  7  8  2  0  0  0  0
  7 14  1  0  0  0  0
  8  9  1  0  0  0  0
  8 11  1  0  0  0  0
  9 10  1  0  0  0  0
 11 12  1  0  0  0  0
 11 13  1  0  0  0  0
 13 14  2  0  0  0  0
 13 15  1  0  0  0  0
M  END
$$$$
