XC2
 OpenBabel04121316203D

 62 67  0  0  1  0  0  0  0  0999 V2000
    1.0566   -0.0568   -0.0935 O   0  0  0  0  0  0  0  0  0  0  0  0
    2.4005   -0.0822    0.0588 C   0  0  0  0  0  0  0  0  0  0  0  0
    2.9024   -0.7043    0.9827 O   0  0  0  0  0  0  0  0  0  0  0  0
    3.1525    0.8234   -0.9138 C   0  0  2  0  0  0  0  0  0  0  0  0
    4.2207    0.5696   -0.8761 H   0  0  0  0  0  0  0  0  0  0  0  0
    2.8692    2.2633   -0.5698 C   0  0  0  0  0  0  0  0  0  0  0  0
    3.0872    3.1287   -2.1202 S   0  0  0  0  0  0  0  0  0  0  0  0
    2.5069    1.7818   -3.0384 C   0  0  0  0  0  0  0  0  0  0  0  0
    2.6875    0.6485   -2.2814 N   0  0  0  0  0  0  0  0  0  0  0  0
    2.8547   -0.5694   -2.8207 C   0  0  0  0  0  0  0  0  0  0  0  0
    3.2124   -1.5712   -2.2189 O   0  0  0  0  0  0  0  0  0  0  0  0
    2.5453   -0.5409   -4.2567 C   0  0  0  0  0  0  0  0  0  0  0  0
    1.7266    0.5764   -4.9542 C   0  0  0  0  0  0  0  0  0  0  0  0
    2.0178    1.7970   -4.3391 C   0  0  0  0  0  0  0  0  0  0  0  0
    1.8929    2.9304   -5.2311 C   0  0  0  0  0  0  0  0  0  0  0  0
    1.4295    4.1995   -4.6367 C   0  0  0  0  0  0  0  0  0  0  0  0
    2.8518    4.0602   -5.1826 C   0  0  0  0  0  0  0  0  0  0  0  0
    0.7450    0.4362   -6.8363 C   0  0  0  0  0  0  0  0  0  0  0  0
    0.0518   -1.3571   -7.2883 C   0  0  0  0  0  0  0  0  0  0  0  0
    0.4325   -1.7954   -8.6335 C   0  0  0  0  0  0  0  0  0  0  0  0
    0.5899   -3.2135   -8.8251 C   0  0  0  0  0  0  0  0  0  0  0  0
    0.6161   -4.2068   -7.7449 C   0  0  0  0  0  0  0  0  0  0  0  0
    0.4573   -3.9657   -6.3481 C   0  0  0  0  0  0  0  0  0  0  0  0
    0.0102   -2.6420   -6.0080 C   0  0  0  0  0  0  0  0  0  0  0  0
    0.1359   -2.6801   -4.3608 C   0  0  0  0  0  0  0  0  0  0  0  0
    0.9293   -3.5988   -3.4262 C   0  0  0  0  0  0  0  0  0  0  0  0
    1.5237   -4.7087   -3.9828 C   0  0  0  0  0  0  0  0  0  0  0  0
    1.1240   -4.9532   -5.3275 C   0  0  0  0  0  0  0  0  0  0  0  0
    3.0714   -2.0888   -4.8494 C   0  0  0  0  0  0  0  0  0  0  0  0
    2.5972   -2.3901   -6.1588 N   0  0  0  0  0  0  0  0  0  0  0  0
    2.0104   -1.1979   -6.3427 C   0  0  0  0  0  0  0  0  0  0  0  0
    3.3372   -0.0650   -6.6271 C   0  0  0  0  0  0  0  0  0  0  0  0
    4.1155   -0.5677   -7.6994 O   0  0  0  0  0  0  0  0  0  0  0  0
    4.5388   -1.8733   -7.2956 C   0  0  0  0  0  0  0  0  0  0  0  0
    3.3580   -2.7682   -7.2821 C   0  0  0  0  0  0  0  0  0  0  0  0
    0.7101   -0.6606    0.5974 H   0  0  0  0  0  0  0  0  0  0  0  0
    3.5699    2.6848    0.1419 H   0  0  0  0  0  0  0  0  0  0  0  0
    1.8321    2.4200   -0.2563 H   0  0  0  0  0  0  0  0  0  0  0  0
    1.5221    2.7042   -6.2266 H   0  0  0  0  0  0  0  0  0  0  0  0
    1.1892    4.1367   -3.5786 H   0  0  0  0  0  0  0  0  0  0  0  0
    0.6173    4.6582   -5.1766 H   0  0  0  0  0  0  0  0  0  0  0  0
    3.7285    3.9149   -4.5567 H   0  0  0  0  0  0  0  0  0  0  0  0
    3.1329    4.4963   -6.1309 H   0  0  0  0  0  0  0  0  0  0  0  0
    1.4746    0.7036   -7.6604 H   0  0  0  0  0  0  0  0  0  0  0  0
   -0.0390    1.1289   -6.8518 H   0  0  0  0  0  0  0  0  0  0  0  0
    0.8329   -1.1414   -9.4311 H   0  0  0  0  0  0  0  0  0  0  0  0
    0.9126   -3.5992   -9.8082 H   0  0  0  0  0  0  0  0  0  0  0  0
    1.0451   -5.1840   -8.0097 H   0  0  0  0  0  0  0  0  0  0  0  0
    0.0767   -1.6934   -3.8613 H   0  0  0  0  0  0  0  0  0  0  0  0
    1.4606   -3.1915   -2.5226 H   0  0  0  0  0  0  0  0  0  0  0  0
    2.4481   -5.1593   -3.5453 H   0  0  0  0  0  0  0  0  0  0  0  0
    1.5053   -5.9140   -5.6891 H   0  0  0  0  0  0  0  0  0  0  0  0
    2.3898   -2.7680   -4.4651 H   0  0  0  0  0  0  0  0  0  0  0  0
    3.9574   -2.6075   -4.5349 H   0  0  0  0  0  0  0  0  0  0  0  0
    1.3896   -1.2817   -5.3381 H   0  0  0  0  0  0  0  0  0  0  0  0
    0.8445   -0.8836   -5.8204 H   0  0  0  0  0  0  0  0  0  0  0  0
    4.0228   -0.0082   -5.7676 H   0  0  0  0  0  0  0  0  0  0  0  0
    3.1364    1.0009   -6.8299 H   0  0  0  0  0  0  0  0  0  0  0  0
    4.9782   -1.8347   -6.2933 H   0  0  0  0  0  0  0  0  0  0  0  0
    5.2468   -2.2520   -8.0048 H   0  0  0  0  0  0  0  0  0  0  0  0
    3.4993   -3.8286   -7.1335 H   0  0  0  0  0  0  0  0  0  0  0  0
    2.8426   -2.6397   -8.2413 H   0  0  0  0  0  0  0  0  0  0  0  0
  1  2  1  0  0  0  0
  1 36  1  0  0  0  0
  2  3  2  0  0  0  0
  2  4  1  0  0  0  0
  4  5  1  1  0  0  0
  4  6  1  0  0  0  0
  4  9  1  0  0  0  0
  6  7  1  0  0  0  0
  6 37  1  0  0  0  0
  6 38  1  0  0  0  0
  7  8  1  0  0  0  0
  8  9  1  0  0  0  0
  8 14  2  0  0  0  0
  9 10  1  0  0  0  0
 10 11  2  0  0  0  0
 10 12  1  0  0  0  0
 12 13  2  0  0  0  0
 12 29  1  0  0  0  0
 13 14  1  0  0  0  0
 13 18  1  0  0  0  0
 14 15  1  0  0  0  0
 15 16  1  0  0  0  0
 15 17  1  0  0  0  0
 15 39  1  0  0  0  0
 16 17  1  0  0  0  0
 16 40  1  0  0  0  0
 16 41  1  0  0  0  0
 17 42  1  0  0  0  0
 17 43  1  0  0  0  0
 18 19  1  0  0  0  0
 18 44  1  0  0  0  0
 18 45  1  0  0  0  0
 19 20  2  0  0  0  0
 19 24  1  0  0  0  0
 20 21  1  0  0  0  0
 20 46  1  0  0  0  0
 21 22  2  0  0  0  0
 21 47  1  0  0  0  0
 22 23  1  0  0  0  0
 22 48  1  0  0  0  0
 23 24  2  0  0  0  0
 23 28  1  0  0  0  0
 24 25  1  0  0  0  0
 25 26  2  0  0  0  0
 25 49  1  0  0  0  0
 26 27  1  0  0  0  0
 26 50  1  0  0  0  0
 27 28  2  0  0  0  0
 27 51  1  0  0  0  0
 28 52  1  0  0  0  0
 29 30  1  0  0  0  0
 29 53  1  0  0  0  0
 29 54  1  0  0  0  0
 30 31  1  0  0  0  0
 30 35  1  0  0  0  0
 31 32  1  0  0  0  0
 31 55  1  0  0  0  0
 31 56  1  0  0  0  0
 32 33  1  0  0  0  0
 32 57  1  0  0  0  0
 32 58  1  0  0  0  0
 33 34  1  0  0  0  0
 34 35  1  0  0  0  0
 34 59  1  0  0  0  0
 34 60  1  0  0  0  0
 35 61  1  0  0  0  0
 35 62  1  0  0  0  0
M  END
$$$$
