XD2
 OpenBabel04121316203D

 51 53  0  0  1  0  0  0  0  0999 V2000
   -0.6258   -2.1124   -0.3955 O   0  0  0  0  0  0  0  0  0  0  0  0
    0.2047   -2.5450   -1.1858 C   0  0  0  0  0  0  0  0  0  0  0  0
    1.6709   -2.1252   -1.3148 C   0  0  2  0  0  0  0  0  0  0  0  0
    2.0408   -2.7326   -2.1567 H   0  0  0  0  0  0  0  0  0  0  0  0
    2.6262   -2.2633   -0.1213 C   0  0  1  0  0  0  0  0  0  0  0  0
    3.0404   -1.2813    0.1259 H   0  0  0  0  0  0  0  0  0  0  0  0
    1.9638   -2.7460    1.4400 S   0  0  0  0  0  0  0  0  0  0  0  0
    2.1280   -4.4847    1.2778 C   0  0  0  0  0  0  0  0  0  0  0  0
    3.2903   -5.0814    0.5180 C   0  0  0  0  0  0  0  0  0  0  0  0
    4.0456   -4.3612   -0.3511 C   0  0  0  0  0  0  0  0  0  0  0  0
    3.7935   -3.0085   -0.5240 N   0  0  0  0  0  0  0  0  0  0  0  0
    5.2102   -4.8182   -1.2276 C   0  0  0  0  0  0  0  0  0  0  0  0
    5.7086   -4.0212   -2.0358 O   0  0  0  0  0  0  0  0  0  0  0  0
    5.6433   -6.0772   -1.1743 O   0  0  0  0  0  0  0  0  0  0  0  0
    3.5469   -6.5313    0.8799 C   0  0  0  0  0  0  0  0  0  0  0  0
    2.4901   -7.2019    2.1916 S   0  0  0  0  0  0  0  0  0  0  0  0
    2.9652   -8.8346    2.3278 C   0  0  0  0  0  0  0  0  0  0  0  0
    3.8913   -9.3324    3.1083 N   0  0  0  0  0  0  0  0  0  0  0  0
    3.7192  -10.6985    3.0545 N   0  0  0  0  0  0  0  0  0  0  0  0
    2.7135  -11.0244    2.2490 N   0  0  0  0  0  0  0  0  0  0  0  0
    2.2359   -9.8544    1.8002 N   0  0  0  0  0  0  0  0  0  0  0  0
    1.1144   -9.7863    0.9066 C   0  0  0  0  0  0  0  0  0  0  0  0
    1.7556   -0.7636   -1.7936 N   0  0  0  0  0  0  0  0  0  0  0  0
    1.3909    0.2849   -0.9605 C   0  0  0  0  0  0  0  0  0  0  0  0
    1.0471    0.1285    0.2084 O   0  0  0  0  0  0  0  0  0  0  0  0
    1.5466    1.6820   -1.5641 C   0  0  1  0  0  0  0  0  0  0  0  0
    2.6102    1.8581   -1.7557 H   0  0  0  0  0  0  0  0  0  0  0  0
    0.7617    1.7978   -2.8584 C   0  0  0  0  0  0  0  0  0  0  0  0
    1.0223    0.9363   -3.9456 C   0  0  0  0  0  0  0  0  0  0  0  0
    0.3559    1.0359   -5.1531 C   0  0  0  0  0  0  0  0  0  0  0  0
   -0.6391    1.9820   -5.2888 C   0  0  0  0  0  0  0  0  0  0  0  0
   -0.9770    2.7975   -4.2075 C   0  0  0  0  0  0  0  0  0  0  0  0
   -0.2577    2.7368   -3.0119 C   0  0  0  0  0  0  0  0  0  0  0  0
    1.1558    2.6575   -0.5930 O   0  0  0  0  0  0  0  0  0  0  0  0
   -0.1334   -3.2434   -1.9711 H   0  0  0  0  0  0  0  0  0  0  0  0
    1.1868   -4.9320    0.9344 H   0  0  0  0  0  0  0  0  0  0  0  0
    2.2750   -4.7062    2.3325 H   0  0  0  0  0  0  0  0  0  0  0  0
    4.3513   -2.5905   -1.2789 H   0  0  0  0  0  0  0  0  0  0  0  0
    5.3147   -6.6651   -0.4847 H   0  0  0  0  0  0  0  0  0  0  0  0
    4.5689   -6.5898    1.2621 H   0  0  0  0  0  0  0  0  0  0  0  0
    3.4127   -7.1429   -0.0183 H   0  0  0  0  0  0  0  0  0  0  0  0
    0.7665  -10.7926    0.6693 H   0  0  0  0  0  0  0  0  0  0  0  0
    1.4390   -9.2797   -0.0072 H   0  0  0  0  0  0  0  0  0  0  0  0
    0.3141   -9.2183    1.3887 H   0  0  0  0  0  0  0  0  0  0  0  0
    2.5282   -0.5812   -2.4216 H   0  0  0  0  0  0  0  0  0  0  0  0
    1.7384    0.1308   -3.9110 H   0  0  0  0  0  0  0  0  0  0  0  0
    0.6254    0.3632   -5.9616 H   0  0  0  0  0  0  0  0  0  0  0  0
   -1.1537    2.0744   -6.2377 H   0  0  0  0  0  0  0  0  0  0  0  0
   -1.8097    3.4873   -4.2944 H   0  0  0  0  0  0  0  0  0  0  0  0
   -0.5045    3.4207   -2.2009 H   0  0  0  0  0  0  0  0  0  0  0  0
    1.4532    2.3113    0.2731 H   0  0  0  0  0  0  0  0  0  0  0  0
  1  2  2  0  0  0  0
  2 35  1  0  0  0  0
  3 23  1  0  0  0  0
  3  4  1  6  0  0  0
  3  2  1  0  0  0  0
  5  7  1  0  0  0  0
  5 11  1  0  0  0  0
  5  6  1  1  0  0  0
  5  3  1  0  0  0  0
  7  8  1  0  0  0  0
  8  9  1  0  0  0  0
  8 36  1  0  0  0  0
  8 37  1  0  0  0  0
  9 10  2  0  0  0  0
  9 15  1  0  0  0  0
 10 11  1  0  0  0  0
 10 12  1  0  0  0  0
 11 38  1  0  0  0  0
 12 13  2  0  0  0  0
 12 14  1  0  0  0  0
 14 39  1  0  0  0  0
 15 16  1  0  0  0  0
 15 40  1  0  0  0  0
 15 41  1  0  0  0  0
 16 17  1  0  0  0  0
 17 18  2  0  0  0  0
 17 21  1  0  0  0  0
 18 19  1  0  0  0  0
 19 20  2  0  0  0  0
 20 21  1  0  0  0  0
 21 22  1  0  0  0  0
 22 42  1  0  0  0  0
 22 43  1  0  0  0  0
 22 44  1  0  0  0  0
 23 24  1  0  0  0  0
 23 45  1  0  0  0  0
 24 25  2  0  0  0  0
 24 26  1  0  0  0  0
 26 27  1  6  0  0  0
 26 28  1  0  0  0  0
 26 34  1  0  0  0  0
 28 29  2  0  0  0  0
 28 33  1  0  0  0  0
 29 30  1  0  0  0  0
 29 46  1  0  0  0  0
 30 31  2  0  0  0  0
 30 47  1  0  0  0  0
 31 32  1  0  0  0  0
 31 48  1  0  0  0  0
 32 33  2  0  0  0  0
 32 49  1  0  0  0  0
 33 50  1  0  0  0  0
 34 51  1  0  0  0  0
M  END
$$$$
