XD9
 OpenBabel04121316203D

 32 33  0  0  1  0  0  0  0  0999 V2000
    0.8802    0.0087   -0.1445 C   0  0  0  0  0  0  0  0  0  0  0  0
    2.3576    0.0644   -0.1155 C   0  0  0  0  0  0  0  0  0  0  0  0
    2.9918    0.3291    1.0309 C   0  0  0  0  0  0  0  0  0  0  0  0
    4.3900    0.2788    1.0402 C   0  0  0  0  0  0  0  0  0  0  0  0
    5.1428   -1.2203    1.2929 S   0  0  0  0  0  0  0  0  0  0  0  0
    6.6786   -0.5236    1.1273 C   0  0  0  0  0  0  0  0  0  0  0  0
    6.6520    0.8424    0.9829 C   0  0  0  0  0  0  0  0  0  0  0  0
    5.2971    1.2929    0.8399 C   0  0  0  0  0  0  0  0  0  0  0  0
    7.8967    1.6848    0.9372 C   0  0  2  0  0  0  0  0  0  0  0  0
    7.8405    2.4544   -0.2708 O   0  0  0  0  0  0  0  0  0  0  0  0
    9.2149    0.8650    0.8658 C   0  0  0  0  0  0  0  0  0  0  0  0
    9.1950   -0.6467    1.1404 C   0  0  2  0  0  0  0  0  0  0  0  0
    9.8199   -1.1005    0.3606 H   0  0  0  0  0  0  0  0  0  0  0  0
    7.8624   -1.4015    1.1465 C   0  0  2  0  0  0  0  0  0  0  0  0
    7.7986   -2.0690    2.0141 H   0  0  0  0  0  0  0  0  0  0  0  0
    7.7808   -2.1921   -0.0429 O   0  0  0  0  0  0  0  0  0  0  0  0
    9.8642   -0.9161    2.3764 O   0  0  0  0  0  0  0  0  0  0  0  0
    7.9731    2.5763    2.2461 C   0  0  0  0  0  0  0  0  0  0  0  0
    8.9056    2.5808    3.0289 O   0  0  0  0  0  0  0  0  0  0  0  0
    6.8999    3.3746    2.4790 O   0  0  0  0  0  0  0  0  0  0  0  0
    0.5346   -0.2046   -1.1572 H   0  0  0  0  0  0  0  0  0  0  0  0
    0.4751    0.9717    0.1765 H   0  0  0  0  0  0  0  0  0  0  0  0
    0.5266   -0.7821    0.5243 H   0  0  0  0  0  0  0  0  0  0  0  0
    2.9108   -0.1545   -1.0281 H   0  0  0  0  0  0  0  0  0  0  0  0
    2.4680    0.5032    1.9653 H   0  0  0  0  0  0  0  0  0  0  0  0
    4.9717    2.3066    0.6293 H   0  0  0  0  0  0  0  0  0  0  0  0
    7.8785    1.8137   -1.0094 H   0  0  0  0  0  0  0  0  0  0  0  0
    9.9593    1.3068    1.5376 H   0  0  0  0  0  0  0  0  0  0  0  0
    9.6759    1.0095   -0.1200 H   0  0  0  0  0  0  0  0  0  0  0  0
    7.7342   -1.5797   -0.7947 H   0  0  0  0  0  0  0  0  0  0  0  0
   10.6989   -0.4178    2.3931 H   0  0  0  0  0  0  0  0  0  0  0  0
    6.2151    3.3208    1.7950 H   0  0  0  0  0  0  0  0  0  0  0  0
  1  2  1  0  0  0  0
  1 21  1  0  0  0  0
  1 22  1  0  0  0  0
  1 23  1  0  0  0  0
  2  3  2  0  0  0  0
  2 24  1  0  0  0  0
  3  4  1  0  0  0  0
  3 25  1  0  0  0  0
  4  5  1  0  0  0  0
  4  8  2  0  0  0  0
  5  6  1  0  0  0  0
  6  7  2  0  0  0  0
  6 14  1  0  0  0  0
  7  8  1  0  0  0  0
  7  9  1  0  0  0  0
  8 26  1  0  0  0  0
  9 11  1  0  0  0  0
  9 18  1  1  0  0  0
  9 10  1  0  0  0  0
 10 27  1  0  0  0  0
 11 12  1  0  0  0  0
 11 28  1  0  0  0  0
 11 29  1  0  0  0  0
 12 13  1  6  0  0  0
 12 14  1  0  0  0  0
 12 17  1  0  0  0  0
 14 16  1  0  0  0  0
 14 15  1  1  0  0  0
 16 30  1  0  0  0  0
 17 31  1  0  0  0  0
 18 19  2  0  0  0  0
 18 20  1  0  0  0  0
 20 32  1  0  0  0  0
M  END
$$$$
