XEZ
 OpenBabel04121316203D

 28 31  0  0  0  0  0  0  0  0999 V2000
   -1.2500    0.0077    0.0002 C   0  0  0  0  0  0  0  0  0  0  0  0
   -0.3973    1.0703    0.0004 N   0  0  0  0  0  0  0  0  0  0  0  0
   -0.6248    2.0597    0.0008 H   0  0  0  0  0  0  0  0  0  0  0  0
    0.8969    0.7124   -0.0015 N   0  0  0  0  0  0  0  0  0  0  0  0
    0.8630   -0.6247   -0.0014 C   0  0  0  0  0  0  0  0  0  0  0  0
   -0.4581   -1.1126    0.0032 C   0  0  0  0  0  0  0  0  0  0  0  0
    2.0778   -1.4641   -0.0081 C   0  0  0  0  0  0  0  0  0  0  0  0
    2.1416   -2.8438   -0.0109 C   0  0  0  0  0  0  0  0  0  0  0  0
    3.4435   -3.2892   -0.0194 N   0  0  0  0  0  0  0  0  0  0  0  0
    4.1526   -2.1832   -0.0229 C   0  0  0  0  0  0  0  0  0  0  0  0
    3.3815   -1.0526   -0.0164 N   0  0  0  0  0  0  0  0  0  0  0  0
    3.9750    0.1864   -0.0199 C   0  0  0  0  0  0  0  0  0  0  0  0
    5.3210    0.2735   -0.0300 C   0  0  0  0  0  0  0  0  0  0  0  0
    6.1466   -0.8493   -0.0368 N   0  0  0  0  0  0  0  0  0  0  0  0
    5.5790   -2.0272   -0.0334 C   0  0  0  0  0  0  0  0  0  0  0  0
    5.9891    1.5356   -0.0317 C   0  0  0  0  0  0  0  0  0  0  0  0
    5.4016    2.7844   -0.0411 C   0  0  0  0  0  0  0  0  0  0  0  0
    6.4242    3.6847   -0.0304 N   0  0  0  0  0  0  0  0  0  0  0  0
    6.3634    4.6971   -0.0291 H   0  0  0  0  0  0  0  0  0  0  0  0
    7.6400    3.1154   -0.0206 N   0  0  0  0  0  0  0  0  0  0  0  0
    7.3723    1.8046   -0.0225 C   0  0  0  0  0  0  0  0  0  0  0  0
   -2.3215    0.1346   -0.0019 H   0  0  0  0  0  0  0  0  0  0  0  0
   -0.7810   -2.1427    0.0052 H   0  0  0  0  0  0  0  0  0  0  0  0
    1.3137   -3.5409   -0.0082 H   0  0  0  0  0  0  0  0  0  0  0  0
    3.3231    1.0460   -0.0134 H   0  0  0  0  0  0  0  0  0  0  0  0
    6.2033   -2.9349   -0.0389 H   0  0  0  0  0  0  0  0  0  0  0  0
    4.3713    3.1116   -0.0523 H   0  0  0  0  0  0  0  0  0  0  0  0
    8.1890    1.0946   -0.0158 H   0  0  0  0  0  0  0  0  0  0  0  0
  1  2  1  0  0  0  0
  1  6  2  0  0  0  0
  1 22  1  0  0  0  0
  2  3  1  0  0  0  0
  2  4  1  0  0  0  0
  4  5  2  0  0  0  0
  5  6  1  0  0  0  0
  5  7  1  0  0  0  0
  6 23  1  0  0  0  0
  7  8  2  0  0  0  0
  7 11  1  0  0  0  0
  8  9  1  0  0  0  0
  8 24  1  0  0  0  0
  9 10  2  0  0  0  0
 10 11  1  0  0  0  0
 10 15  1  0  0  0  0
 11 12  1  0  0  0  0
 12 13  2  0  0  0  0
 12 25  1  0  0  0  0
 13 14  1  0  0  0  0
 13 16  1  0  0  0  0
 14 15  2  0  0  0  0
 15 26  1  0  0  0  0
 16 17  2  0  0  0  0
 16 21  1  0  0  0  0
 17 18  1  0  0  0  0
 17 27  1  0  0  0  0
 18 19  1  0  0  0  0
 18 20  1  0  0  0  0
 20 21  2  0  0  0  0
 21 28  1  0  0  0  0
M  END
$$$$
