XFI
 OpenBabel04121316203D

 85 88  0  0  1  0  0  0  0  0999 V2000
    4.4514    6.7254    1.1151 O   0  0  0  0  0  0  0  0  0  0  0  0
    3.9043    5.4771    1.5593 C   0  0  1  0  0  0  0  0  0  0  0  0
    3.4069    5.6656    2.5194 H   0  0  0  0  0  0  0  0  0  0  0  0
    2.8505    4.9867    0.5271 C   0  0  1  0  0  0  0  0  0  0  0  0
    3.3814    4.8972   -0.4263 H   0  0  0  0  0  0  0  0  0  0  0  0
    2.2680    3.6885    0.8519 N   0  0  0  0  0  0  0  0  0  0  0  0
    2.7918    2.5296    0.3680 C   0  0  0  0  0  0  0  0  0  0  0  0
    3.8748    2.4914   -0.2560 O   0  0  0  0  0  0  0  0  0  0  0  0
    2.0683    1.2940    0.7506 C   0  0  0  0  0  0  0  0  0  0  0  0
    2.6411    0.1058    0.3524 C   0  0  0  0  0  0  0  0  0  0  0  0
    2.0047   -1.0233    0.7871 C   0  0  0  0  0  0  0  0  0  0  0  0
    0.7551   -0.9564    1.5289 C   0  0  0  0  0  0  0  0  0  0  0  0
    0.1042    0.2129    2.0619 C   0  0  0  0  0  0  0  0  0  0  0  0
    0.9078    1.3296    1.6452 C   0  0  0  0  0  0  0  0  0  0  0  0
   -1.1914    0.2488    3.3186 N   0  0  0  0  0  0  0  0  0  0  0  0
   -1.8001   -1.5190    4.1929 S   0  0  0  0  0  0  0  0  0  0  0  0
   -1.3335   -1.6803    5.5326 O   0  0  0  0  0  0  0  0  0  0  0  0
   -3.2656   -1.5723    3.9952 O   0  0  0  0  0  0  0  0  0  0  0  0
   -1.0087   -2.8859    3.2150 C   0  0  0  0  0  0  0  0  0  0  0  0
   -1.3226    1.5501    4.5311 C   0  0  0  0  0  0  0  0  0  0  0  0
   -1.4382    1.3636    5.9457 C   0  0  0  0  0  0  0  0  0  0  0  0
   -1.3941    2.4833    6.8492 C   0  0  0  0  0  0  0  0  0  0  0  0
   -0.9286    3.7421    6.4580 C   0  0  0  0  0  0  0  0  0  0  0  0
   -0.3997    3.8688    5.2000 C   0  0  0  0  0  0  0  0  0  0  0  0
   -0.7383    2.8688    4.2473 C   0  0  0  0  0  0  0  0  0  0  0  0
    1.6823    5.9752    0.3508 C   0  0  0  0  0  0  0  0  0  0  0  0
    0.6848    5.5144   -0.6927 C   0  0  0  0  0  0  0  0  0  0  0  0
    1.1185    4.9002   -1.8792 C   0  0  0  0  0  0  0  0  0  0  0  0
    0.2454    4.7120   -2.9389 C   0  0  0  0  0  0  0  0  0  0  0  0
   -1.1003    5.0084   -2.7748 C   0  0  0  0  0  0  0  0  0  0  0  0
   -1.5735    5.4584   -1.5419 C   0  0  0  0  0  0  0  0  0  0  0  0
   -0.6785    5.7663   -0.5192 C   0  0  0  0  0  0  0  0  0  0  0  0
    5.0768    4.4476    1.7970 C   0  0  0  0  0  0  0  0  0  0  0  0
    4.5699    3.3027    2.5796 N   0  0  0  0  0  0  0  0  0  0  0  0
    5.2137    1.9614    2.4836 C   0  0  2  0  0  0  0  0  0  0  0  0
    4.7360    1.3559    1.7027 H   0  0  0  0  0  0  0  0  0  0  0  0
    4.9684    1.2108    3.8056 C   0  0  0  0  0  0  0  0  0  0  0  0
    5.8293    0.7094    4.5557 O   0  0  0  0  0  0  0  0  0  0  0  0
    3.6846    1.1159    4.1210 N   0  0  0  0  0  0  0  0  0  0  0  0
    3.1853    0.5632    5.4015 C   0  0  0  0  0  0  0  0  0  0  0  0
    1.8306    1.1769    5.7104 C   0  0  0  0  0  0  0  0  0  0  0  0
    1.2029    0.6945    4.4991 C   0  0  0  0  0  0  0  0  0  0  0  0
    1.0404   -0.7750    4.4851 C   0  0  0  0  0  0  0  0  0  0  0  0
    2.2839   -1.4874    4.1974 C   0  0  0  0  0  0  0  0  0  0  0  0
    3.1215   -0.9992    5.3310 C   0  0  0  0  0  0  0  0  0  0  0  0
    6.6858    1.8912    2.2436 C   0  0  0  0  0  0  0  0  0  0  0  0
    3.7347    7.3825    1.0776 H   0  0  0  0  0  0  0  0  0  0  0  0
    1.2709    3.6919    1.0510 H   0  0  0  0  0  0  0  0  0  0  0  0
    3.5844    0.0680   -0.2007 H   0  0  0  0  0  0  0  0  0  0  0  0
    2.5214   -1.9812    0.6569 H   0  0  0  0  0  0  0  0  0  0  0  0
    0.5467   -1.9577    1.8449 H   0  0  0  0  0  0  0  0  0  0  0  0
    0.9608    2.2323    2.2410 H   0  0  0  0  0  0  0  0  0  0  0  0
    0.0495   -3.0544    3.4764 H   0  0  0  0  0  0  0  0  0  0  0  0
   -1.1455   -2.6824    2.1603 H   0  0  0  0  0  0  0  0  0  0  0  0
   -1.4542   -3.8583    3.4446 H   0  0  0  0  0  0  0  0  0  0  0  0
   -1.4082    0.3980    6.4620 H   0  0  0  0  0  0  0  0  0  0  0  0
   -1.7296    2.3714    7.8821 H   0  0  0  0  0  0  0  0  0  0  0  0
   -0.9826    4.6135    7.1080 H   0  0  0  0  0  0  0  0  0  0  0  0
    0.2531    4.7175    4.9552 H   0  0  0  0  0  0  0  0  0  0  0  0
   -0.2695    3.0690    3.3010 H   0  0  0  0  0  0  0  0  0  0  0  0
    2.0387    6.9584    0.0304 H   0  0  0  0  0  0  0  0  0  0  0  0
    1.1721    6.1083    1.3159 H   0  0  0  0  0  0  0  0  0  0  0  0
    2.1462    4.5731   -2.0167 H   0  0  0  0  0  0  0  0  0  0  0  0
    0.6288    4.3459   -3.8870 H   0  0  0  0  0  0  0  0  0  0  0  0
   -1.7797    4.8847   -3.6116 H   0  0  0  0  0  0  0  0  0  0  0  0
   -2.6398    5.5995   -1.3914 H   0  0  0  0  0  0  0  0  0  0  0  0
   -1.0506    6.2161    0.3988 H   0  0  0  0  0  0  0  0  0  0  0  0
    5.8707    4.9472    2.3641 H   0  0  0  0  0  0  0  0  0  0  0  0
    5.5045    4.1843    0.8207 H   0  0  0  0  0  0  0  0  0  0  0  0
    3.6194    3.1895    2.2426 H   0  0  0  0  0  0  0  0  0  0  0  0
    3.1276    1.5817    3.4107 H   0  0  0  0  0  0  0  0  0  0  0  0
    3.8406    0.8765    6.1941 H   0  0  0  0  0  0  0  0  0  0  0  0
    1.8255    2.2717    5.7042 H   0  0  0  0  0  0  0  0  0  0  0  0
    1.2944    0.8107    6.5896 H   0  0  0  0  0  0  0  0  0  0  0  0
    1.6807    1.2419    3.7355 H   0  0  0  0  0  0  0  0  0  0  0  0
    0.4059    1.1627    4.0930 H   0  0  0  0  0  0  0  0  0  0  0  0
    0.3906   -1.1505    3.7510 H   0  0  0  0  0  0  0  0  0  0  0  0
    0.6248   -1.0526    5.4418 H   0  0  0  0  0  0  0  0  0  0  0  0
    2.6921   -1.2107    3.2266 H   0  0  0  0  0  0  0  0  0  0  0  0
    2.0797   -2.5632    4.1784 H   0  0  0  0  0  0  0  0  0  0  0  0
    4.0865   -1.4495    5.1699 H   0  0  0  0  0  0  0  0  0  0  0  0
    2.6347   -1.3807    6.2402 H   0  0  0  0  0  0  0  0  0  0  0  0
    6.9960    0.8386    2.3100 H   0  0  0  0  0  0  0  0  0  0  0  0
    7.1891    2.4536    3.0297 H   0  0  0  0  0  0  0  0  0  0  0  0
    6.9409    2.2593    1.2535 H   0  0  0  0  0  0  0  0  0  0  0  0
  1  2  1  0  0  0  0
  1 47  1  0  0  0  0
  2  3  1  1  0  0  0
  2  4  1  0  0  0  0
  2 33  1  0  0  0  0
  4  5  1  6  0  0  0
  4  6  1  0  0  0  0
  4 26  1  0  0  0  0
  6  7  1  0  0  0  0
  6 48  1  0  0  0  0
  7  8  2  0  0  0  0
  7  9  1  0  0  0  0
  9 10  2  0  0  0  0
  9 14  1  0  0  0  0
 10 11  1  0  0  0  0
 10 49  1  0  0  0  0
 11 12  2  0  0  0  0
 11 50  1  0  0  0  0
 12 13  1  0  0  0  0
 12 51  1  0  0  0  0
 13 14  2  0  0  0  0
 13 15  1  0  0  0  0
 14 52  1  0  0  0  0
 15 16  1  0  0  0  0
 15 20  1  0  0  0  0
 16 17  2  0  0  0  0
 16 18  2  0  0  0  0
 16 19  1  0  0  0  0
 19 53  1  0  0  0  0
 19 54  1  0  0  0  0
 19 55  1  0  0  0  0
 20 21  2  0  0  0  0
 20 25  1  0  0  0  0
 21 22  1  0  0  0  0
 21 56  1  0  0  0  0
 22 23  2  0  0  0  0
 22 57  1  0  0  0  0
 23 24  1  0  0  0  0
 23 58  1  0  0  0  0
 24 25  2  0  0  0  0
 24 59  1  0  0  0  0
 25 60  1  0  0  0  0
 26 27  1  0  0  0  0
 26 61  1  0  0  0  0
 26 62  1  0  0  0  0
 27 28  2  0  0  0  0
 27 32  1  0  0  0  0
 28 29  1  0  0  0  0
 28 63  1  0  0  0  0
 29 30  2  0  0  0  0
 29 64  1  0  0  0  0
 30 31  1  0  0  0  0
 30 65  1  0  0  0  0
 31 32  2  0  0  0  0
 31 66  1  0  0  0  0
 32 67  1  0  0  0  0
 33 34  1  0  0  0  0
 33 68  1  0  0  0  0
 33 69  1  0  0  0  0
 34 70  1  0  0  0  0
 35 37  1  0  0  0  0
 35 46  1  0  0  0  0
 35 36  1  6  0  0  0
 35 34  1  0  0  0  0
 37 38  2  0  0  0  0
 37 39  1  0  0  0  0
 39 40  1  0  0  0  0
 39 71  1  0  0  0  0
 40 41  1  0  0  0  0
 40 45  1  0  0  0  0
 40 72  1  0  0  0  0
 41 42  1  0  0  0  0
 41 73  1  0  0  0  0
 41 74  1  0  0  0  0
 42 43  1  0  0  0  0
 42 75  1  0  0  0  0
 42 76  1  0  0  0  0
 43 44  1  0  0  0  0
 43 77  1  0  0  0  0
 43 78  1  0  0  0  0
 44 45  1  0  0  0  0
 44 79  1  0  0  0  0
 44 80  1  0  0  0  0
 45 81  1  0  0  0  0
 45 82  1  0  0  0  0
 46 83  1  0  0  0  0
 46 84  1  0  0  0  0
 46 85  1  0  0  0  0
M  END
$$$$
