XFJ
 OpenBabel04121316203D

 51 53  0  0  0  0  0  0  0  0999 V2000
    1.0058   -0.0998    0.0106 C   0  0  0  0  0  0  0  0  0  0  0  0
    2.4967   -0.1023    0.0115 C   0  0  0  0  0  0  0  0  0  0  0  0
    3.1837    1.0955    0.0126 C   0  0  0  0  0  0  0  0  0  0  0  0
    4.5637    1.0540    0.0136 C   0  0  0  0  0  0  0  0  0  0  0  0
    5.2732    2.3629    0.0085 C   0  0  0  0  0  0  0  0  0  0  0  0
    6.7746    2.2252    0.0078 C   0  0  0  0  0  0  0  0  0  0  0  0
    7.4455    3.5599    0.0017 C   0  0  0  0  0  0  0  0  0  0  0  0
    6.8016    4.7947    0.0043 C   0  0  0  0  0  0  0  0  0  0  0  0
    7.4305    5.9852    0.0015 N   0  0  0  0  0  0  0  0  0  0  0  0
    8.7722    5.9389   -0.0033 C   0  0  0  0  0  0  0  0  0  0  0  0
    9.5077    4.7575   -0.0064 C   0  0  0  0  0  0  0  0  0  0  0  0
    8.8236    3.5562   -0.0048 C   0  0  0  0  0  0  0  0  0  0  0  0
   10.9915    4.8069   -0.0072 C   0  0  0  0  0  0  0  0  0  0  0  0
   11.7086    3.4447   -0.0084 C   0  0  0  0  0  0  0  0  0  0  0  0
   13.2059    3.5623   -0.0074 C   0  0  0  0  0  0  0  0  0  0  0  0
   13.8000    4.8177    0.0068 C   0  0  0  0  0  0  0  0  0  0  0  0
   15.1726    4.9225    0.0063 C   0  0  0  0  0  0  0  0  0  0  0  0
   15.7929    6.2787    0.0170 C   0  0  0  0  0  0  0  0  0  0  0  0
   15.9194    3.7554   -0.0066 C   0  0  0  0  0  0  0  0  0  0  0  0
   15.2706    2.5216   -0.0184 C   0  0  0  0  0  0  0  0  0  0  0  0
   13.9278    2.4164   -0.0198 N   0  0  0  0  0  0  0  0  0  0  0  0
   16.0106    1.3691   -0.0456 N   0  0  0  0  0  0  0  0  0  0  0  0
    5.2864   -0.0905    0.0168 N   0  0  0  0  0  0  0  0  0  0  0  0
    4.6159   -1.2472    0.0161 C   0  0  0  0  0  0  0  0  0  0  0  0
    3.2308   -1.2926    0.0106 C   0  0  0  0  0  0  0  0  0  0  0  0
    5.3728   -2.3911    0.0048 N   0  0  0  0  0  0  0  0  0  0  0  0
    0.6137    0.9240    0.0118 H   0  0  0  0  0  0  0  0  0  0  0  0
    0.6344   -0.6023    0.9069 H   0  0  0  0  0  0  0  0  0  0  0  0
    0.6350   -0.6001   -0.8872 H   0  0  0  0  0  0  0  0  0  0  0  0
    2.6679    2.0516    0.0118 H   0  0  0  0  0  0  0  0  0  0  0  0
    4.9563    2.9251    0.8968 H   0  0  0  0  0  0  0  0  0  0  0  0
    4.9557    2.9190   -0.8836 H   0  0  0  0  0  0  0  0  0  0  0  0
    7.1046    1.6587   -0.8750 H   0  0  0  0  0  0  0  0  0  0  0  0
    7.1061    1.6662    0.8948 H   0  0  0  0  0  0  0  0  0  0  0  0
    5.7210    4.8838    0.0092 H   0  0  0  0  0  0  0  0  0  0  0  0
    9.2586    6.9101   -0.0034 H   0  0  0  0  0  0  0  0  0  0  0  0
    9.3384    2.5986   -0.0071 H   0  0  0  0  0  0  0  0  0  0  0  0
   11.2853    5.3736    0.8868 H   0  0  0  0  0  0  0  0  0  0  0  0
   11.2875    5.3771   -0.8982 H   0  0  0  0  0  0  0  0  0  0  0  0
   11.4126    2.8704   -0.8964 H   0  0  0  0  0  0  0  0  0  0  0  0
   11.4131    2.8691    0.8789 H   0  0  0  0  0  0  0  0  0  0  0  0
   13.2188    5.7294    0.0175 H   0  0  0  0  0  0  0  0  0  0  0  0
   15.0253    7.0629    0.0244 H   0  0  0  0  0  0  0  0  0  0  0  0
   16.3969    6.4153   -0.8822 H   0  0  0  0  0  0  0  0  0  0  0  0
   16.3998    6.4004    0.9162 H   0  0  0  0  0  0  0  0  0  0  0  0
   16.9999    3.8009   -0.0068 H   0  0  0  0  0  0  0  0  0  0  0  0
   17.0158    1.3915   -0.0187 H   0  0  0  0  0  0  0  0  0  0  0  0
   15.5064    0.4924   -0.0407 H   0  0  0  0  0  0  0  0  0  0  0  0
    2.7204   -2.2478    0.0075 H   0  0  0  0  0  0  0  0  0  0  0  0
    6.3736   -2.2644    0.0240 H   0  0  0  0  0  0  0  0  0  0  0  0
    4.9612   -3.3065    0.0297 H   0  0  0  0  0  0  0  0  0  0  0  0
  1  2  1  0  0  0  0
  1 27  1  0  0  0  0
  1 28  1  0  0  0  0
  1 29  1  0  0  0  0
  2  3  2  0  0  0  0
  2 25  1  0  0  0  0
  3  4  1  0  0  0  0
  3 30  1  0  0  0  0
  4  5  1  0  0  0  0
  4 23  2  0  0  0  0
  5  6  1  0  0  0  0
  5 31  1  0  0  0  0
  5 32  1  0  0  0  0
  6  7  1  0  0  0  0
  6 33  1  0  0  0  0
  6 34  1  0  0  0  0
  7  8  2  0  0  0  0
  7 12  1  0  0  0  0
  8  9  1  0  0  0  0
  8 35  1  0  0  0  0
  9 10  2  0  0  0  0
 10 11  1  0  0  0  0
 10 36  1  0  0  0  0
 11 12  2  0  0  0  0
 11 13  1  0  0  0  0
 12 37  1  0  0  0  0
 13 14  1  0  0  0  0
 13 38  1  0  0  0  0
 13 39  1  0  0  0  0
 14 15  1  0  0  0  0
 14 40  1  0  0  0  0
 14 41  1  0  0  0  0
 15 16  2  0  0  0  0
 15 21  1  0  0  0  0
 16 17  1  0  0  0  0
 16 42  1  0  0  0  0
 17 18  1  0  0  0  0
 17 19  2  0  0  0  0
 18 43  1  0  0  0  0
 18 44  1  0  0  0  0
 18 45  1  0  0  0  0
 19 20  1  0  0  0  0
 19 46  1  0  0  0  0
 20 21  2  0  0  0  0
 20 22  1  0  0  0  0
 22 47  1  0  0  0  0
 22 48  1  0  0  0  0
 23 24  1  0  0  0  0
 24 25  2  0  0  0  0
 24 26  1  0  0  0  0
 25 49  1  0  0  0  0
 26 50  1  0  0  0  0
 26 51  1  0  0  0  0
M  END
$$$$
