XFK
 OpenBabel04121316203D

 51 53  0  0  0  0  0  0  0  0999 V2000
    0.9388   -0.0145    0.0908 C   0  0  0  0  0  0  0  0  0  0  0  0
    2.4292   -0.0171    0.0918 C   0  0  0  0  0  0  0  0  0  0  0  0
    3.1171    1.1803    0.0930 C   0  0  0  0  0  0  0  0  0  0  0  0
    4.4959    1.1397    0.0940 C   0  0  0  0  0  0  0  0  0  0  0  0
    5.2040    2.4494    0.0888 C   0  0  0  0  0  0  0  0  0  0  0  0
    6.7051    2.3157    0.0880 C   0  0  0  0  0  0  0  0  0  0  0  0
    7.3693    3.6538    0.0820 C   0  0  0  0  0  0  0  0  0  0  0  0
    6.7231    4.8869    0.0845 C   0  0  0  0  0  0  0  0  0  0  0  0
    7.3478    6.0802    0.0818 N   0  0  0  0  0  0  0  0  0  0  0  0
    8.6886    6.0405    0.0771 C   0  0  0  0  0  0  0  0  0  0  0  0
    9.4257    4.8626    0.0740 C   0  0  0  0  0  0  0  0  0  0  0  0
    8.7459    3.6570    0.0755 C   0  0  0  0  0  0  0  0  0  0  0  0
   10.9075    4.9230    0.0732 C   0  0  0  0  0  0  0  0  0  0  0  0
   11.6002    3.5554    0.0716 C   0  0  0  0  0  0  0  0  0  0  0  0
   13.0886    3.6530    0.0713 C   0  0  0  0  0  0  0  0  0  0  0  0
   13.7336    4.8808    0.0873 C   0  0  0  0  0  0  0  0  0  0  0  0
   15.1074    4.9265    0.0861 C   0  0  0  0  0  0  0  0  0  0  0  0
   15.7550    6.2781    0.0964 C   0  0  0  0  0  0  0  0  0  0  0  0
   15.8715    3.8085    0.0738 N   0  0  0  0  0  0  0  0  0  0  0  0
   15.2390    2.6157    0.0599 C   0  0  0  0  0  0  0  0  0  0  0  0
   13.8617    2.4962    0.0556 C   0  0  0  0  0  0  0  0  0  0  0  0
   16.0255    1.4877    0.0343 N   0  0  0  0  0  0  0  0  0  0  0  0
    5.2208   -0.0048    0.0973 N   0  0  0  0  0  0  0  0  0  0  0  0
    4.5481   -1.1603    0.0966 C   0  0  0  0  0  0  0  0  0  0  0  0
    3.1652   -1.2071    0.0907 C   0  0  0  0  0  0  0  0  0  0  0  0
    5.3079   -2.3058    0.0817 N   0  0  0  0  0  0  0  0  0  0  0  0
    0.5466    1.0095    0.0921 H   0  0  0  0  0  0  0  0  0  0  0  0
    0.5671   -0.5168    0.9871 H   0  0  0  0  0  0  0  0  0  0  0  0
    0.5677   -0.5146   -0.8070 H   0  0  0  0  0  0  0  0  0  0  0  0
    2.6004    2.1367    0.0920 H   0  0  0  0  0  0  0  0  0  0  0  0
    4.8864    3.0109    0.9772 H   0  0  0  0  0  0  0  0  0  0  0  0
    4.8857    3.0048   -0.8035 H   0  0  0  0  0  0  0  0  0  0  0  0
    7.0373    1.7498   -0.7945 H   0  0  0  0  0  0  0  0  0  0  0  0
    7.0387    1.7573    0.9748 H   0  0  0  0  0  0  0  0  0  0  0  0
    5.6427    4.9733    0.0894 H   0  0  0  0  0  0  0  0  0  0  0  0
    9.1753    7.0113    0.0769 H   0  0  0  0  0  0  0  0  0  0  0  0
    9.2605    2.6994    0.0733 H   0  0  0  0  0  0  0  0  0  0  0  0
   11.2080    5.4861    0.9668 H   0  0  0  0  0  0  0  0  0  0  0  0
   11.2100    5.4896   -0.8175 H   0  0  0  0  0  0  0  0  0  0  0  0
   11.2970    2.9872   -0.8185 H   0  0  0  0  0  0  0  0  0  0  0  0
   11.2986    2.9855    0.9613 H   0  0  0  0  0  0  0  0  0  0  0  0
   13.1877    5.8173    0.0993 H   0  0  0  0  0  0  0  0  0  0  0  0
   14.9985    7.0756    0.1038 H   0  0  0  0  0  0  0  0  0  0  0  0
   16.3585    6.4111   -0.8030 H   0  0  0  0  0  0  0  0  0  0  0  0
   16.3615    6.3964    0.9957 H   0  0  0  0  0  0  0  0  0  0  0  0
   13.3881    1.5188    0.0417 H   0  0  0  0  0  0  0  0  0  0  0  0
   17.0198    1.6417    0.0535 H   0  0  0  0  0  0  0  0  0  0  0  0
   15.6322    0.5625    0.0478 H   0  0  0  0  0  0  0  0  0  0  0  0
    2.6538   -2.1625    0.0874 H   0  0  0  0  0  0  0  0  0  0  0  0
    6.3067   -2.1786    0.1046 H   0  0  0  0  0  0  0  0  0  0  0  0
    4.8947   -3.2203    0.1125 H   0  0  0  0  0  0  0  0  0  0  0  0
  1  2  1  0  0  0  0
  1 27  1  0  0  0  0
  1 28  1  0  0  0  0
  1 29  1  0  0  0  0
  2  3  2  0  0  0  0
  2 25  1  0  0  0  0
  3  4  1  0  0  0  0
  3 30  1  0  0  0  0
  4  5  1  0  0  0  0
  4 23  2  0  0  0  0
  5  6  1  0  0  0  0
  5 31  1  0  0  0  0
  5 32  1  0  0  0  0
  6  7  1  0  0  0  0
  6 33  1  0  0  0  0
  6 34  1  0  0  0  0
  7  8  2  0  0  0  0
  7 12  1  0  0  0  0
  8  9  1  0  0  0  0
  8 35  1  0  0  0  0
  9 10  2  0  0  0  0
 10 11  1  0  0  0  0
 10 36  1  0  0  0  0
 11 12  2  0  0  0  0
 11 13  1  0  0  0  0
 12 37  1  0  0  0  0
 13 14  1  0  0  0  0
 13 38  1  0  0  0  0
 13 39  1  0  0  0  0
 14 15  1  0  0  0  0
 14 40  1  0  0  0  0
 14 41  1  0  0  0  0
 15 16  2  0  0  0  0
 15 21  1  0  0  0  0
 16 17  1  0  0  0  0
 16 42  1  0  0  0  0
 17 18  1  0  0  0  0
 17 19  2  0  0  0  0
 18 43  1  0  0  0  0
 18 44  1  0  0  0  0
 18 45  1  0  0  0  0
 19 20  1  0  0  0  0
 20 21  2  0  0  0  0
 20 22  1  0  0  0  0
 21 46  1  0  0  0  0
 22 47  1  0  0  0  0
 22 48  1  0  0  0  0
 23 24  1  0  0  0  0
 24 25  2  0  0  0  0
 24 26  1  0  0  0  0
 25 49  1  0  0  0  0
 26 50  1  0  0  0  0
 26 51  1  0  0  0  0
M  END
$$$$
