XFN
 OpenBabel04121316203D

 54 56  0  0  0  0  0  0  0  0999 V2000
    0.9719   -0.0161   -0.0752 N   0  0  0  0  0  0  0  0  0  0  0  0
    2.3492   -0.0166   -0.0322 C   0  0  0  0  0  0  0  0  0  0  0  0
    3.0820    1.1632   -0.0383 C   0  0  0  0  0  0  0  0  0  0  0  0
    4.4843    1.1357   -0.0368 C   0  0  0  0  0  0  0  0  0  0  0  0
    5.2435    2.4155   -0.0420 C   0  0  0  0  0  0  0  0  0  0  0  0
    6.7779    2.2880   -0.0423 C   0  0  0  0  0  0  0  0  0  0  0  0
    7.4801    3.6135   -0.0467 C   0  0  0  0  0  0  0  0  0  0  0  0
    6.7361    4.7854   -0.0471 C   0  0  0  0  0  0  0  0  0  0  0  0
    7.3799    6.0008   -0.0519 C   0  0  0  0  0  0  0  0  0  0  0  0
    6.5608    7.2464   -0.0562 C   0  0  0  0  0  0  0  0  0  0  0  0
    8.7655    6.0075   -0.0547 C   0  0  0  0  0  0  0  0  0  0  0  0
    9.4617    4.7998   -0.0527 C   0  0  0  0  0  0  0  0  0  0  0  0
    8.8343    3.6088   -0.0497 N   0  0  0  0  0  0  0  0  0  0  0  0
   10.8315    4.8072   -0.0687 N   0  0  0  0  0  0  0  0  0  0  0  0
    5.1473   -0.0770   -0.0329 C   0  0  0  0  0  0  0  0  0  0  0  0
    4.4281   -1.2569   -0.0347 C   0  0  0  0  0  0  0  0  0  0  0  0
    3.0360   -1.2209   -0.0395 C   0  0  0  0  0  0  0  0  0  0  0  0
    5.2322   -2.5057   -0.0313 C   0  0  0  0  0  0  0  0  0  0  0  0
    4.4149   -3.7883   -0.0329 C   0  0  0  0  0  0  0  0  0  0  0  0
    5.2640   -5.0214   -0.0256 C   0  0  0  0  0  0  0  0  0  0  0  0
    6.6509   -4.9228   -0.0139 C   0  0  0  0  0  0  0  0  0  0  0  0
    7.4123   -6.0699   -0.0080 C   0  0  0  0  0  0  0  0  0  0  0  0
    8.8993   -5.9542    0.0008 C   0  0  0  0  0  0  0  0  0  0  0  0
    6.7556   -7.2908   -0.0127 C   0  0  0  0  0  0  0  0  0  0  0  0
    5.3627   -7.3259   -0.0231 C   0  0  0  0  0  0  0  0  0  0  0  0
    4.6164   -6.2085   -0.0304 N   0  0  0  0  0  0  0  0  0  0  0  0
    4.7107   -8.5290   -0.0420 N   0  0  0  0  0  0  0  0  0  0  0  0
    0.4541    0.8471   -0.0240 H   0  0  0  0  0  0  0  0  0  0  0  0
    0.4719   -0.8937   -0.0273 H   0  0  0  0  0  0  0  0  0  0  0  0
    2.5642    2.1179   -0.0426 H   0  0  0  0  0  0  0  0  0  0  0  0
    4.9236    2.9722    0.8494 H   0  0  0  0  0  0  0  0  0  0  0  0
    4.9232    2.9662   -0.9370 H   0  0  0  0  0  0  0  0  0  0  0  0
    7.1051    1.7283   -0.9289 H   0  0  0  0  0  0  0  0  0  0  0  0
    7.1059    1.7348    0.8479 H   0  0  0  0  0  0  0  0  0  0  0  0
    5.6548    4.7811   -0.0442 H   0  0  0  0  0  0  0  0  0  0  0  0
    5.4883    7.0127   -0.0546 H   0  0  0  0  0  0  0  0  0  0  0  0
    6.7718    7.8232   -0.9586 H   0  0  0  0  0  0  0  0  0  0  0  0
    6.7733    7.8308    0.8409 H   0  0  0  0  0  0  0  0  0  0  0  0
    9.3041    6.9451   -0.0578 H   0  0  0  0  0  0  0  0  0  0  0  0
   11.3498    5.6687   -0.0469 H   0  0  0  0  0  0  0  0  0  0  0  0
   11.3010    3.9120   -0.0553 H   0  0  0  0  0  0  0  0  0  0  0  0
    6.2334   -0.1362   -0.0303 H   0  0  0  0  0  0  0  0  0  0  0  0
    2.4641   -2.1417   -0.0460 H   0  0  0  0  0  0  0  0  0  0  0  0
    5.8761   -2.4700    0.8612 H   0  0  0  0  0  0  0  0  0  0  0  0
    5.8848   -2.4727   -0.9174 H   0  0  0  0  0  0  0  0  0  0  0  0
    3.7771   -3.8105   -0.9253 H   0  0  0  0  0  0  0  0  0  0  0  0
    3.7687   -3.8073    0.8534 H   0  0  0  0  0  0  0  0  0  0  0  0
    7.1629   -3.9694   -0.0096 H   0  0  0  0  0  0  0  0  0  0  0  0
    9.2140   -4.9030    0.0017 H   0  0  0  0  0  0  0  0  0  0  0  0
    9.3112   -6.4224   -0.8955 H   0  0  0  0  0  0  0  0  0  0  0  0
    9.3010   -6.4213    0.9023 H   0  0  0  0  0  0  0  0  0  0  0  0
    7.3206   -8.2125   -0.0077 H   0  0  0  0  0  0  0  0  0  0  0  0
    5.2153   -9.3978   -0.0111 H   0  0  0  0  0  0  0  0  0  0  0  0
    3.6998   -8.5063   -0.0367 H   0  0  0  0  0  0  0  0  0  0  0  0
  1  2  1  0  0  0  0
  1 28  1  0  0  0  0
  1 29  1  0  0  0  0
  2  3  2  0  0  0  0
  2 17  1  0  0  0  0
  3  4  1  0  0  0  0
  3 30  1  0  0  0  0
  4  5  1  0  0  0  0
  4 15  2  0  0  0  0
  5  6  1  0  0  0  0
  5 31  1  0  0  0  0
  5 32  1  0  0  0  0
  6  7  1  0  0  0  0
  6 33  1  0  0  0  0
  6 34  1  0  0  0  0
  7  8  2  0  0  0  0
  7 13  1  0  0  0  0
  8  9  1  0  0  0  0
  8 35  1  0  0  0  0
  9 10  1  0  0  0  0
  9 11  2  0  0  0  0
 10 36  1  0  0  0  0
 10 37  1  0  0  0  0
 10 38  1  0  0  0  0
 11 12  1  0  0  0  0
 11 39  1  0  0  0  0
 12 13  2  0  0  0  0
 12 14  1  0  0  0  0
 14 40  1  0  0  0  0
 14 41  1  0  0  0  0
 15 16  1  0  0  0  0
 15 42  1  0  0  0  0
 16 17  2  0  0  0  0
 16 18  1  0  0  0  0
 17 43  1  0  0  0  0
 18 19  1  0  0  0  0
 18 44  1  0  0  0  0
 18 45  1  0  0  0  0
 19 20  1  0  0  0  0
 19 46  1  0  0  0  0
 19 47  1  0  0  0  0
 20 21  2  0  0  0  0
 20 26  1  0  0  0  0
 21 22  1  0  0  0  0
 21 48  1  0  0  0  0
 22 23  1  0  0  0  0
 22 24  2  0  0  0  0
 23 49  1  0  0  0  0
 23 50  1  0  0  0  0
 23 51  1  0  0  0  0
 24 25  1  0  0  0  0
 24 52  1  0  0  0  0
 25 26  2  0  0  0  0
 25 27  1  0  0  0  0
 27 53  1  0  0  0  0
 27 54  1  0  0  0  0
M  END
$$$$
