XI7
 OpenBabel04121316203D

 22 22  0  0  0  0  0  0  0  0999 V2000
    1.0444   -0.0856    0.0270 O   0  0  0  0  0  0  0  0  0  0  0  0
    2.2730   -0.0561   -0.0422 C   0  0  0  0  0  0  0  0  0  0  0  0
    2.8854    1.0173   -0.8435 C   0  0  0  0  0  0  0  0  0  0  0  0
    2.6737    2.3382   -0.4494 C   0  0  0  0  0  0  0  0  0  0  0  0
    3.1212    3.3668   -1.2725 C   0  0  0  0  0  0  0  0  0  0  0  0
    3.9019    3.0747   -2.3926 C   0  0  0  0  0  0  0  0  0  0  0  0
    4.2480    1.7563   -2.6859 C   0  0  0  0  0  0  0  0  0  0  0  0
    3.6690    0.7177   -1.9631 C   0  0  0  0  0  0  0  0  0  0  0  0
    3.1277   -1.0653    0.6783 C   0  0  0  0  0  0  0  0  0  0  0  0
    4.6207   -0.8818    0.6286 C   0  0  0  0  0  0  0  0  0  0  0  0
    5.2630    0.0283    0.1121 O   0  0  0  0  0  0  0  0  0  0  0  0
    5.4744   -1.9296    1.2999 C   0  0  0  0  0  0  0  0  0  0  0  0
    5.0109   -2.8577    1.9368 O   0  0  0  0  0  0  0  0  0  0  0  0
    6.7795   -1.6737    1.0842 O   0  0  0  0  0  0  0  0  0  0  0  0
    2.1614    2.5635    0.4825 H   0  0  0  0  0  0  0  0  0  0  0  0
    2.8642    4.3962   -1.0401 H   0  0  0  0  0  0  0  0  0  0  0  0
    4.2496    3.8793   -3.0345 H   0  0  0  0  0  0  0  0  0  0  0  0
    4.9627    1.5401   -3.4755 H   0  0  0  0  0  0  0  0  0  0  0  0
    3.8897   -0.3110   -2.2326 H   0  0  0  0  0  0  0  0  0  0  0  0
    2.8678   -2.0519    0.2760 H   0  0  0  0  0  0  0  0  0  0  0  0
    2.8277   -1.0263    1.7330 H   0  0  0  0  0  0  0  0  0  0  0  0
    6.8691   -0.8465    0.5462 H   0  0  0  0  0  0  0  0  0  0  0  0
  1  2  2  0  0  0  0
  2  3  1  0  0  0  0
  2  9  1  0  0  0  0
  3  4  2  0  0  0  0
  3  8  1  0  0  0  0
  4  5  1  0  0  0  0
  4 15  1  0  0  0  0
  5  6  2  0  0  0  0
  5 16  1  0  0  0  0
  6  7  1  0  0  0  0
  6 17  1  0  0  0  0
  7  8  2  0  0  0  0
  7 18  1  0  0  0  0
  8 19  1  0  0  0  0
  9 10  1  0  0  0  0
  9 20  1  0  0  0  0
  9 21  1  0  0  0  0
 10 11  2  0  0  0  0
 10 12  1  0  0  0  0
 12 13  2  0  0  0  0
 12 14  1  0  0  0  0
 14 22  1  0  0  0  0
M  END
$$$$
