XIY
 OpenBabel04121316203D

 19 20  0  0  0  0  0  0  0  0999 V2000
    1.0285    0.1977    0.0289 O   0  0  0  0  0  0  0  0  0  0  0  0
    2.4485    0.1128   -0.0102 C   0  0  0  0  0  0  0  0  0  0  0  0
    2.8900    0.6848   -1.3087 C   0  0  0  0  0  0  0  0  0  0  0  0
    3.4147    0.0438   -2.3353 N   0  0  0  0  0  0  0  0  0  0  0  0
    3.5950    0.9943   -3.3140 C   0  0  0  0  0  0  0  0  0  0  0  0
    3.2099    2.2501   -2.8612 C   0  0  0  0  0  0  0  0  0  0  0  0
    2.7783    2.0286   -1.5788 N   0  0  0  0  0  0  0  0  0  0  0  0
    2.3997    2.7194   -0.9508 H   0  0  0  0  0  0  0  0  0  0  0  0
    3.2802    3.4051   -3.6437 C   0  0  0  0  0  0  0  0  0  0  0  0
    3.7630    3.2519   -4.9487 C   0  0  0  0  0  0  0  0  0  0  0  0
    4.1546    2.0023   -5.4350 C   0  0  0  0  0  0  0  0  0  0  0  0
    4.0786    0.8607   -4.6247 C   0  0  0  0  0  0  0  0  0  0  0  0
    0.7414   -0.3225    0.7979 H   0  0  0  0  0  0  0  0  0  0  0  0
    2.7580   -0.9324    0.0851 H   0  0  0  0  0  0  0  0  0  0  0  0
    2.8461    0.6858    0.8325 H   0  0  0  0  0  0  0  0  0  0  0  0
    2.9690    4.3735   -3.2691 H   0  0  0  0  0  0  0  0  0  0  0  0
    3.8299    4.1229   -5.5979 H   0  0  0  0  0  0  0  0  0  0  0  0
    4.5196    1.9112   -6.4554 H   0  0  0  0  0  0  0  0  0  0  0  0
    4.3761   -0.1120   -4.9993 H   0  0  0  0  0  0  0  0  0  0  0  0
  1  2  1  0  0  0  0
  1 13  1  0  0  0  0
  2  3  1  0  0  0  0
  2 14  1  0  0  0  0
  2 15  1  0  0  0  0
  3  4  2  0  0  0  0
  3  7  1  0  0  0  0
  4  5  1  0  0  0  0
  5  6  2  0  0  0  0
  5 12  1  0  0  0  0
  6  7  1  0  0  0  0
  6  9  1  0  0  0  0
  7  8  1  0  0  0  0
  9 10  2  0  0  0  0
  9 16  1  0  0  0  0
 10 11  1  0  0  0  0
 10 17  1  0  0  0  0
 11 12  2  0  0  0  0
 11 18  1  0  0  0  0
 12 19  1  0  0  0  0
M  END
$$$$
