XIZ
 OpenBabel04121316203D

 18 18  0  0  0  0  0  0  0  0999 V2000
    0.9929   -0.1159    0.1173 O   0  0  0  0  0  0  0  0  0  0  0  0
    2.3353   -0.1864    0.0479 C   0  0  0  0  0  0  0  0  0  0  0  0
    2.9332   -1.1045   -0.4934 O   0  0  0  0  0  0  0  0  0  0  0  0
    2.9878    0.9743    0.6701 C   0  0  0  0  0  0  0  0  0  0  0  0
    4.3284    1.0568    0.6925 C   0  0  0  0  0  0  0  0  0  0  0  0
    5.0294    2.2266    1.2349 C   0  0  0  0  0  0  0  0  0  0  0  0
    4.4804    3.5057    1.1139 C   0  0  0  0  0  0  0  0  0  0  0  0
    5.2151    4.5923    1.5452 C   0  0  0  0  0  0  0  0  0  0  0  0
    6.4000    4.4845    2.1737 N   0  0  0  0  0  0  0  0  0  0  0  0
    6.8898    3.2356    2.3341 C   0  0  0  0  0  0  0  0  0  0  0  0
    6.2801    2.0932    1.8367 C   0  0  0  0  0  0  0  0  0  0  0  0
    0.6273    0.6068    0.6591 H   0  0  0  0  0  0  0  0  0  0  0  0
    2.3643    1.7570    1.0793 H   0  0  0  0  0  0  0  0  0  0  0  0
    4.9450    0.2576    0.2810 H   0  0  0  0  0  0  0  0  0  0  0  0
    3.5030    3.6741    0.6786 H   0  0  0  0  0  0  0  0  0  0  0  0
    4.8490    5.6019    1.3863 H   0  0  0  0  0  0  0  0  0  0  0  0
    7.8112    3.1762    2.9064 H   0  0  0  0  0  0  0  0  0  0  0  0
    6.7657    1.1292    1.9500 H   0  0  0  0  0  0  0  0  0  0  0  0
  1  2  1  0  0  0  0
  1 12  1  0  0  0  0
  2  3  2  0  0  0  0
  2  4  1  0  0  0  0
  4  5  2  0  0  0  0
  4 13  1  0  0  0  0
  5  6  1  0  0  0  0
  5 14  1  0  0  0  0
  6  7  2  0  0  0  0
  6 11  1  0  0  0  0
  7  8  1  0  0  0  0
  7 15  1  0  0  0  0
  8  9  2  0  0  0  0
  8 16  1  0  0  0  0
  9 10  1  0  0  0  0
 10 11  2  0  0  0  0
 10 17  1  0  0  0  0
 11 18  1  0  0  0  0
M  END
$$$$
