XJ0
 OpenBabel04121316203D

 19 19  0  0  0  0  0  0  0  0999 V2000
    0.9863   -0.2435   -0.0620 O   0  0  0  0  0  0  0  0  0  0  0  0
    2.3087   -0.0237   -0.0442 C   0  0  0  0  0  0  0  0  0  0  0  0
    2.8150    1.0113   -0.4346 O   0  0  0  0  0  0  0  0  0  0  0  0
    2.9973   -1.2196    0.4417 C   0  0  0  0  0  0  0  0  0  0  0  0
    4.3377   -1.2691    0.4452 C   0  0  0  0  0  0  0  0  0  0  0  0
    5.0516   -2.4678    0.8755 C   0  0  0  0  0  0  0  0  0  0  0  0
    6.2496   -2.4159    1.5545 C   0  0  0  0  0  0  0  0  0  0  0  0
    6.9165   -3.5074    1.9878 N   0  0  0  0  0  0  0  0  0  0  0  0
    6.3648   -4.6952    1.7163 C   0  0  0  0  0  0  0  0  0  0  0  0
    5.2308   -4.8700    1.0349 N   0  0  0  0  0  0  0  0  0  0  0  0
    4.6062   -3.7506    0.6206 C   0  0  0  0  0  0  0  0  0  0  0  0
    7.0025   -5.8087    2.1702 N   0  0  0  0  0  0  0  0  0  0  0  0
    0.6104    0.5569   -0.4827 H   0  0  0  0  0  0  0  0  0  0  0  0
    2.3719   -2.0440    0.7649 H   0  0  0  0  0  0  0  0  0  0  0  0
    4.9327   -0.4123    0.1331 H   0  0  0  0  0  0  0  0  0  0  0  0
    6.7240   -1.4698    1.8014 H   0  0  0  0  0  0  0  0  0  0  0  0
    3.6952   -3.9316    0.0565 H   0  0  0  0  0  0  0  0  0  0  0  0
    7.8625   -5.6830    2.6721 H   0  0  0  0  0  0  0  0  0  0  0  0
    6.5971   -6.7036    1.9622 H   0  0  0  0  0  0  0  0  0  0  0  0
  1  2  1  0  0  0  0
  1 13  1  0  0  0  0
  2  3  2  0  0  0  0
  2  4  1  0  0  0  0
  4  5  2  0  0  0  0
  4 14  1  0  0  0  0
  5  6  1  0  0  0  0
  5 15  1  0  0  0  0
  6  7  2  0  0  0  0
  6 11  1  0  0  0  0
  7  8  1  0  0  0  0
  7 16  1  0  0  0  0
  8  9  2  0  0  0  0
  9 10  1  0  0  0  0
  9 12  1  0  0  0  0
 10 11  2  0  0  0  0
 11 17  1  0  0  0  0
 12 18  1  0  0  0  0
 12 19  1  0  0  0  0
M  END
$$$$
