XLC
 OpenBabel04121316203D

 57 60  0  0  0  0  0  0  0  0999 V2000
    0.9394   -0.0762    0.0755 C   0  0  0  0  0  0  0  0  0  0  0  0
    2.4042   -0.0855    0.0243 N   0  0  0  0  0  0  0  0  0  0  0  0
    2.8812   -1.4393   -0.3558 C   0  0  0  0  0  0  0  0  0  0  0  0
    2.5258   -1.8325   -1.8132 C   0  0  0  0  0  0  0  0  0  0  0  0
    3.0047   -0.8345   -2.7960 N   0  0  0  0  0  0  0  0  0  0  0  0
    2.4171    0.4752   -2.4157 C   0  0  0  0  0  0  0  0  0  0  0  0
    2.8396    0.9033   -0.9844 C   0  0  0  0  0  0  0  0  0  0  0  0
    4.4816   -0.8194   -2.7433 C   0  0  0  0  0  0  0  0  0  0  0  0
    4.9852    0.2066   -3.6934 C   0  0  0  0  0  0  0  0  0  0  0  0
    4.8812    1.5743   -3.5234 C   0  0  0  0  0  0  0  0  0  0  0  0
    5.1764    2.4414   -4.9291 S   0  0  0  0  0  0  0  0  0  0  0  0
    5.8031    1.0380   -5.6748 C   0  0  0  0  0  0  0  0  0  0  0  0
    5.7237   -0.0652   -4.8589 C   0  0  0  0  0  0  0  0  0  0  0  0
    6.4367   -1.5858   -5.0747 Cl  0  0  0  0  0  0  0  0  0  0  0  0
    6.3290    1.2364   -6.9822 C   0  0  0  0  0  0  0  0  0  0  0  0
    6.1661    2.3148   -7.5654 O   0  0  0  0  0  0  0  0  0  0  0  0
    6.9746    0.1466   -7.5240 N   0  0  0  0  0  0  0  0  0  0  0  0
    7.4799    0.1137   -8.8299 C   0  0  0  0  0  0  0  0  0  0  0  0
    7.7464    1.3397   -9.4575 C   0  0  0  0  0  0  0  0  0  0  0  0
    8.0643    1.4260  -10.7957 C   0  0  0  0  0  0  0  0  0  0  0  0
    8.3164    0.2629  -11.4872 C   0  0  0  0  0  0  0  0  0  0  0  0
    8.2324   -0.9695  -10.8414 C   0  0  0  0  0  0  0  0  0  0  0  0
    7.7271   -1.0731   -9.5271 C   0  0  0  0  0  0  0  0  0  0  0  0
    7.4554   -2.4667   -9.0569 C   0  0  0  0  0  0  0  0  0  0  0  0
    7.7988   -3.3836   -9.8026 O   0  0  0  0  0  0  0  0  0  0  0  0
    6.7698   -2.6784   -7.8657 N   0  0  0  0  0  0  0  0  0  0  0  0
    6.5961   -3.9612   -7.3016 C   0  0  0  0  0  0  0  0  0  0  0  0
    7.5191   -4.9695   -7.5523 C   0  0  0  0  0  0  0  0  0  0  0  0
    7.2289   -6.2743   -7.1876 C   0  0  0  0  0  0  0  0  0  0  0  0
    6.1181   -6.5344   -6.3922 C   0  0  0  0  0  0  0  0  0  0  0  0
    5.3042   -5.4964   -5.9487 C   0  0  0  0  0  0  0  0  0  0  0  0
    5.4960   -4.2201   -6.4722 C   0  0  0  0  0  0  0  0  0  0  0  0
    5.7254   -8.1570   -5.9949 Cl  0  0  0  0  0  0  0  0  0  0  0  0
    8.7196    0.3585  -13.1502 Cl  0  0  0  0  0  0  0  0  0  0  0  0
    0.5807   -0.8057    0.8018 H   0  0  0  0  0  0  0  0  0  0  0  0
    0.4624   -0.3215   -0.8782 H   0  0  0  0  0  0  0  0  0  0  0  0
    0.5817    0.9156    0.3641 H   0  0  0  0  0  0  0  0  0  0  0  0
    2.4930   -2.1932    0.3355 H   0  0  0  0  0  0  0  0  0  0  0  0
    3.9704   -1.4836   -0.2159 H   0  0  0  0  0  0  0  0  0  0  0  0
    1.4383   -1.9328   -1.9181 H   0  0  0  0  0  0  0  0  0  0  0  0
    2.9251   -2.8246   -2.0528 H   0  0  0  0  0  0  0  0  0  0  0  0
    1.3281    0.4322   -2.5086 H   0  0  0  0  0  0  0  0  0  0  0  0
    2.6239    1.2505   -3.1553 H   0  0  0  0  0  0  0  0  0  0  0  0
    2.4539    1.9042   -0.7582 H   0  0  0  0  0  0  0  0  0  0  0  0
    3.9291    1.0201   -0.8973 H   0  0  0  0  0  0  0  0  0  0  0  0
    4.8318   -1.8302   -2.9879 H   0  0  0  0  0  0  0  0  0  0  0  0
    4.9222   -0.5960   -1.7696 H   0  0  0  0  0  0  0  0  0  0  0  0
    4.4773    2.1272   -2.6959 H   0  0  0  0  0  0  0  0  0  0  0  0
    7.1045   -0.6647   -6.9329 H   0  0  0  0  0  0  0  0  0  0  0  0
    7.7186    2.2809   -8.9182 H   0  0  0  0  0  0  0  0  0  0  0  0
    8.1223    2.4073  -11.2537 H   0  0  0  0  0  0  0  0  0  0  0  0
    8.5312   -1.8639  -11.3846 H   0  0  0  0  0  0  0  0  0  0  0  0
    6.1398   -1.9726   -7.5174 H   0  0  0  0  0  0  0  0  0  0  0  0
    8.4494   -4.7552   -8.0710 H   0  0  0  0  0  0  0  0  0  0  0  0
    7.8707   -7.0697   -7.5493 H   0  0  0  0  0  0  0  0  0  0  0  0
    4.4996   -5.6783   -5.2416 H   0  0  0  0  0  0  0  0  0  0  0  0
    4.7622   -3.4539   -6.2333 H   0  0  0  0  0  0  0  0  0  0  0  0
  1  2  1  0  0  0  0
  1 35  1  0  0  0  0
  1 36  1  0  0  0  0
  1 37  1  0  0  0  0
  2  3  1  0  0  0  0
  2  7  1  0  0  0  0
  3  4  1  0  0  0  0
  3 38  1  0  0  0  0
  3 39  1  0  0  0  0
  4  5  1  0  0  0  0
  4 40  1  0  0  0  0
  4 41  1  0  0  0  0
  5  6  1  0  0  0  0
  5  8  1  0  0  0  0
  6  7  1  0  0  0  0
  6 42  1  0  0  0  0
  6 43  1  0  0  0  0
  7 44  1  0  0  0  0
  7 45  1  0  0  0  0
  8  9  1  0  0  0  0
  8 46  1  0  0  0  0
  8 47  1  0  0  0  0
  9 10  2  0  0  0  0
  9 13  1  0  0  0  0
 10 11  1  0  0  0  0
 10 48  1  0  0  0  0
 11 12  1  0  0  0  0
 12 13  2  0  0  0  0
 12 15  1  0  0  0  0
 13 14  1  0  0  0  0
 15 16  2  0  0  0  0
 15 17  1  0  0  0  0
 17 18  1  0  0  0  0
 17 49  1  0  0  0  0
 18 19  2  0  0  0  0
 18 23  1  0  0  0  0
 19 20  1  0  0  0  0
 19 50  1  0  0  0  0
 20 21  2  0  0  0  0
 20 51  1  0  0  0  0
 21 22  1  0  0  0  0
 21 34  1  0  0  0  0
 22 23  2  0  0  0  0
 22 52  1  0  0  0  0
 23 24  1  0  0  0  0
 24 25  2  0  0  0  0
 24 26  1  0  0  0  0
 26 27  1  0  0  0  0
 26 53  1  0  0  0  0
 27 28  2  0  0  0  0
 27 32  1  0  0  0  0
 28 29  1  0  0  0  0
 28 54  1  0  0  0  0
 29 30  2  0  0  0  0
 29 55  1  0  0  0  0
 30 31  1  0  0  0  0
 30 33  1  0  0  0  0
 31 32  2  0  0  0  0
 31 56  1  0  0  0  0
 32 57  1  0  0  0  0
M  END
$$$$
