XLD
 OpenBabel04121316203D

 56 59  0  0  0  0  0  0  0  0999 V2000
    1.6757    0.5353   -0.1542 C   0  0  0  0  0  0  0  0  0  0  0  0
    2.9998    0.2119   -0.3634 O   0  0  0  0  0  0  0  0  0  0  0  0
    3.2742   -1.1207   -0.0975 C   0  0  0  0  0  0  0  0  0  0  0  0
    4.6569   -1.2133   -0.1805 C   0  0  0  0  0  0  0  0  0  0  0  0
    5.2783   -2.4288   -0.2358 C   0  0  0  0  0  0  0  0  0  0  0  0
    6.9764   -2.4646   -0.4606 Cl  0  0  0  0  0  0  0  0  0  0  0  0
    4.5171   -3.5821   -0.1610 C   0  0  0  0  0  0  0  0  0  0  0  0
    3.0992   -3.5473   -0.0002 C   0  0  0  0  0  0  0  0  0  0  0  0
    2.4517   -2.2829    0.0697 C   0  0  0  0  0  0  0  0  0  0  0  0
    1.0434   -2.2362    0.1514 N   0  0  0  0  0  0  0  0  0  0  0  0
    0.1855   -1.3780    0.7541 C   0  0  0  0  0  0  0  0  0  0  0  0
    0.3653   -0.7570    1.8201 O   0  0  0  0  0  0  0  0  0  0  0  0
   -1.1005   -1.3457    0.1891 C   0  0  0  0  0  0  0  0  0  0  0  0
   -1.8383   -2.8704    0.1902 S   0  0  0  0  0  0  0  0  0  0  0  0
   -3.0864   -2.0694    0.9730 C   0  0  0  0  0  0  0  0  0  0  0  0
   -3.2284   -0.7424    0.6200 C   0  0  0  0  0  0  0  0  0  0  0  0
   -1.9666   -0.2734    0.2225 C   0  0  0  0  0  0  0  0  0  0  0  0
   -1.5766    1.3968    0.2825 Cl  0  0  0  0  0  0  0  0  0  0  0  0
   -4.4591    0.0753    0.7910 C   0  0  0  0  0  0  0  0  0  0  0  0
   -5.7222   -0.6724    0.7515 N   0  0  0  0  0  0  0  0  0  0  0  0
   -5.7746   -2.0443    0.8445 C   0  0  0  0  0  0  0  0  0  0  0  0
   -6.0097   -2.7601    1.9005 N   0  0  0  0  0  0  0  0  0  0  0  0
   -5.6168   -4.1347    1.5213 C   0  0  0  0  0  0  0  0  0  0  0  0
   -5.4012   -4.0894    0.0239 C   0  0  0  0  0  0  0  0  0  0  0  0
   -5.3935   -2.6985   -0.2961 O   0  0  0  0  0  0  0  0  0  0  0  0
   -6.8881    0.1000    1.0759 C   0  0  0  0  0  0  0  0  0  0  0  0
    2.4950   -4.9319    0.0730 C   0  0  0  0  0  0  0  0  0  0  0  0
    3.2882   -5.8633   -0.0877 O   0  0  0  0  0  0  0  0  0  0  0  0
    1.1421   -5.1534    0.2836 N   0  0  0  0  0  0  0  0  0  0  0  0
    0.5194   -6.3904    0.3775 C   0  0  0  0  0  0  0  0  0  0  0  0
    1.2319   -7.5515    0.5453 C   0  0  0  0  0  0  0  0  0  0  0  0
    0.5809   -8.7505    0.3537 C   0  0  0  0  0  0  0  0  0  0  0  0
   -0.7918   -8.7516    0.1715 C   0  0  0  0  0  0  0  0  0  0  0  0
   -1.4639   -7.5395    0.2080 C   0  0  0  0  0  0  0  0  0  0  0  0
   -0.8290   -6.3437    0.2658 N   0  0  0  0  0  0  0  0  0  0  0  0
   -1.6124  -10.2333   -0.0645 Cl  0  0  0  0  0  0  0  0  0  0  0  0
    1.3412    1.5670   -0.1646 H   0  0  0  0  0  0  0  0  0  0  0  0
    1.6198    0.3272    0.8968 H   0  0  0  0  0  0  0  0  0  0  0  0
    1.0928   -0.0104   -0.9048 H   0  0  0  0  0  0  0  0  0  0  0  0
    5.2198   -0.2882   -0.2624 H   0  0  0  0  0  0  0  0  0  0  0  0
    5.0535   -4.5287   -0.2334 H   0  0  0  0  0  0  0  0  0  0  0  0
    0.5330   -3.0769    0.0229 H   0  0  0  0  0  0  0  0  0  0  0  0
   -3.7389   -2.7107    1.4979 H   0  0  0  0  0  0  0  0  0  0  0  0
   -4.4870    0.8068   -0.0339 H   0  0  0  0  0  0  0  0  0  0  0  0
   -4.3661    0.7006    1.6986 H   0  0  0  0  0  0  0  0  0  0  0  0
   -6.3759   -4.8618    1.8031 H   0  0  0  0  0  0  0  0  0  0  0  0
   -4.6940   -4.4369    2.0495 H   0  0  0  0  0  0  0  0  0  0  0  0
   -6.2216   -4.5492   -0.5234 H   0  0  0  0  0  0  0  0  0  0  0  0
   -4.4684   -4.5925   -0.2768 H   0  0  0  0  0  0  0  0  0  0  0  0
   -6.6818    1.1769    1.0719 H   0  0  0  0  0  0  0  0  0  0  0  0
   -7.2863   -0.1758    2.0542 H   0  0  0  0  0  0  0  0  0  0  0  0
   -7.6208   -0.1030    0.2943 H   0  0  0  0  0  0  0  0  0  0  0  0
    0.3796   -4.5217    0.2493 H   0  0  0  0  0  0  0  0  0  0  0  0
    2.2810   -7.5385    0.8006 H   0  0  0  0  0  0  0  0  0  0  0  0
    1.1702   -9.6580    0.3545 H   0  0  0  0  0  0  0  0  0  0  0  0
   -2.5499   -7.4962    0.1989 H   0  0  0  0  0  0  0  0  0  0  0  0
  1  2  1  0  0  0  0
  1 37  1  0  0  0  0
  1 38  1  0  0  0  0
  1 39  1  0  0  0  0
  2  3  1  0  0  0  0
  3  4  2  0  0  0  0
  3  9  1  0  0  0  0
  4  5  1  0  0  0  0
  4 40  1  0  0  0  0
  5  6  1  0  0  0  0
  5  7  2  0  0  0  0
  7  8  1  0  0  0  0
  7 41  1  0  0  0  0
  8  9  2  0  0  0  0
  8 27  1  0  0  0  0
  9 10  1  0  0  0  0
 10 11  1  0  0  0  0
 10 42  1  0  0  0  0
 11 12  2  0  0  0  0
 11 13  1  0  0  0  0
 13 14  1  0  0  0  0
 13 17  2  0  0  0  0
 14 15  1  0  0  0  0
 15 16  2  0  0  0  0
 15 43  1  0  0  0  0
 16 17  1  0  0  0  0
 16 19  1  0  0  0  0
 17 18  1  0  0  0  0
 19 20  1  0  0  0  0
 19 44  1  0  0  0  0
 19 45  1  0  0  0  0
 20 21  1  0  0  0  0
 20 26  1  0  0  0  0
 21 22  2  0  0  0  0
 21 25  1  0  0  0  0
 22 23  1  0  0  0  0
 23 24  1  0  0  0  0
 23 46  1  0  0  0  0
 23 47  1  0  0  0  0
 24 25  1  0  0  0  0
 24 48  1  0  0  0  0
 24 49  1  0  0  0  0
 26 50  1  0  0  0  0
 26 51  1  0  0  0  0
 26 52  1  0  0  0  0
 27 28  2  0  0  0  0
 27 29  1  0  0  0  0
 29 30  1  0  0  0  0
 29 53  1  0  0  0  0
 30 31  2  0  0  0  0
 30 35  1  0  0  0  0
 31 32  1  0  0  0  0
 31 54  1  0  0  0  0
 32 33  2  0  0  0  0
 32 55  1  0  0  0  0
 33 34  1  0  0  0  0
 33 36  1  0  0  0  0
 34 35  2  0  0  0  0
 34 56  1  0  0  0  0
M  END
$$$$
