XMM
 OpenBabel04121316203D

 38 40  0  0  1  0  0  0  0  0999 V2000
    0.8921    0.0164    0.2989 O   0  0  0  0  0  0  0  0  0  0  0  0
    2.3075    0.0445    0.2883 C   0  0  0  0  0  0  0  0  0  0  0  0
    2.9725   -1.1155    1.0833 C   0  0  1  0  0  0  0  0  0  0  0  0
    2.9393   -0.8240    2.1400 H   0  0  0  0  0  0  0  0  0  0  0  0
    2.3083   -2.4047    1.0584 O   0  0  0  0  0  0  0  0  0  0  0  0
    2.3357   -3.0592   -0.2172 C   0  0  2  0  0  0  0  0  0  0  0  0
    1.8390   -2.3543   -0.8339 H   0  0  0  0  0  0  0  0  0  0  0  0
    1.5218   -4.2373   -0.2360 O   0  0  0  0  0  0  0  0  0  0  0  0
    1.3770   -4.8040   -1.4643 C   0  0  0  0  0  0  0  0  0  0  0  0
    1.4948   -6.1792   -1.5510 C   0  0  0  0  0  0  0  0  0  0  0  0
    1.4905   -6.5143   -2.8687 N   0  0  0  0  0  0  0  0  0  0  0  0
    1.6137   -7.4596   -3.2260 H   0  0  0  0  0  0  0  0  0  0  0  0
    1.3645   -5.3933   -3.6573 C   0  0  0  0  0  0  0  0  0  0  0  0
    1.2238   -4.2712   -2.8111 C   0  0  0  0  0  0  0  0  0  0  0  0
    1.0592   -3.0163   -3.4852 C   0  0  0  0  0  0  0  0  0  0  0  0
    0.6621   -1.6062   -2.5954 Cl  0  0  0  0  0  0  0  0  0  0  0  0
    1.1580   -2.9120   -4.8810 C   0  0  0  0  0  0  0  0  0  0  0  0
    1.2897   -4.0504   -5.6556 C   0  0  0  0  0  0  0  0  0  0  0  0
    1.3700   -5.3061   -5.0581 C   0  0  0  0  0  0  0  0  0  0  0  0
    1.1399   -1.2345   -5.7883 Br  0  0  0  0  0  0  0  0  0  0  0  0
    3.7930   -3.2963   -0.7049 C   0  0  2  0  0  0  0  0  0  0  0  0
    4.2796   -4.0042   -0.0266 H   0  0  0  0  0  0  0  0  0  0  0  0
    4.5468   -1.9664   -0.7215 C   0  0  2  0  0  0  0  0  0  0  0  0
    5.5966   -2.1758   -0.9483 H   0  0  0  0  0  0  0  0  0  0  0  0
    4.4447   -1.2753    0.6459 C   0  0  2  0  0  0  0  0  0  0  0  0
    4.9328   -0.2960    0.6209 H   0  0  0  0  0  0  0  0  0  0  0  0
    5.1288   -2.0761    1.6195 O   0  0  0  0  0  0  0  0  0  0  0  0
    4.1137   -1.1392   -1.8184 O   0  0  0  0  0  0  0  0  0  0  0  0
    3.9326   -3.8409   -2.0259 O   0  0  0  0  0  0  0  0  0  0  0  0
    0.5942    0.5639   -0.4522 H   0  0  0  0  0  0  0  0  0  0  0  0
    2.6423    1.0037    0.6997 H   0  0  0  0  0  0  0  0  0  0  0  0
    2.6042    0.0819   -0.7547 H   0  0  0  0  0  0  0  0  0  0  0  0
    1.6520   -6.9266   -0.7862 H   0  0  0  0  0  0  0  0  0  0  0  0
    1.3116   -3.9679   -6.7390 H   0  0  0  0  0  0  0  0  0  0  0  0
    1.4584   -6.1946   -5.6784 H   0  0  0  0  0  0  0  0  0  0  0  0
    6.0277   -2.2558    1.2934 H   0  0  0  0  0  0  0  0  0  0  0  0
    3.1612   -1.2549   -1.9896 H   0  0  0  0  0  0  0  0  0  0  0  0
    3.6044   -3.1770   -2.6570 H   0  0  0  0  0  0  0  0  0  0  0  0
  1  2  1  0  0  0  0
  1 30  1  0  0  0  0
  2  3  1  0  0  0  0
  2 31  1  0  0  0  0
  2 32  1  0  0  0  0
  3  4  1  1  0  0  0
  3  5  1  0  0  0  0
  3 25  1  0  0  0  0
  5  6  1  0  0  0  0
  6  7  1  6  0  0  0
  6  8  1  0  0  0  0
  6 21  1  0  0  0  0
  8  9  1  0  0  0  0
  9 10  2  0  0  0  0
  9 14  1  0  0  0  0
 10 11  1  0  0  0  0
 10 33  1  0  0  0  0
 11 12  1  0  0  0  0
 11 13  1  0  0  0  0
 13 14  2  0  0  0  0
 13 19  1  0  0  0  0
 14 15  1  0  0  0  0
 15 16  1  0  0  0  0
 15 17  2  0  0  0  0
 17 18  1  0  0  0  0
 17 20  1  0  0  0  0
 18 19  2  0  0  0  0
 18 34  1  0  0  0  0
 19 35  1  0  0  0  0
 21 23  1  0  0  0  0
 21 29  1  0  0  0  0
 21 22  1  1  0  0  0
 23 25  1  0  0  0  0
 23 28  1  0  0  0  0
 23 24  1  6  0  0  0
 25 26  1  6  0  0  0
 25 27  1  0  0  0  0
 27 36  1  0  0  0  0
 28 37  1  0  0  0  0
 29 38  1  0  0  0  0
M  END
$$$$
