XMP
 OpenBabel04121316203D

 38 40  0  0  1  0  0  0  0  0999 V2000
    1.4711    7.2055   -2.0485 O   0  0  0  0  0  0  0  0  0  0  0  0
    1.4620    5.9762   -1.9564 C   0  0  0  0  0  0  0  0  0  0  0  0
    0.3748    5.1806   -2.0330 N   0  0  0  0  0  0  0  0  0  0  0  0
   -0.5134    5.6664   -2.0609 H   0  0  0  0  0  0  0  0  0  0  0  0
    0.2866    3.8421   -1.7022 C   0  0  0  0  0  0  0  0  0  0  0  0
   -0.7915    3.2621   -1.8103 O   0  0  0  0  0  0  0  0  0  0  0  0
    1.5293    3.3036   -1.2743 C   0  0  0  0  0  0  0  0  0  0  0  0
    2.6340    4.0748   -1.1040 C   0  0  0  0  0  0  0  0  0  0  0  0
    2.6364    5.3853   -1.4537 N   0  0  0  0  0  0  0  0  0  0  0  0
    3.2880    6.0586   -1.1066 H   0  0  0  0  0  0  0  0  0  0  0  0
    3.5987    3.3025   -0.4638 N   0  0  0  0  0  0  0  0  0  0  0  0
    3.1861    2.0178   -0.5212 C   0  0  0  0  0  0  0  0  0  0  0  0
    1.9342    2.0191   -0.9853 N   0  3  0  0  0  0  0  0  0  0  0  0
    1.3557    1.1930   -1.1365 H   0  0  0  0  0  0  0  0  0  0  0  0
    4.9514    3.6571    0.0099 C   0  0  2  0  0  0  0  0  0  0  0  0
    5.5133    2.7233    0.1427 H   0  0  0  0  0  0  0  0  0  0  0  0
    4.9082    4.2856    1.2973 O   0  0  0  0  0  0  0  0  0  0  0  0
    4.8559    5.7223    1.1161 C   0  0  1  0  0  0  0  0  0  0  0  0
    5.4090    6.2318    1.9119 H   0  0  0  0  0  0  0  0  0  0  0  0
    5.5078    5.9873   -0.2531 C   0  0  2  0  0  0  0  0  0  0  0  0
    4.9195    6.6693   -0.8670 H   0  0  0  0  0  0  0  0  0  0  0  0
    5.6484    4.6216   -0.9380 C   0  0  1  0  0  0  0  0  0  0  0  0
    5.1339    4.6027   -1.9035 H   0  0  0  0  0  0  0  0  0  0  0  0
    6.9787    4.2118   -1.2202 O   0  0  0  0  0  0  0  0  0  0  0  0
    6.7583    6.6454   -0.1343 O   0  0  0  0  0  0  0  0  0  0  0  0
    3.3779    6.0652    1.3227 C   0  0  0  0  0  0  0  0  0  0  0  0
    2.9159    7.2659    0.6866 O   0  0  0  0  0  0  0  0  0  0  0  0
    1.1985    7.4598    0.6100 P   0  0  0  0  0  0  0  0  0  0  0  0
    0.9262    5.9556    0.5255 O   0  0  0  0  0  0  0  0  0  0  0  0
    1.2273    7.8427    2.1834 O   0  0  0  0  0  0  0  0  0  0  0  0
   -0.5189    7.6537    0.5335 O   0  0  0  0  0  0  0  0  0  0  0  0
    3.7722    1.1362   -0.2758 H   0  0  0  0  0  0  0  0  0  0  0  0
    7.5473    4.3542   -0.4455 H   0  0  0  0  0  0  0  0  0  0  0  0
    7.3455    6.1653    0.4695 H   0  0  0  0  0  0  0  0  0  0  0  0
    3.1114    6.0249    2.3839 H   0  0  0  0  0  0  0  0  0  0  0  0
    2.8197    5.2119    0.9554 H   0  0  0  0  0  0  0  0  0  0  0  0
    1.4271    7.0831    2.7598 H   0  0  0  0  0  0  0  0  0  0  0  0
   -0.8428    7.7379   -0.3780 H   0  0  0  0  0  0  0  0  0  0  0  0
  1  2  2  0  0  0  0
  2  3  1  0  0  0  0
  2  9  1  0  0  0  0
  3  4  1  0  0  0  0
  3  5  1  0  0  0  0
  5  6  2  0  0  0  0
  5  7  1  0  0  0  0
  7  8  2  0  0  0  0
  7 13  1  0  0  0  0
  8  9  1  0  0  0  0
  8 11  1  0  0  0  0
  9 10  1  0  0  0  0
 11 12  1  0  0  0  0
 12 13  2  0  0  0  0
 12 32  1  0  0  0  0
 13 14  1  0  0  0  0
 15 17  1  0  0  0  0
 15 22  1  0  0  0  0
 15 16  1  1  0  0  0
 15 11  1  0  0  0  0
 17 18  1  0  0  0  0
 18 19  1  1  0  0  0
 18 20  1  0  0  0  0
 18 26  1  0  0  0  0
 20 22  1  0  0  0  0
 20 25  1  0  0  0  0
 20 21  1  6  0  0  0
 22 24  1  0  0  0  0
 22 23  1  6  0  0  0
 24 33  1  0  0  0  0
 25 34  1  0  0  0  0
 26 27  1  0  0  0  0
 26 35  1  0  0  0  0
 26 36  1  0  0  0  0
 27 28  1  0  0  0  0
 28 29  2  0  0  0  0
 28 30  1  0  0  0  0
 28 31  1  0  0  0  0
 30 37  1  0  0  0  0
 31 38  1  0  0  0  0
M  CHG  1  13   1
M  END
$$$$
