XNW
 OpenBabel04121316203D

 40 41  0  0  1  0  0  0  0  0999 V2000
    0.9246    0.0081    0.1941 C   0  0  0  0  0  0  0  0  0  0  0  0
    2.3276    0.2473    0.3816 O   0  0  0  0  0  0  0  0  0  0  0  0
    2.8157    0.4669   -0.8668 C   0  0  0  0  0  0  0  0  0  0  0  0
    3.0998    1.7364   -1.3969 C   0  0  0  0  0  0  0  0  0  0  0  0
    3.4290    1.9447   -2.7863 C   0  0  0  0  0  0  0  0  0  0  0  0
    3.5296    0.8696   -3.6413 C   0  0  0  0  0  0  0  0  0  0  0  0
    3.3450   -0.2863   -2.9358 C   0  0  0  0  0  0  0  0  0  0  0  0
    2.9960   -0.6104   -1.6468 C   0  0  0  0  0  0  0  0  0  0  0  0
    4.2209    0.7475   -5.0253 C   0  0  0  0  0  0  0  0  0  0  0  0
    4.9183   -0.6507   -5.5674 C   0  0  1  0  0  0  0  0  0  0  0  0
    5.1280   -0.4231   -6.6254 H   0  0  0  0  0  0  0  0  0  0  0  0
    6.2903   -0.8598   -4.9371 C   0  0  0  0  0  0  0  0  0  0  0  0
    7.3193   -0.5927   -5.5493 O   0  0  0  0  0  0  0  0  0  0  0  0
    6.3088   -1.2744   -3.4780 C   0  0  1  0  0  0  0  0  0  0  0  0
    7.3243   -1.5512   -3.1813 H   0  0  0  0  0  0  0  0  0  0  0  0
    6.0829   -0.1303   -2.6606 O   0  0  0  0  0  0  0  0  0  0  0  0
    5.3359   -2.5217   -3.2645 C   0  0  1  0  0  0  0  0  0  0  0  0
    5.0431   -2.5535   -2.2066 H   0  0  0  0  0  0  0  0  0  0  0  0
    3.9664   -2.6649   -4.1822 C   0  0  0  0  0  0  0  0  0  0  0  0
    4.1694   -2.0333   -5.5765 C   0  0  1  0  0  0  0  0  0  0  0  0
    2.9300   -1.7925   -6.2655 O   0  0  0  0  0  0  0  0  0  0  0  0
    4.9008   -3.2140   -6.3012 C   0  0  0  0  0  0  0  0  0  0  0  0
    5.0973   -4.3071   -5.8266 O   0  0  0  0  0  0  0  0  0  0  0  0
    5.2510   -2.9544   -7.5770 O   0  0  0  0  0  0  0  0  0  0  0  0
    6.1239   -3.6839   -3.4780 O   0  0  0  0  0  0  0  0  0  0  0  0
    0.4752   -0.2006    1.1633 H   0  0  0  0  0  0  0  0  0  0  0  0
    0.7103   -0.8481   -0.4667 H   0  0  0  0  0  0  0  0  0  0  0  0
    0.4749    0.9102   -0.2327 H   0  0  0  0  0  0  0  0  0  0  0  0
    3.1060    2.5692   -0.7057 H   0  0  0  0  0  0  0  0  0  0  0  0
    3.7212    2.9336   -3.1183 H   0  0  0  0  0  0  0  0  0  0  0  0
    4.0445   -0.9603   -3.2735 H   0  0  0  0  0  0  0  0  0  0  0  0
    3.0398   -1.6367   -1.2796 H   0  0  0  0  0  0  0  0  0  0  0  0
    5.0498    1.4714   -5.0042 H   0  0  0  0  0  0  0  0  0  0  0  0
    3.5328    1.1166   -5.7970 H   0  0  0  0  0  0  0  0  0  0  0  0
    5.6877    0.5846   -3.1878 H   0  0  0  0  0  0  0  0  0  0  0  0
    3.0161   -2.2352   -3.8239 H   0  0  0  0  0  0  0  0  0  0  0  0
    3.5993   -3.6965   -4.1564 H   0  0  0  0  0  0  0  0  0  0  0  0
    2.3787   -1.1691   -5.7542 H   0  0  0  0  0  0  0  0  0  0  0  0
    4.8328   -2.1523   -7.9239 H   0  0  0  0  0  0  0  0  0  0  0  0
    7.0147   -3.5421   -3.1127 H   0  0  0  0  0  0  0  0  0  0  0  0
  1  2  1  0  0  0  0
  1 26  1  0  0  0  0
  1 27  1  0  0  0  0
  1 28  1  0  0  0  0
  2  3  1  0  0  0  0
  3  4  2  0  0  0  0
  3  8  1  0  0  0  0
  4  5  1  0  0  0  0
  4 29  1  0  0  0  0
  5  6  2  0  0  0  0
  5 30  1  0  0  0  0
  6  7  1  0  0  0  0
  6  9  1  0  0  0  0
  7  8  2  0  0  0  0
  7 31  1  0  0  0  0
  8 32  1  0  0  0  0
  9 10  1  0  0  0  0
  9 33  1  0  0  0  0
  9 34  1  0  0  0  0
 10 11  1  6  0  0  0
 10 12  1  0  0  0  0
 10 20  1  0  0  0  0
 12 13  2  0  0  0  0
 12 14  1  0  0  0  0
 14 17  1  0  0  0  0
 14 16  1  0  0  0  0
 14 15  1  1  0  0  0
 16 35  1  0  0  0  0
 17 18  1  1  0  0  0
 17 19  1  0  0  0  0
 17 25  1  0  0  0  0
 19 20  1  0  0  0  0
 19 36  1  0  0  0  0
 19 37  1  0  0  0  0
 20 21  1  6  0  0  0
 20 22  1  0  0  0  0
 21 38  1  0  0  0  0
 22 23  2  0  0  0  0
 22 24  1  0  0  0  0
 24 39  1  0  0  0  0
 25 40  1  0  0  0  0
M  END
$$$$
