XPE
 OpenBabel04121316203D

 73 72  0  0  0  0  0  0  0  0999 V2000
    0.9907   -0.0739    0.0651 O   0  0  0  0  0  0  0  0  0  0  0  0
    2.4124   -0.0647    0.0737 C   0  0  0  0  0  0  0  0  0  0  0  0
    2.9129    0.9843    1.0550 C   0  0  0  0  0  0  0  0  0  0  0  0
    4.3383    0.9907    1.0610 O   0  0  0  0  0  0  0  0  0  0  0  0
    4.8328    1.9677    1.9749 C   0  0  0  0  0  0  0  0  0  0  0  0
    6.3518    1.9470    1.9556 C   0  0  0  0  0  0  0  0  0  0  0  0
    6.8399    2.9243    2.8698 O   0  0  0  0  0  0  0  0  0  0  0  0
    8.2637    2.9380    2.8827 C   0  0  0  0  0  0  0  0  0  0  0  0
    8.7377    3.9913    3.8680 C   0  0  0  0  0  0  0  0  0  0  0  0
   10.1612    4.0028    3.8787 O   0  0  0  0  0  0  0  0  0  0  0  0
   10.6509    4.9787    4.7917 C   0  0  0  0  0  0  0  0  0  0  0  0
   12.1681    4.9536    4.7682 C   0  0  0  0  0  0  0  0  0  0  0  0
   12.6572    5.9296    5.6812 O   0  0  0  0  0  0  0  0  0  0  0  0
   14.0802    5.9410    5.6919 C   0  0  0  0  0  0  0  0  0  0  0  0
   14.5532    6.9939    6.6769 C   0  0  0  0  0  0  0  0  0  0  0  0
   15.9762    7.0054    6.6875 O   0  0  0  0  0  0  0  0  0  0  0  0
   16.4651    7.9813    7.6005 C   0  0  0  0  0  0  0  0  0  0  0  0
   17.9821    7.9559    7.5768 C   0  0  0  0  0  0  0  0  0  0  0  0
   18.4712    8.9320    8.4896 O   0  0  0  0  0  0  0  0  0  0  0  0
   19.8942    8.9431    8.5003 C   0  0  0  0  0  0  0  0  0  0  0  0
   20.3673    9.9962    9.4854 C   0  0  0  0  0  0  0  0  0  0  0  0
   21.7904   10.0083    9.4962 O   0  0  0  0  0  0  0  0  0  0  0  0
   22.2796   10.9841   10.4096 C   0  0  0  0  0  0  0  0  0  0  0  0
   23.7973   10.9591   10.3861 C   0  0  0  0  0  0  0  0  0  0  0  0
   24.2894   11.9356   11.2980 O   0  0  0  0  0  0  0  0  0  0  0  0
   25.7136   11.9447   11.3080 C   0  0  0  0  0  0  0  0  0  0  0  0
   26.1909   12.9982   12.2926 C   0  0  0  0  0  0  0  0  0  0  0  0
   27.6164   13.0206   12.3015 O   0  0  0  0  0  0  0  0  0  0  0  0
   28.1005   13.9888   13.2257 C   0  0  0  0  0  0  0  0  0  0  0  0
   29.6230   13.9890   13.2182 C   0  0  0  0  0  0  0  0  0  0  0  0
   30.1276   14.9587   14.1297 O   0  0  0  0  0  0  0  0  0  0  0  0
    0.7175   -0.7551   -0.5721 H   0  0  0  0  0  0  0  0  0  0  0  0
    2.7776    0.1503   -0.9362 H   0  0  0  0  0  0  0  0  0  0  0  0
    2.7776   -1.0581    0.3555 H   0  0  0  0  0  0  0  0  0  0  0  0
    2.5356    0.7619    2.0602 H   0  0  0  0  0  0  0  0  0  0  0  0
    2.5356    1.9724    0.7661 H   0  0  0  0  0  0  0  0  0  0  0  0
    4.4716    1.7541    2.9883 H   0  0  0  0  0  0  0  0  0  0  0  0
    4.4716    2.9646    1.6943 H   0  0  0  0  0  0  0  0  0  0  0  0
    6.7154    2.1633    0.9441 H   0  0  0  0  0  0  0  0  0  0  0  0
    6.7154    0.9521    2.2388 H   0  0  0  0  0  0  0  0  0  0  0  0
    8.6486    3.1646    1.8811 H   0  0  0  0  0  0  0  0  0  0  0  0
    8.6486    1.9538    3.1755 H   0  0  0  0  0  0  0  0  0  0  0  0
    8.3545    3.7652    4.8702 H   0  0  0  0  0  0  0  0  0  0  0  0
    8.3544    4.9763    3.5757 H   0  0  0  0  0  0  0  0  0  0  0  0
   10.2896    4.7641    5.8046 H   0  0  0  0  0  0  0  0  0  0  0  0
   10.2896    5.9751    4.5102 H   0  0  0  0  0  0  0  0  0  0  0  0
   12.5299    5.1684    3.7555 H   0  0  0  0  0  0  0  0  0  0  0  0
   12.5299    3.9575    5.0501 H   0  0  0  0  0  0  0  0  0  0  0  0
   14.4643    6.1674    4.6900 H   0  0  0  0  0  0  0  0  0  0  0  0
   14.4642    4.9564    5.9845 H   0  0  0  0  0  0  0  0  0  0  0  0
   14.1693    6.7676    7.6789 H   0  0  0  0  0  0  0  0  0  0  0  0
   14.1692    7.9786    6.3844 H   0  0  0  0  0  0  0  0  0  0  0  0
   16.1036    7.7664    8.6133 H   0  0  0  0  0  0  0  0  0  0  0  0
   16.1035    8.9775    7.3188 H   0  0  0  0  0  0  0  0  0  0  0  0
   18.3436    8.1705    6.5639 H   0  0  0  0  0  0  0  0  0  0  0  0
   18.3436    6.9597    7.8586 H   0  0  0  0  0  0  0  0  0  0  0  0
   20.2781    9.1694    7.4983 H   0  0  0  0  0  0  0  0  0  0  0  0
   20.2779    7.9584    8.7929 H   0  0  0  0  0  0  0  0  0  0  0  0
   19.9833    9.7696   10.4873 H   0  0  0  0  0  0  0  0  0  0  0  0
   19.9829   10.9807    9.1928 H   0  0  0  0  0  0  0  0  0  0  0  0
   21.9177   10.7688   11.4221 H   0  0  0  0  0  0  0  0  0  0  0  0
   21.9177   11.9801   10.1278 H   0  0  0  0  0  0  0  0  0  0  0  0
   24.1580   11.1727    9.3728 H   0  0  0  0  0  0  0  0  0  0  0  0
   24.1581    9.9626   10.6680 H   0  0  0  0  0  0  0  0  0  0  0  0
   26.0957   12.1699   10.3053 H   0  0  0  0  0  0  0  0  0  0  0  0
   26.0949   10.9593   11.6009 H   0  0  0  0  0  0  0  0  0  0  0  0
   25.8088   12.7697   13.2951 H   0  0  0  0  0  0  0  0  0  0  0  0
   25.8010   13.9814   12.0025 H   0  0  0  0  0  0  0  0  0  0  0  0
   27.7345   13.7643   14.2344 H   0  0  0  0  0  0  0  0  0  0  0  0
   27.7296   14.9828   12.9489 H   0  0  0  0  0  0  0  0  0  0  0  0
   30.0096   14.2045   12.2162 H   0  0  0  0  0  0  0  0  0  0  0  0
   30.0066   13.0047   13.5047 H   0  0  0  0  0  0  0  0  0  0  0  0
   29.8051   15.8266   13.8389 H   0  0  0  0  0  0  0  0  0  0  0  0
  1  2  1  0  0  0  0
  1 32  1  0  0  0  0
  2  3  1  0  0  0  0
  2 33  1  0  0  0  0
  2 34  1  0  0  0  0
  3  4  1  0  0  0  0
  3 35  1  0  0  0  0
  3 36  1  0  0  0  0
  4  5  1  0  0  0  0
  5  6  1  0  0  0  0
  5 37  1  0  0  0  0
  5 38  1  0  0  0  0
  6  7  1  0  0  0  0
  6 39  1  0  0  0  0
  6 40  1  0  0  0  0
  7  8  1  0  0  0  0
  8  9  1  0  0  0  0
  8 41  1  0  0  0  0
  8 42  1  0  0  0  0
  9 10  1  0  0  0  0
  9 43  1  0  0  0  0
  9 44  1  0  0  0  0
 10 11  1  0  0  0  0
 11 12  1  0  0  0  0
 11 45  1  0  0  0  0
 11 46  1  0  0  0  0
 12 13  1  0  0  0  0
 12 47  1  0  0  0  0
 12 48  1  0  0  0  0
 13 14  1  0  0  0  0
 14 15  1  0  0  0  0
 14 49  1  0  0  0  0
 14 50  1  0  0  0  0
 15 16  1  0  0  0  0
 15 51  1  0  0  0  0
 15 52  1  0  0  0  0
 16 17  1  0  0  0  0
 17 18  1  0  0  0  0
 17 53  1  0  0  0  0
 17 54  1  0  0  0  0
 18 19  1  0  0  0  0
 18 55  1  0  0  0  0
 18 56  1  0  0  0  0
 19 20  1  0  0  0  0
 20 21  1  0  0  0  0
 20 57  1  0  0  0  0
 20 58  1  0  0  0  0
 21 22  1  0  0  0  0
 21 59  1  0  0  0  0
 21 60  1  0  0  0  0
 22 23  1  0  0  0  0
 23 24  1  0  0  0  0
 23 61  1  0  0  0  0
 23 62  1  0  0  0  0
 24 25  1  0  0  0  0
 24 63  1  0  0  0  0
 24 64  1  0  0  0  0
 25 26  1  0  0  0  0
 26 27  1  0  0  0  0
 26 65  1  0  0  0  0
 26 66  1  0  0  0  0
 27 28  1  0  0  0  0
 27 67  1  0  0  0  0
 27 68  1  0  0  0  0
 28 29  1  0  0  0  0
 29 30  1  0  0  0  0
 29 69  1  0  0  0  0
 29 70  1  0  0  0  0
 30 31  1  0  0  0  0
 30 71  1  0  0  0  0
 30 72  1  0  0  0  0
 31 73  1  0  0  0  0
M  END
$$$$
