XQ0
 OpenBabel04121316203D

 19 20  0  0  0  0  0  0  0  0999 V2000
    0.8994   -0.1273   -0.0137 O   0  0  0  0  0  0  0  0  0  0  0  0
    2.2646   -0.0712   -0.0079 C   0  0  0  0  0  0  0  0  0  0  0  0
    2.9299    1.1523   -0.0044 C   0  0  0  0  0  0  0  0  0  0  0  0
    4.3294    1.1909    0.0051 C   0  0  0  0  0  0  0  0  0  0  0  0
    5.0437   -0.0209    0.0107 C   0  0  0  0  0  0  0  0  0  0  0  0
    4.3460   -1.2217    0.0052 C   0  0  0  0  0  0  0  0  0  0  0  0
    2.9490   -1.2878   -0.0048 C   0  0  0  0  0  0  0  0  0  0  0  0
    5.3088   -2.1951    0.0123 N   0  0  0  0  0  0  0  0  0  0  0  0
    5.1711   -3.1984    0.0113 H   0  0  0  0  0  0  0  0  0  0  0  0
    6.5703   -1.7236    0.0226 N   0  0  0  0  0  0  0  0  0  0  0  0
    6.4132   -0.3938    0.0215 C   0  0  0  0  0  0  0  0  0  0  0  0
    7.5826    0.5177    0.0312 C   0  0  0  0  0  0  0  0  0  0  0  0
    0.5511    0.7794   -0.0071 H   0  0  0  0  0  0  0  0  0  0  0  0
    2.3830    2.0902   -0.0090 H   0  0  0  0  0  0  0  0  0  0  0  0
    4.8555    2.1404    0.0086 H   0  0  0  0  0  0  0  0  0  0  0  0
    2.4140   -2.2306   -0.0090 H   0  0  0  0  0  0  0  0  0  0  0  0
    8.5306   -0.0284    0.0388 H   0  0  0  0  0  0  0  0  0  0  0  0
    7.5521    1.1601    0.9176 H   0  0  0  0  0  0  0  0  0  0  0  0
    7.5664    1.1603   -0.8554 H   0  0  0  0  0  0  0  0  0  0  0  0
  1  2  1  0  0  0  0
  1 13  1  0  0  0  0
  2  3  2  0  0  0  0
  2  7  1  0  0  0  0
  3  4  1  0  0  0  0
  3 14  1  0  0  0  0
  4  5  2  0  0  0  0
  4 15  1  0  0  0  0
  5  6  1  0  0  0  0
  5 11  1  0  0  0  0
  6  7  2  0  0  0  0
  6  8  1  0  0  0  0
  7 16  1  0  0  0  0
  8  9  1  0  0  0  0
  8 10  1  0  0  0  0
 10 11  2  0  0  0  0
 11 12  1  0  0  0  0
 12 17  1  0  0  0  0
 12 18  1  0  0  0  0
 12 19  1  0  0  0  0
M  END
$$$$
