XRG
 OpenBabel04121316203D

 19 18  0  0  0  0  0  0  0  0999 V2000
    0.9564   -0.0356   -0.0438 C   0  0  0  0  0  0  0  0  0  0  0  0
    2.4021   -0.1047    0.0457 N   0  0  0  0  0  0  0  0  0  0  0  0
    3.0392   -0.8421    1.0011 C   0  0  0  0  0  0  0  0  0  0  0  0
    2.3849   -1.5158    1.8740 N   0  0  0  0  0  0  0  0  0  0  0  0
    4.4181   -0.8740    1.0424 N   0  0  0  0  0  0  0  0  0  0  0  0
    5.1142   -1.6069    1.9920 C   0  0  0  0  0  0  0  0  0  0  0  0
    4.6207   -2.2905    2.8778 O   0  0  0  0  0  0  0  0  0  0  0  0
    6.4891   -1.5310    1.8937 N   0  0  0  0  0  0  0  0  0  0  0  0
    7.2863   -2.2729    2.8549 C   0  0  0  0  0  0  0  0  0  0  0  0
    0.6316    0.6013   -0.8690 H   0  0  0  0  0  0  0  0  0  0  0  0
    0.5376    0.3703    0.8849 H   0  0  0  0  0  0  0  0  0  0  0  0
    0.5376   -1.0368   -0.2012 H   0  0  0  0  0  0  0  0  0  0  0  0
    2.9212    0.4247   -0.6402 H   0  0  0  0  0  0  0  0  0  0  0  0
    1.3826   -1.4367    1.7715 H   0  0  0  0  0  0  0  0  0  0  0  0
    4.9354   -0.3496    0.3630 H   0  0  0  0  0  0  0  0  0  0  0  0
    6.9535   -0.9853    1.1866 H   0  0  0  0  0  0  0  0  0  0  0  0
    6.6700   -2.8262    3.5718 H   0  0  0  0  0  0  0  0  0  0  0  0
    7.9111   -1.5728    3.4131 H   0  0  0  0  0  0  0  0  0  0  0  0
    7.9111   -2.9903    2.3190 H   0  0  0  0  0  0  0  0  0  0  0  0
  1  2  1  0  0  0  0
  1 10  1  0  0  0  0
  1 11  1  0  0  0  0
  1 12  1  0  0  0  0
  2  3  1  0  0  0  0
  2 13  1  0  0  0  0
  3  4  2  0  0  0  0
  3  5  1  0  0  0  0
  4 14  1  0  0  0  0
  5  6  1  0  0  0  0
  5 15  1  0  0  0  0
  6  7  2  0  0  0  0
  6  8  1  0  0  0  0
  8  9  1  0  0  0  0
  8 16  1  0  0  0  0
  9 17  1  0  0  0  0
  9 18  1  0  0  0  0
  9 19  1  0  0  0  0
M  END
$$$$
