XUL
 OpenBabel04121316213D

 20 19  0  0  1  0  0  0  0  0999 V2000
    2.3131   -2.5499   -0.3448 O   0  0  0  0  0  0  0  0  0  0  0  0
    2.4694   -1.8348   -1.5684 C   0  0  0  0  0  0  0  0  0  0  0  0
    2.9529   -0.4006   -1.2815 C   0  0  2  0  0  0  0  0  0  0  0  0
    2.5592   -0.0814   -0.3092 H   0  0  0  0  0  0  0  0  0  0  0  0
    2.4753    0.5694   -2.3774 C   0  0  1  0  0  0  0  0  0  0  0  0
    2.8865    1.5719   -2.2175 H   0  0  0  0  0  0  0  0  0  0  0  0
    2.9398    0.0862   -3.7648 C   0  0  0  0  0  0  0  0  0  0  0  0
    2.1436   -0.2683   -4.6441 O   0  0  0  0  0  0  0  0  0  0  0  0
    4.4465    0.0206   -4.0163 C   0  0  0  0  0  0  0  0  0  0  0  0
    4.7588   -0.4041   -5.3328 O   0  0  0  0  0  0  0  0  0  0  0  0
    1.0510    0.6899   -2.3385 O   0  0  0  0  0  0  0  0  0  0  0  0
    4.3814   -0.3823   -1.1576 O   0  0  0  0  0  0  0  0  0  0  0  0
    1.9748   -3.4312   -0.5833 H   0  0  0  0  0  0  0  0  0  0  0  0
    1.4976   -1.8388   -2.0707 H   0  0  0  0  0  0  0  0  0  0  0  0
    3.1964   -2.3789   -2.1807 H   0  0  0  0  0  0  0  0  0  0  0  0
    4.9087   -0.7058   -3.3494 H   0  0  0  0  0  0  0  0  0  0  0  0
    4.8831    1.0096   -3.8534 H   0  0  0  0  0  0  0  0  0  0  0  0
    4.2063   -1.1930   -5.4952 H   0  0  0  0  0  0  0  0  0  0  0  0
    0.7608    0.8657   -1.4279 H   0  0  0  0  0  0  0  0  0  0  0  0
    4.6752    0.5189   -0.9382 H   0  0  0  0  0  0  0  0  0  0  0  0
  1  2  1  0  0  0  0
  1 13  1  0  0  0  0
  2 14  1  0  0  0  0
  2 15  1  0  0  0  0
  3  5  1  0  0  0  0
  3 12  1  0  0  0  0
  3  4  1  1  0  0  0
  3  2  1  0  0  0  0
  5  6  1  1  0  0  0
  5  7  1  0  0  0  0
  5 11  1  0  0  0  0
  7  8  2  0  0  0  0
  7  9  1  0  0  0  0
  9 10  1  0  0  0  0
  9 16  1  0  0  0  0
  9 17  1  0  0  0  0
 10 18  1  0  0  0  0
 11 19  1  0  0  0  0
 12 20  1  0  0  0  0
M  END
$$$$
