XX6
 OpenBabel04121316213D

 48 50  0  0  1  0  0  0  0  0999 V2000
    3.2067    3.9860   -1.7915 O   0  0  0  0  0  0  0  0  0  0  0  0
    2.2009    4.9564   -1.4953 C   0  0  0  0  0  0  0  0  0  0  0  0
    1.2144    5.1909   -2.6719 C   0  0  0  0  0  0  0  0  0  0  0  0
    0.2632    4.0522   -2.8750 N   0  0  0  0  0  0  0  0  0  0  0  0
    1.0317    2.8856   -3.3158 C   0  0  0  0  0  0  0  0  0  0  0  0
    0.3915    1.5192   -3.6217 C   0  0  2  0  0  0  0  0  0  0  0  0
    0.7003    0.8291   -2.8207 H   0  0  0  0  0  0  0  0  0  0  0  0
    0.9733    1.0248   -4.9531 C   0  0  0  0  0  0  0  0  0  0  0  0
    2.4092    1.0181   -4.8457 O   0  0  0  0  0  0  0  0  0  0  0  0
    3.0147    0.6159   -6.0102 C   0  0  0  0  0  0  0  0  0  0  0  0
    3.6536    1.5920   -6.7762 C   0  0  0  0  0  0  0  0  0  0  0  0
    4.3160    1.2400   -7.9624 C   0  0  0  0  0  0  0  0  0  0  0  0
    4.9409    2.2290   -8.7473 C   0  0  0  0  0  0  0  0  0  0  0  0
    5.5958    1.8992   -9.9352 C   0  0  0  0  0  0  0  0  0  0  0  0
    5.6406    0.5796  -10.3510 C   0  0  0  0  0  0  0  0  0  0  0  0
    5.0304   -0.4095   -9.5800 C   0  0  0  0  0  0  0  0  0  0  0  0
    4.3508   -0.1152   -8.3698 C   0  0  0  0  0  0  0  0  0  0  0  0
    3.7199   -1.1198   -7.5587 C   0  0  0  0  0  0  0  0  0  0  0  0
    3.0677   -0.7404   -6.3577 C   0  0  0  0  0  0  0  0  0  0  0  0
    2.4955   -1.7341   -5.5344 C   0  0  0  0  0  0  0  0  0  0  0  0
    2.4857   -3.0720   -5.8974 C   0  0  0  0  0  0  0  0  0  0  0  0
    3.0982   -3.4556   -7.0758 C   0  0  0  0  0  0  0  0  0  0  0  0
    3.7127   -2.4965   -7.8820 C   0  0  0  0  0  0  0  0  0  0  0  0
   -1.0291    1.5236   -3.6551 O   0  0  0  0  0  0  0  0  0  0  0  0
    0.4338    6.4934   -2.4080 C   0  0  0  0  0  0  0  0  0  0  0  0
   -0.3987    6.8431   -3.5134 O   0  0  0  0  0  0  0  0  0  0  0  0
    3.4219    3.5321   -0.9576 H   0  0  0  0  0  0  0  0  0  0  0  0
    2.7519    5.8727   -1.2751 H   0  0  0  0  0  0  0  0  0  0  0  0
    1.6512    4.6506   -0.5979 H   0  0  0  0  0  0  0  0  0  0  0  0
    1.7825    5.3252   -3.6034 H   0  0  0  0  0  0  0  0  0  0  0  0
   -0.4083    4.3106   -3.6053 H   0  0  0  0  0  0  0  0  0  0  0  0
    1.7221    2.6229   -2.5186 H   0  0  0  0  0  0  0  0  0  0  0  0
    1.6284    3.2046   -4.1776 H   0  0  0  0  0  0  0  0  0  0  0  0
    0.6522    1.6927   -5.7617 H   0  0  0  0  0  0  0  0  0  0  0  0
    0.5682    0.0314   -5.1655 H   0  0  0  0  0  0  0  0  0  0  0  0
    3.6329    2.6266   -6.4430 H   0  0  0  0  0  0  0  0  0  0  0  0
    4.9201    3.2720   -8.4409 H   0  0  0  0  0  0  0  0  0  0  0  0
    6.0690    2.6726  -10.5338 H   0  0  0  0  0  0  0  0  0  0  0  0
    6.1479    0.3057  -11.2728 H   0  0  0  0  0  0  0  0  0  0  0  0
    5.1000   -1.4266   -9.9502 H   0  0  0  0  0  0  0  0  0  0  0  0
    2.0418   -1.4653   -4.5827 H   0  0  0  0  0  0  0  0  0  0  0  0
    2.0061   -3.8046   -5.2568 H   0  0  0  0  0  0  0  0  0  0  0  0
    3.1137   -4.4999   -7.3692 H   0  0  0  0  0  0  0  0  0  0  0  0
    4.1939   -2.8603   -8.7853 H   0  0  0  0  0  0  0  0  0  0  0  0
   -1.3090    0.5908   -3.6858 H   0  0  0  0  0  0  0  0  0  0  0  0
    1.1286    7.3250   -2.2422 H   0  0  0  0  0  0  0  0  0  0  0  0
   -0.1967    6.4006   -1.5181 H   0  0  0  0  0  0  0  0  0  0  0  0
    0.1727    6.9311   -4.2946 H   0  0  0  0  0  0  0  0  0  0  0  0
  1  2  1  0  0  0  0
  1 27  1  0  0  0  0
  2  3  1  0  0  0  0
  2 28  1  0  0  0  0
  2 29  1  0  0  0  0
  3  4  1  0  0  0  0
  3 25  1  0  0  0  0
  3 30  1  0  0  0  0
  4  5  1  0  0  0  0
  4 31  1  0  0  0  0
  5 32  1  0  0  0  0
  5 33  1  0  0  0  0
  6  8  1  0  0  0  0
  6 24  1  0  0  0  0
  6  7  1  1  0  0  0
  6  5  1  0  0  0  0
  8  9  1  0  0  0  0
  8 34  1  0  0  0  0
  8 35  1  0  0  0  0
  9 10  1  0  0  0  0
 10 11  2  0  0  0  0
 10 19  1  0  0  0  0
 11 12  1  0  0  0  0
 11 36  1  0  0  0  0
 12 13  2  0  0  0  0
 12 17  1  0  0  0  0
 13 14  1  0  0  0  0
 13 37  1  0  0  0  0
 14 15  2  0  0  0  0
 14 38  1  0  0  0  0
 15 16  1  0  0  0  0
 15 39  1  0  0  0  0
 16 17  2  0  0  0  0
 16 40  1  0  0  0  0
 17 18  1  0  0  0  0
 18 19  2  0  0  0  0
 18 23  1  0  0  0  0
 19 20  1  0  0  0  0
 20 21  2  0  0  0  0
 20 41  1  0  0  0  0
 21 22  1  0  0  0  0
 21 42  1  0  0  0  0
 22 23  2  0  0  0  0
 22 43  1  0  0  0  0
 23 44  1  0  0  0  0
 24 45  1  0  0  0  0
 25 26  1  0  0  0  0
 25 46  1  0  0  0  0
 25 47  1  0  0  0  0
 26 48  1  0  0  0  0
M  END
$$$$
