XXG
 OpenBabel04121316213D

 19 19  0  0  0  0  0  0  0  0999 V2000
    0.9140   -0.0791    0.0744 O   0  0  0  0  0  0  0  0  0  0  0  0
    2.1385    0.0244   -0.0022 C   0  0  0  0  0  0  0  0  0  0  0  0
    2.9485   -1.2158   -0.0186 C   0  0  0  0  0  0  0  0  0  0  0  0
    4.2853   -1.1484   -0.0211 C   0  0  0  0  0  0  0  0  0  0  0  0
    5.0256    0.1005   -0.0297 C   0  0  0  0  0  0  0  0  0  0  0  0
    4.3806    1.2800   -0.0513 C   0  0  0  0  0  0  0  0  0  0  0  0
    2.8939    1.3875   -0.0449 C   0  0  0  0  0  0  0  0  0  0  0  0
    2.4593    2.0214   -1.2320 O   0  0  0  0  0  0  0  0  0  0  0  0
    2.5766    2.2032    1.0619 O   0  0  0  0  0  0  0  0  0  0  0  0
    6.7841    0.0445   -0.0207 S   0  0  0  0  0  0  0  0  0  0  0  0
    7.2240   -0.4383    1.2673 O   0  0  0  0  0  0  0  0  0  0  0  0
    7.2448   -0.5498   -1.2581 O   0  0  0  0  0  0  0  0  0  0  0  0
    7.1620    1.6160   -0.0602 O   0  0  0  0  0  0  0  0  0  0  0  0
    2.3952   -2.1463   -0.0253 H   0  0  0  0  0  0  0  0  0  0  0  0
    4.8619   -2.0717   -0.0303 H   0  0  0  0  0  0  0  0  0  0  0  0
    4.9088    2.2286   -0.0562 H   0  0  0  0  0  0  0  0  0  0  0  0
    3.0559    2.7580   -1.4193 H   0  0  0  0  0  0  0  0  0  0  0  0
    2.5917    1.6241    1.8440 H   0  0  0  0  0  0  0  0  0  0  0  0
    7.1073    1.9886    0.8443 H   0  0  0  0  0  0  0  0  0  0  0  0
  1  2  2  0  0  0  0
  2  3  1  0  0  0  0
  2  7  1  0  0  0  0
  3  4  2  0  0  0  0
  3 14  1  0  0  0  0
  4  5  1  0  0  0  0
  4 15  1  0  0  0  0
  5  6  2  0  0  0  0
  5 10  1  0  0  0  0
  6  7  1  0  0  0  0
  6 16  1  0  0  0  0
  7  8  1  0  0  0  0
  7  9  1  0  0  0  0
  8 17  1  0  0  0  0
  9 18  1  0  0  0  0
 10 11  2  0  0  0  0
 10 12  2  0  0  0  0
 10 13  1  0  0  0  0
 13 19  1  0  0  0  0
M  END
$$$$
