XXZ
 OpenBabel04121316213D

 49 52  0  0  0  0  0  0  0  0999 V2000
    0.9817    0.1392    0.0672 N   0  0  0  0  0  0  0  0  0  0  0  0
    2.4431    0.1566    0.1134 C   0  0  0  0  0  0  0  0  0  0  0  0
    2.9379   -0.9448    1.0020 C   0  0  0  0  0  0  0  0  0  0  0  0
    3.8637   -0.7919    2.0459 C   0  0  0  0  0  0  0  0  0  0  0  0
    4.3223   -1.9099    2.7770 C   0  0  0  0  0  0  0  0  0  0  0  0
    3.7824   -3.1748    2.5350 C   0  0  0  0  0  0  0  0  0  0  0  0
    2.8190   -3.2584    1.5325 C   0  0  0  0  0  0  0  0  0  0  0  0
    2.4340   -2.2023    0.7456 C   0  0  0  0  0  0  0  0  0  0  0  0
    4.3102   -4.4109    3.2221 C   0  0  0  0  0  0  0  0  0  0  0  0
    5.3580   -4.3285    3.8726 O   0  0  0  0  0  0  0  0  0  0  0  0
    3.6678   -5.6308    3.0009 N   0  0  0  0  0  0  0  0  0  0  0  0
    4.4072   -6.8908    2.9109 C   0  0  0  0  0  0  0  0  0  0  0  0
    4.0793   -7.5825    1.5734 C   0  0  0  0  0  0  0  0  0  0  0  0
    2.5443   -7.7934    1.4019 C   0  0  0  0  0  0  0  0  0  0  0  0
    1.8730   -6.4277    1.5401 C   0  0  0  0  0  0  0  0  0  0  0  0
    2.2244   -5.7890    2.8941 C   0  0  0  0  0  0  0  0  0  0  0  0
    2.0503   -8.6645    2.4451 N   0  0  0  0  0  0  0  0  0  0  0  0
    2.3246  -10.0021    2.2806 C   0  0  0  0  0  0  0  0  0  0  0  0
    2.5907  -10.8131    3.3816 C   0  0  0  0  0  0  0  0  0  0  0  0
    2.9647  -12.1430    3.1938 C   0  0  0  0  0  0  0  0  0  0  0  0
    3.0583  -12.6665    1.9041 C   0  0  0  0  0  0  0  0  0  0  0  0
    2.8102  -11.8504    0.8066 C   0  0  0  0  0  0  0  0  0  0  0  0
    2.4758  -10.5161    0.9916 C   0  0  0  0  0  0  0  0  0  0  0  0
    2.2415   -9.5686   -0.1286 C   0  0  0  0  0  0  0  0  0  0  0  0
    2.2654   -8.2809    0.0351 N   0  0  0  0  0  0  0  0  0  0  0  0
    1.9765  -10.0681   -1.3705 N   0  0  0  0  0  0  0  0  0  0  0  0
    2.9104  -12.3763   -0.4236 F   0  0  0  0  0  0  0  0  0  0  0  0
    0.6371    0.9012   -0.5059 H   0  0  0  0  0  0  0  0  0  0  0  0
    0.6200    0.2635    1.0109 H   0  0  0  0  0  0  0  0  0  0  0  0
    2.8039    1.1271    0.4560 H   0  0  0  0  0  0  0  0  0  0  0  0
    2.8322   -0.0225   -0.8971 H   0  0  0  0  0  0  0  0  0  0  0  0
    4.2420    0.1951    2.2968 H   0  0  0  0  0  0  0  0  0  0  0  0
    5.1052   -1.7851    3.5228 H   0  0  0  0  0  0  0  0  0  0  0  0
    2.2827   -4.1388    1.2857 H   0  0  0  0  0  0  0  0  0  0  0  0
    1.7073   -2.3779   -0.0461 H   0  0  0  0  0  0  0  0  0  0  0  0
    4.0967   -7.5232    3.7513 H   0  0  0  0  0  0  0  0  0  0  0  0
    5.4861   -6.7291    3.0010 H   0  0  0  0  0  0  0  0  0  0  0  0
    4.6152   -8.5363    1.5060 H   0  0  0  0  0  0  0  0  0  0  0  0
    4.4580   -6.9621    0.7479 H   0  0  0  0  0  0  0  0  0  0  0  0
    0.7872   -6.4630    1.4121 H   0  0  0  0  0  0  0  0  0  0  0  0
    2.2553   -5.8431    0.6922 H   0  0  0  0  0  0  0  0  0  0  0  0
    1.9073   -6.4155    3.7325 H   0  0  0  0  0  0  0  0  0  0  0  0
    1.7069   -4.8446    3.0820 H   0  0  0  0  0  0  0  0  0  0  0  0
    1.5211   -8.3266    3.2333 H   0  0  0  0  0  0  0  0  0  0  0  0
    2.5522  -10.3975    4.3859 H   0  0  0  0  0  0  0  0  0  0  0  0
    3.1907  -12.7664    4.0541 H   0  0  0  0  0  0  0  0  0  0  0  0
    3.3345  -13.7031    1.7454 H   0  0  0  0  0  0  0  0  0  0  0  0
    1.9966  -11.0641   -1.5570 H   0  0  0  0  0  0  0  0  0  0  0  0
    1.8200   -9.4346   -2.1415 H   0  0  0  0  0  0  0  0  0  0  0  0
  1  2  1  0  0  0  0
  1 28  1  0  0  0  0
  1 29  1  0  0  0  0
  2  3  1  0  0  0  0
  2 30  1  0  0  0  0
  2 31  1  0  0  0  0
  3  4  2  0  0  0  0
  3  8  1  0  0  0  0
  4  5  1  0  0  0  0
  4 32  1  0  0  0  0
  5  6  2  0  0  0  0
  5 33  1  0  0  0  0
  6  7  1  0  0  0  0
  6  9  1  0  0  0  0
  7  8  2  0  0  0  0
  7 34  1  0  0  0  0
  8 35  1  0  0  0  0
  9 10  2  0  0  0  0
  9 11  1  0  0  0  0
 11 12  1  0  0  0  0
 11 16  1  0  0  0  0
 12 13  1  0  0  0  0
 12 36  1  0  0  0  0
 12 37  1  0  0  0  0
 13 14  1  0  0  0  0
 13 38  1  0  0  0  0
 13 39  1  0  0  0  0
 14 15  1  0  0  0  0
 14 17  1  0  0  0  0
 14 25  1  0  0  0  0
 15 16  1  0  0  0  0
 15 40  1  0  0  0  0
 15 41  1  0  0  0  0
 16 42  1  0  0  0  0
 16 43  1  0  0  0  0
 17 18  1  0  0  0  0
 17 44  1  0  0  0  0
 18 19  2  0  0  0  0
 18 23  1  0  0  0  0
 19 20  1  0  0  0  0
 19 45  1  0  0  0  0
 20 21  2  0  0  0  0
 20 46  1  0  0  0  0
 21 22  1  0  0  0  0
 21 47  1  0  0  0  0
 22 23  2  0  0  0  0
 22 27  1  0  0  0  0
 23 24  1  0  0  0  0
 24 25  2  0  0  0  0
 24 26  1  0  0  0  0
 26 48  1  0  0  0  0
 26 49  1  0  0  0  0
M  END
$$$$
