XY3
 OpenBabel04121316213D

 72 75  0  0  0  0  0  0  0  0999 V2000
    0.6495    0.0998   -0.0387 O   0  0  0  0  0  0  0  0  0  0  0  0
    2.0555    0.0503   -0.0702 C   0  0  0  0  0  0  0  0  0  0  0  0
    2.7844    0.9205   -1.1028 C   0  0  0  0  0  0  0  0  0  0  0  0
    4.2753    0.8775   -1.0830 N   0  0  0  0  0  0  0  0  0  0  0  0
    4.8181    0.5286    0.2611 C   0  0  0  0  0  0  0  0  0  0  0  0
    4.6112   -0.9516    0.6933 C   0  0  0  0  0  0  0  0  0  0  0  0
    5.0204   -1.8797   -0.3655 N   0  0  0  0  0  0  0  0  0  0  0  0
    4.4449   -1.5355   -1.6962 C   0  0  0  0  0  0  0  0  0  0  0  0
    4.7671   -0.0866   -2.0942 C   0  0  0  0  0  0  0  0  0  0  0  0
    6.4913   -1.8070   -0.3855 C   0  0  0  0  0  0  0  0  0  0  0  0
    6.9880   -2.8676   -1.2963 C   0  0  0  0  0  0  0  0  0  0  0  0
    7.4177   -2.5236   -2.5929 C   0  0  0  0  0  0  0  0  0  0  0  0
    7.4509   -3.4928   -3.5863 C   0  0  0  0  0  0  0  0  0  0  0  0
    7.2475   -4.8210   -3.2297 C   0  0  0  0  0  0  0  0  0  0  0  0
    7.0241   -5.1497   -1.8883 C   0  0  0  0  0  0  0  0  0  0  0  0
    6.7709   -4.1903   -0.9260 C   0  0  0  0  0  0  0  0  0  0  0  0
    6.2000   -4.6464    0.4039 C   0  0  0  0  0  0  0  0  0  0  0  0
    5.0346   -5.3422    0.2624 F   0  0  0  0  0  0  0  0  0  0  0  0
    7.0648   -5.4878    1.0384 F   0  0  0  0  0  0  0  0  0  0  0  0
    5.9304   -3.6897    1.3355 F   0  0  0  0  0  0  0  0  0  0  0  0
    7.2409   -5.8094   -4.2263 N   0  0  0  0  0  0  0  0  0  0  0  0
    6.9943   -7.1373   -3.9586 C   0  0  0  0  0  0  0  0  0  0  0  0
    6.7612   -7.6893   -2.8909 O   0  0  0  0  0  0  0  0  0  0  0  0
    7.0156   -8.0270   -5.0975 C   0  0  0  0  0  0  0  0  0  0  0  0
    5.8120   -8.5875   -5.5185 C   0  0  0  0  0  0  0  0  0  0  0  0
    5.8364   -9.6110   -6.4549 C   0  0  0  0  0  0  0  0  0  0  0  0
    7.0581  -10.1866   -6.8155 C   0  0  0  0  0  0  0  0  0  0  0  0
    8.2487   -9.6035   -6.3532 C   0  0  0  0  0  0  0  0  0  0  0  0
    8.2426   -8.4750   -5.5531 C   0  0  0  0  0  0  0  0  0  0  0  0
    9.5046  -10.1903   -6.6557 C   0  0  0  0  0  0  0  0  0  0  0  0
   10.5337  -10.7229   -6.9093 C   0  0  0  0  0  0  0  0  0  0  0  0
   11.7209  -11.4141   -7.2185 C   0  0  0  0  0  0  0  0  0  0  0  0
   12.9408  -10.8866   -7.5183 C   0  0  0  0  0  0  0  0  0  0  0  0
   13.8283  -11.8984   -7.7503 N   0  0  0  0  0  0  0  0  0  0  0  0
   13.1706  -13.0516   -7.5992 C   0  0  0  0  0  0  0  0  0  0  0  0
   11.8586  -12.7775   -7.2762 N   0  0  0  0  0  0  0  0  0  0  0  0
   10.7461  -13.6516   -7.0237 C   0  0  0  0  0  0  0  0  0  0  0  0
   13.8592  -14.3314   -7.7814 C   0  0  0  0  0  0  0  0  0  0  0  0
   15.0510  -14.4362   -8.0744 O   0  0  0  0  0  0  0  0  0  0  0  0
   13.1854  -15.5185   -7.6305 N   0  0  0  0  0  0  0  0  0  0  0  0
    7.0926  -11.4373   -7.6455 C   0  0  0  0  0  0  0  0  0  0  0  0
    0.4292   -0.5735    0.6376 H   0  0  0  0  0  0  0  0  0  0  0  0
    2.2628   -0.9969   -0.2798 H   0  0  0  0  0  0  0  0  0  0  0  0
    2.3803    0.3396    0.9337 H   0  0  0  0  0  0  0  0  0  0  0  0
    2.4847    1.9600   -0.9487 H   0  0  0  0  0  0  0  0  0  0  0  0
    2.4149    0.6572   -2.1021 H   0  0  0  0  0  0  0  0  0  0  0  0
    4.4307    1.2109    1.0236 H   0  0  0  0  0  0  0  0  0  0  0  0
    5.9000    0.7259    0.2637 H   0  0  0  0  0  0  0  0  0  0  0  0
    3.6029   -1.2176    0.9981 H   0  0  0  0  0  0  0  0  0  0  0  0
    5.1315   -1.1473    1.6384 H   0  0  0  0  0  0  0  0  0  0  0  0
    3.3617   -1.6992   -1.7313 H   0  0  0  0  0  0  0  0  0  0  0  0
    4.7822   -2.2321   -2.4725 H   0  0  0  0  0  0  0  0  0  0  0  0
    4.3687    0.1385   -3.0910 H   0  0  0  0  0  0  0  0  0  0  0  0
    5.8505    0.0348   -2.2223 H   0  0  0  0  0  0  0  0  0  0  0  0
    6.8997   -1.9688    0.6174 H   0  0  0  0  0  0  0  0  0  0  0  0
    6.8880   -0.8365   -0.6804 H   0  0  0  0  0  0  0  0  0  0  0  0
    7.6112   -1.4830   -2.8449 H   0  0  0  0  0  0  0  0  0  0  0  0
    7.6180   -3.1911   -4.6162 H   0  0  0  0  0  0  0  0  0  0  0  0
    6.9764   -6.1714   -1.5382 H   0  0  0  0  0  0  0  0  0  0  0  0
    7.3521   -5.5156   -5.1904 H   0  0  0  0  0  0  0  0  0  0  0  0
    4.8737   -8.2511   -5.0848 H   0  0  0  0  0  0  0  0  0  0  0  0
    4.9024   -9.9852   -6.8614 H   0  0  0  0  0  0  0  0  0  0  0  0
    9.1713   -8.0175   -5.2216 H   0  0  0  0  0  0  0  0  0  0  0  0
   13.2066   -9.8367   -7.5723 H   0  0  0  0  0  0  0  0  0  0  0  0
   10.9807  -14.6914   -7.1124 H   0  0  0  0  0  0  0  0  0  0  0  0
    9.9692  -13.4560   -7.7654 H   0  0  0  0  0  0  0  0  0  0  0  0
   10.4024  -13.4983   -5.9989 H   0  0  0  0  0  0  0  0  0  0  0  0
   12.2369  -15.6856   -7.3773 H   0  0  0  0  0  0  0  0  0  0  0  0
   13.7250  -16.3591   -7.7689 H   0  0  0  0  0  0  0  0  0  0  0  0
    6.0866  -11.7546   -7.9306 H   0  0  0  0  0  0  0  0  0  0  0  0
    7.5490  -12.2545   -7.0737 H   0  0  0  0  0  0  0  0  0  0  0  0
    7.6727  -11.2674   -8.5573 H   0  0  0  0  0  0  0  0  0  0  0  0
  1  2  1  0  0  0  0
  1 42  1  0  0  0  0
  2  3  1  0  0  0  0
  2 43  1  0  0  0  0
  2 44  1  0  0  0  0
  3  4  1  0  0  0  0
  3 45  1  0  0  0  0
  3 46  1  0  0  0  0
  4  5  1  0  0  0  0
  4  9  1  0  0  0  0
  5  6  1  0  0  0  0
  5 47  1  0  0  0  0
  5 48  1  0  0  0  0
  6  7  1  0  0  0  0
  6 49  1  0  0  0  0
  6 50  1  0  0  0  0
  7  8  1  0  0  0  0
  7 10  1  0  0  0  0
  8  9  1  0  0  0  0
  8 51  1  0  0  0  0
  8 52  1  0  0  0  0
  9 53  1  0  0  0  0
  9 54  1  0  0  0  0
 10 11  1  0  0  0  0
 10 55  1  0  0  0  0
 10 56  1  0  0  0  0
 11 12  2  0  0  0  0
 11 16  1  0  0  0  0
 12 13  1  0  0  0  0
 12 57  1  0  0  0  0
 13 14  2  0  0  0  0
 13 58  1  0  0  0  0
 14 15  1  0  0  0  0
 14 21  1  0  0  0  0
 15 16  2  0  0  0  0
 15 59  1  0  0  0  0
 16 17  1  0  0  0  0
 17 18  1  0  0  0  0
 17 19  1  0  0  0  0
 17 20  1  0  0  0  0
 21 22  1  0  0  0  0
 21 60  1  0  0  0  0
 22 23  2  0  0  0  0
 22 24  1  0  0  0  0
 24 25  2  0  0  0  0
 24 29  1  0  0  0  0
 25 26  1  0  0  0  0
 25 61  1  0  0  0  0
 26 27  2  0  0  0  0
 26 62  1  0  0  0  0
 27 28  1  0  0  0  0
 27 41  1  0  0  0  0
 28 29  2  0  0  0  0
 28 30  1  0  0  0  0
 29 63  1  0  0  0  0
 30 31  3  0  0  0  0
 31 32  1  0  0  0  0
 32 33  2  0  0  0  0
 32 36  1  0  0  0  0
 33 34  1  0  0  0  0
 33 64  1  0  0  0  0
 34 35  2  0  0  0  0
 35 36  1  0  0  0  0
 35 38  1  0  0  0  0
 36 37  1  0  0  0  0
 37 65  1  0  0  0  0
 37 66  1  0  0  0  0
 37 67  1  0  0  0  0
 38 39  2  0  0  0  0
 38 40  1  0  0  0  0
 40 68  1  0  0  0  0
 40 69  1  0  0  0  0
 41 70  1  0  0  0  0
 41 71  1  0  0  0  0
 41 72  1  0  0  0  0
M  END
$$$$
