XYL
 OpenBabel04121316213D

 22 21  0  0  1  0  0  0  0  0999 V2000
    0.9444    1.5698   -2.6840 O   0  0  0  0  0  0  0  0  0  0  0  0
    0.2828    0.3737   -3.0984 C   0  0  0  0  0  0  0  0  0  0  0  0
    0.8705   -0.3754   -4.3532 C   0  0  2  0  0  0  0  0  0  0  0  0
    0.3467   -1.3357   -4.4018 H   0  0  0  0  0  0  0  0  0  0  0  0
    2.3801   -0.6081   -4.2399 C   0  0  1  0  0  0  0  0  0  0  0  0
    2.7999   -1.0456   -5.1571 H   0  0  0  0  0  0  0  0  0  0  0  0
    3.1198    0.7208   -3.9325 C   0  0  2  0  0  0  0  0  0  0  0  0
    2.9910    0.9267   -2.8668 H   0  0  0  0  0  0  0  0  0  0  0  0
    2.7727    1.9537   -4.8449 C   0  0  0  0  0  0  0  0  0  0  0  0
    1.4577    2.4888   -4.9754 O   0  0  0  0  0  0  0  0  0  0  0  0
    4.5436    0.5250   -4.0532 O   0  0  0  0  0  0  0  0  0  0  0  0
    2.5914   -1.6008   -3.2160 O   0  0  0  0  0  0  0  0  0  0  0  0
    0.5794    0.2531   -5.6135 O   0  0  0  0  0  0  0  0  0  0  0  0
    0.5074    1.9547   -1.9195 H   0  0  0  0  0  0  0  0  0  0  0  0
   -0.7522    0.6572   -3.2829 H   0  0  0  0  0  0  0  0  0  0  0  0
    0.3603   -0.2956   -2.2400 H   0  0  0  0  0  0  0  0  0  0  0  0
    3.1138    1.7428   -5.8605 H   0  0  0  0  0  0  0  0  0  0  0  0
    3.3612    2.7948   -4.4750 H   0  0  0  0  0  0  0  0  0  0  0  0
    0.8432    1.7870   -5.2616 H   0  0  0  0  0  0  0  0  0  0  0  0
    4.9333    1.2800   -3.5736 H   0  0  0  0  0  0  0  0  0  0  0  0
    2.1548   -2.4243   -3.5091 H   0  0  0  0  0  0  0  0  0  0  0  0
    1.2578   -0.0359   -6.2653 H   0  0  0  0  0  0  0  0  0  0  0  0
  1  2  1  0  0  0  0
  1 14  1  0  0  0  0
  2 15  1  0  0  0  0
  2 16  1  0  0  0  0
  3  5  1  0  0  0  0
  3 13  1  0  0  0  0
  3  4  1  6  0  0  0
  3  2  1  0  0  0  0
  5  6  1  6  0  0  0
  5 12  1  0  0  0  0
  7  9  1  0  0  0  0
  7 11  1  0  0  0  0
  7  8  1  1  0  0  0
  7  5  1  0  0  0  0
  9 10  1  0  0  0  0
  9 17  1  0  0  0  0
  9 18  1  0  0  0  0
 10 19  1  0  0  0  0
 11 20  1  0  0  0  0
 12 21  1  0  0  0  0
 13 22  1  0  0  0  0
M  END
$$$$
