XYP
 OpenBabel04121316213D

 20 20  0  0  1  0  0  0  0  0999 V2000
    2.9798    0.1919    1.3097 O   0  0  0  0  0  0  0  0  0  0  0  0
    2.5256   -0.0671   -0.0180 C   0  0  2  0  0  0  0  0  0  0  0  0
    1.4294   -0.0536    0.0158 H   0  0  0  0  0  0  0  0  0  0  0  0
    3.0057   -1.4458   -0.4748 C   0  0  0  0  0  0  0  0  0  0  0  0
    2.5643   -1.7417   -1.8000 O   0  0  0  0  0  0  0  0  0  0  0  0
    3.0597   -0.8053   -2.7454 C   0  0  2  0  0  0  0  0  0  0  0  0
    4.1547   -0.8446   -2.7725 H   0  0  0  0  0  0  0  0  0  0  0  0
    2.5674    0.6212   -2.4375 C   0  0  1  0  0  0  0  0  0  0  0  0
    1.4742    0.6692   -2.5149 H   0  0  0  0  0  0  0  0  0  0  0  0
    2.9994    1.0073   -1.0142 C   0  0  1  0  0  0  0  0  0  0  0  0
    4.0901    1.1082   -0.9700 H   0  0  0  0  0  0  0  0  0  0  0  0
    2.4862    2.2930   -0.6401 O   0  0  0  0  0  0  0  0  0  0  0  0
    3.0807    1.5502   -3.3976 O   0  0  0  0  0  0  0  0  0  0  0  0
    2.6055   -1.1901   -4.0379 O   0  0  0  0  0  0  0  0  0  0  0  0
    3.9265    0.4105    1.2782 H   0  0  0  0  0  0  0  0  0  0  0  0
    2.6131   -2.2154    0.1990 H   0  0  0  0  0  0  0  0  0  0  0  0
    4.0994   -1.5196   -0.4196 H   0  0  0  0  0  0  0  0  0  0  0  0
    1.5193    2.2749   -0.7084 H   0  0  0  0  0  0  0  0  0  0  0  0
    2.8818    1.1795   -4.2789 H   0  0  0  0  0  0  0  0  0  0  0  0
    1.6423   -1.2619   -3.9654 H   0  0  0  0  0  0  0  0  0  0  0  0
  1 15  1  0  0  0  0
  2  4  1  0  0  0  0
  2 10  1  0  0  0  0
  2  3  1  1  0  0  0
  2  1  1  0  0  0  0
  4  5  1  0  0  0  0
  4 16  1  0  0  0  0
  4 17  1  0  0  0  0
  5  6  1  0  0  0  0
  6  8  1  0  0  0  0
  6 14  1  0  0  0  0
  6  7  1  1  0  0  0
  8  9  1  6  0  0  0
  8 10  1  0  0  0  0
  8 13  1  0  0  0  0
 10 12  1  0  0  0  0
 10 11  1  1  0  0  0
 12 18  1  0  0  0  0
 13 19  1  0  0  0  0
 14 20  1  0  0  0  0
M  END
$$$$
