XYS
 OpenBabel04121316213D

 20 20  0  0  1  0  0  0  0  0999 V2000
    2.9161    0.3170    1.4198 O   0  0  0  0  0  0  0  0  0  0  0  0
    2.4694    0.0479    0.0902 C   0  0  2  0  0  0  0  0  0  0  0  0
    1.3731    0.0616    0.1190 H   0  0  0  0  0  0  0  0  0  0  0  0
    2.9463   -1.3372   -0.3441 C   0  0  0  0  0  0  0  0  0  0  0  0
    2.5463   -1.6503   -1.6791 O   0  0  0  0  0  0  0  0  0  0  0  0
    3.0422   -0.7162   -2.6297 C   0  0  1  0  0  0  0  0  0  0  0  0
    2.7031   -1.0213   -3.6257 H   0  0  0  0  0  0  0  0  0  0  0  0
    2.5239    0.7108   -2.3330 C   0  0  1  0  0  0  0  0  0  0  0  0
    1.4281    0.7212   -2.3891 H   0  0  0  0  0  0  0  0  0  0  0  0
    2.9471    1.1176   -0.9098 C   0  0  1  0  0  0  0  0  0  0  0  0
    4.0352    1.2337   -0.8552 H   0  0  0  0  0  0  0  0  0  0  0  0
    2.4128    2.4021   -0.5470 O   0  0  0  0  0  0  0  0  0  0  0  0
    2.9923    1.6707   -3.2870 O   0  0  0  0  0  0  0  0  0  0  0  0
    4.4602   -0.7613   -2.6321 O   0  0  0  0  0  0  0  0  0  0  0  0
    3.8665    0.5208    1.3815 H   0  0  0  0  0  0  0  0  0  0  0  0
    2.5272   -2.0985    0.3230 H   0  0  0  0  0  0  0  0  0  0  0  0
    4.0357   -1.4248   -0.2461 H   0  0  0  0  0  0  0  0  0  0  0  0
    1.4482    2.3664   -0.6157 H   0  0  0  0  0  0  0  0  0  0  0  0
    2.7836    1.3437   -4.1778 H   0  0  0  0  0  0  0  0  0  0  0  0
    4.6890   -1.6495   -2.9531 H   0  0  0  0  0  0  0  0  0  0  0  0
  1 15  1  0  0  0  0
  2  4  1  0  0  0  0
  2 10  1  0  0  0  0
  2  3  1  1  0  0  0
  2  1  1  0  0  0  0
  4  5  1  0  0  0  0
  4 16  1  0  0  0  0
  4 17  1  0  0  0  0
  5  6  1  0  0  0  0
  6  7  1  6  0  0  0
  6  8  1  0  0  0  0
  6 14  1  0  0  0  0
  8  9  1  6  0  0  0
  8 10  1  0  0  0  0
  8 13  1  0  0  0  0
 10 12  1  0  0  0  0
 10 11  1  1  0  0  0
 12 18  1  0  0  0  0
 13 19  1  0  0  0  0
 14 20  1  0  0  0  0
M  END
$$$$
