Y02
 OpenBabel04121316213D

 67 67  0  0  1  0  0  0  0  0999 V2000
    0.3093   -1.3157    1.8249 C   0  0  0  0  0  0  0  0  0  0  0  0
    0.3786   -0.2018    2.7082 O   0  0  0  0  0  0  0  0  0  0  0  0
    0.8345   -0.2354    4.0888 C   0  0  2  0  0  0  0  0  0  0  0  0
    0.3012    0.6455    4.4896 H   0  0  0  0  0  0  0  0  0  0  0  0
    2.3865    0.3258    4.1002 C   0  0  1  0  0  0  0  0  0  0  0  0
    2.7350    0.5359    5.1232 H   0  0  0  0  0  0  0  0  0  0  0  0
    3.2931   -0.6871    3.3598 C   0  0  2  0  0  0  0  0  0  0  0  0
    3.0110   -0.6843    2.3092 H   0  0  0  0  0  0  0  0  0  0  0  0
    3.0739   -2.0241    3.9809 C   0  0  1  0  0  0  0  0  0  0  0  0
    3.8117   -2.7696    3.7250 H   0  0  0  0  0  0  0  0  0  0  0  0
    3.2509   -1.9263    5.5283 C   0  0  0  0  0  0  0  0  0  0  0  0
    4.4770   -2.0264    6.0423 C   0  0  0  0  0  0  0  0  0  0  0  0
    4.8378   -1.8883    7.4965 C   0  0  0  0  0  0  0  0  0  0  0  0
    4.3044   -0.5819    8.1004 C   0  0  0  0  0  0  0  0  0  0  0  0
    4.2872   -3.0672    8.3032 C   0  0  0  0  0  0  0  0  0  0  0  0
    6.3685   -1.9012    7.5060 C   0  0  0  0  0  0  0  0  0  0  0  0
    2.0048   -2.7132    3.3019 O   0  0  0  0  0  0  0  0  0  0  0  0
    4.7142   -0.5171    3.3691 O   0  0  0  0  0  0  0  0  0  0  0  0
    2.5444    1.5824    3.3928 O   0  0  0  0  0  0  0  0  0  0  0  0
    0.3533   -1.4320    5.3378 C   0  0  0  0  0  0  0  0  0  0  0  0
   -0.2069   -1.0923    6.3550 O   0  0  0  0  0  0  0  0  0  0  0  0
    0.7272   -2.7783    5.1416 N   0  0  0  0  0  0  0  0  0  0  0  0
    0.9914   -4.0143    5.9012 C   0  0  0  0  0  0  0  0  0  0  0  0
    2.1138   -4.9098    5.1904 C   0  0  0  0  0  0  0  0  0  0  0  0
    2.0827   -6.1232    5.9211 O   0  0  0  0  0  0  0  0  0  0  0  0
    2.8826   -7.0887    5.3918 C   0  0  0  0  0  0  0  0  0  0  0  0
    2.3760   -7.9279    4.3996 C   0  0  0  0  0  0  0  0  0  0  0  0
    1.0693   -7.6829    3.7095 C   0  0  0  0  0  0  0  0  0  0  0  0
    3.1093   -9.0645    4.0687 C   0  0  0  0  0  0  0  0  0  0  0  0
    4.3229   -9.3452    4.7062 C   0  0  0  0  0  0  0  0  0  0  0  0
    4.8281   -8.4735    5.6741 C   0  0  0  0  0  0  0  0  0  0  0  0
    4.1062   -7.3396    6.0275 C   0  0  0  0  0  0  0  0  0  0  0  0
    4.6336   -6.3989    7.0602 C   0  0  0  0  0  0  0  0  0  0  0  0
    5.0754  -10.5863    4.3590 C   0  0  0  0  0  0  0  0  0  0  0  0
   -0.0009   -1.0158    0.8196 H   0  0  0  0  0  0  0  0  0  0  0  0
   -0.4247   -2.0341    2.2004 H   0  0  0  0  0  0  0  0  0  0  0  0
    1.2667   -1.7937    1.5927 H   0  0  0  0  0  0  0  0  0  0  0  0
    2.4870   -1.7014    6.2798 H   0  0  0  0  0  0  0  0  0  0  0  0
    5.2871   -2.1659    5.3309 H   0  0  0  0  0  0  0  0  0  0  0  0
    3.2076   -0.5621    8.1273 H   0  0  0  0  0  0  0  0  0  0  0  0
    4.6342    0.2873    7.5220 H   0  0  0  0  0  0  0  0  0  0  0  0
    4.6501   -0.4613    9.1326 H   0  0  0  0  0  0  0  0  0  0  0  0
    3.1916   -3.1049    8.2921 H   0  0  0  0  0  0  0  0  0  0  0  0
    4.6121   -3.0331    9.3468 H   0  0  0  0  0  0  0  0  0  0  0  0
    4.6491   -4.0033    7.8941 H   0  0  0  0  0  0  0  0  0  0  0  0
    6.7617   -1.0633    6.9152 H   0  0  0  0  0  0  0  0  0  0  0  0
    6.7508   -2.8244    7.0477 H   0  0  0  0  0  0  0  0  0  0  0  0
    6.7689   -1.8313    8.5178 H   0  0  0  0  0  0  0  0  0  0  0  0
    1.0361   -2.5024    3.3881 H   0  0  0  0  0  0  0  0  0  0  0  0
    5.0591   -1.3843    3.0602 H   0  0  0  0  0  0  0  0  0  0  0  0
    2.2085    2.3112    3.9403 H   0  0  0  0  0  0  0  0  0  0  0  0
    1.5538   -2.8871    4.6344 H   0  0  0  0  0  0  0  0  0  0  0  0
    0.0711   -4.5835    5.8641 H   0  0  0  0  0  0  0  0  0  0  0  0
    1.3315   -3.8193    6.9209 H   0  0  0  0  0  0  0  0  0  0  0  0
    3.1351   -4.4935    5.2188 H   0  0  0  0  0  0  0  0  0  0  0  0
    1.9101   -5.0516    4.1142 H   0  0  0  0  0  0  0  0  0  0  0  0
    0.5730   -6.7694    4.0444 H   0  0  0  0  0  0  0  0  0  0  0  0
    0.3827   -8.5105    3.9023 H   0  0  0  0  0  0  0  0  0  0  0  0
    1.2403   -7.5847    2.6324 H   0  0  0  0  0  0  0  0  0  0  0  0
    2.7133   -9.7549    3.3276 H   0  0  0  0  0  0  0  0  0  0  0  0
    5.7701   -8.6921    6.1725 H   0  0  0  0  0  0  0  0  0  0  0  0
    5.5798   -6.7328    7.4947 H   0  0  0  0  0  0  0  0  0  0  0  0
    3.9120   -6.2710    7.8743 H   0  0  0  0  0  0  0  0  0  0  0  0
    4.8253   -5.4435    6.5659 H   0  0  0  0  0  0  0  0  0  0  0  0
    4.5426  -11.1598    3.5949 H   0  0  0  0  0  0  0  0  0  0  0  0
    5.1813  -11.2150    5.2476 H   0  0  0  0  0  0  0  0  0  0  0  0
    6.0592  -10.3181    3.9660 H   0  0  0  0  0  0  0  0  0  0  0  0
  1  2  1  0  0  0  0
  1 35  1  0  0  0  0
  1 36  1  0  0  0  0
  1 37  1  0  0  0  0
  3  5  1  0  0  0  0
  3 20  1  0  0  0  0
  3  4  1  1  0  0  0
  3  2  1  0  0  0  0
  5  6  1  1  0  0  0
  5 19  1  0  0  0  0
  7  9  1  0  0  0  0
  7 18  1  0  0  0  0
  7  8  1  6  0  0  0
  7  5  1  0  0  0  0
  9 10  1  6  0  0  0
  9 11  1  0  0  0  0
  9 17  1  0  0  0  0
 11 12  2  0  0  0  0
 11 38  1  0  0  0  0
 12 13  1  0  0  0  0
 12 39  1  0  0  0  0
 13 14  1  0  0  0  0
 13 15  1  0  0  0  0
 13 16  1  0  0  0  0
 14 40  1  0  0  0  0
 14 41  1  0  0  0  0
 14 42  1  0  0  0  0
 15 43  1  0  0  0  0
 15 44  1  0  0  0  0
 15 45  1  0  0  0  0
 16 46  1  0  0  0  0
 16 47  1  0  0  0  0
 16 48  1  0  0  0  0
 17 49  1  0  0  0  0
 18 50  1  0  0  0  0
 19 51  1  0  0  0  0
 20 21  2  0  0  0  0
 20 22  1  0  0  0  0
 22 23  1  0  0  0  0
 22 52  1  0  0  0  0
 23 24  1  0  0  0  0
 23 53  1  0  0  0  0
 23 54  1  0  0  0  0
 24 25  1  0  0  0  0
 24 55  1  0  0  0  0
 24 56  1  0  0  0  0
 25 26  1  0  0  0  0
 26 27  2  0  0  0  0
 26 32  1  0  0  0  0
 27 28  1  0  0  0  0
 27 29  1  0  0  0  0
 28 57  1  0  0  0  0
 28 58  1  0  0  0  0
 28 59  1  0  0  0  0
 29 30  2  0  0  0  0
 29 60  1  0  0  0  0
 30 31  1  0  0  0  0
 30 34  1  0  0  0  0
 31 32  2  0  0  0  0
 31 61  1  0  0  0  0
 32 33  1  0  0  0  0
 33 62  1  0  0  0  0
 33 63  1  0  0  0  0
 33 64  1  0  0  0  0
 34 65  1  0  0  0  0
 34 66  1  0  0  0  0
 34 67  1  0  0  0  0
M  END
$$$$
