Y08
 OpenBabel04121316213D

 68 69  0  0  1  0  0  0  0  0999 V2000
    3.4598   10.2675   -4.7701 C   0  0  0  0  0  0  0  0  0  0  0  0
    2.0590   10.2116   -4.6585 O   0  0  0  0  0  0  0  0  0  0  0  0
    1.3805    9.6116   -5.7829 C   0  0  2  0  0  0  0  0  0  0  0  0
    1.3358   10.4077   -6.5383 H   0  0  0  0  0  0  0  0  0  0  0  0
   -0.1819    9.5200   -5.2031 C   0  0  1  0  0  0  0  0  0  0  0  0
   -0.8530    9.1325   -5.9764 H   0  0  0  0  0  0  0  0  0  0  0  0
   -0.2414    8.6862   -3.9161 C   0  0  2  0  0  0  0  0  0  0  0  0
    0.2886    9.1555   -3.0781 H   0  0  0  0  0  0  0  0  0  0  0  0
    0.4933    7.4898   -4.3018 C   0  0  1  0  0  0  0  0  0  0  0  0
    0.3151    6.8522   -3.4871 H   0  0  0  0  0  0  0  0  0  0  0  0
   -0.1182    6.7620   -5.5875 C   0  0  0  0  0  0  0  0  0  0  0  0
   -1.2234    6.0035   -5.5139 C   0  0  0  0  0  0  0  0  0  0  0  0
   -1.9750    5.3831   -6.6756 C   0  0  0  0  0  0  0  0  0  0  0  0
   -2.2984    6.4496   -7.7375 C   0  0  0  0  0  0  0  0  0  0  0  0
   -1.1759    4.2360   -7.3125 C   0  0  0  0  0  0  0  0  0  0  0  0
   -3.2868    4.8367   -6.0907 C   0  0  0  0  0  0  0  0  0  0  0  0
    1.8836    7.7833   -4.1043 O   0  0  0  0  0  0  0  0  0  0  0  0
   -1.4783    8.1917   -3.3772 O   0  0  0  0  0  0  0  0  0  0  0  0
   -0.7286   10.7841   -4.7778 O   0  0  0  0  0  0  0  0  0  0  0  0
    2.1220    8.2238   -6.6858 C   0  0  0  0  0  0  0  0  0  0  0  0
    2.2982    8.3068   -7.9061 O   0  0  0  0  0  0  0  0  0  0  0  0
    2.4791    7.0516   -6.0021 N   0  0  0  0  0  0  0  0  0  0  0  0
    2.6328    5.5885   -6.0921 C   0  0  0  0  0  0  0  0  0  0  0  0
    2.2543    4.6741   -4.7403 C   0  0  2  0  0  0  0  0  0  0  0  0
    1.6279    3.8497   -5.1100 H   0  0  0  0  0  0  0  0  0  0  0  0
    1.5274    5.1387   -3.4651 C   0  0  0  0  0  0  0  0  0  0  0  0
    1.3707    4.2194   -2.2772 C   0  0  0  0  0  0  0  0  0  0  0  0
    2.7326    3.7467   -1.8818 C   0  0  0  0  0  0  0  0  0  0  0  0
    3.3948    3.2135   -3.0655 N   0  0  0  0  0  0  0  0  0  0  0  0
    3.5605    4.1252   -4.2084 C   0  0  0  0  0  0  0  0  0  0  0  0
    3.7324    1.8848   -3.0900 C   0  0  0  0  0  0  0  0  0  0  0  0
    3.4837    1.0915   -2.1582 O   0  0  0  0  0  0  0  0  0  0  0  0
    4.4045    1.3729   -4.3037 C   0  0  0  0  0  0  0  0  0  0  0  0
    5.6142    2.1014   -4.8750 C   0  0  0  0  0  0  0  0  0  0  0  0
    5.7898    0.7757   -4.2204 C   0  0  0  0  0  0  0  0  0  0  0  0
    3.8665   10.5321   -3.7873 H   0  0  0  0  0  0  0  0  0  0  0  0
    3.7314   11.0283   -5.4985 H   0  0  0  0  0  0  0  0  0  0  0  0
    3.8708    9.2948   -5.0393 H   0  0  0  0  0  0  0  0  0  0  0  0
    0.2483    6.8555   -6.6168 H   0  0  0  0  0  0  0  0  0  0  0  0
   -1.6702    5.8858   -4.5333 H   0  0  0  0  0  0  0  0  0  0  0  0
   -1.3902    6.8523   -8.2012 H   0  0  0  0  0  0  0  0  0  0  0  0
   -2.8385    7.2934   -7.2918 H   0  0  0  0  0  0  0  0  0  0  0  0
   -2.9163    6.0398   -8.5438 H   0  0  0  0  0  0  0  0  0  0  0  0
   -0.2375    4.5934   -7.7515 H   0  0  0  0  0  0  0  0  0  0  0  0
   -1.7475    3.7557   -8.1159 H   0  0  0  0  0  0  0  0  0  0  0  0
   -0.9232    3.4653   -6.5752 H   0  0  0  0  0  0  0  0  0  0  0  0
   -3.8602    5.6394   -5.6091 H   0  0  0  0  0  0  0  0  0  0  0  0
   -3.0862    4.0764   -5.3247 H   0  0  0  0  0  0  0  0  0  0  0  0
   -3.9187    4.3843   -6.8597 H   0  0  0  0  0  0  0  0  0  0  0  0
    2.1852    8.1934   -3.2769 H   0  0  0  0  0  0  0  0  0  0  0  0
   -1.2455    7.4036   -2.8326 H   0  0  0  0  0  0  0  0  0  0  0  0
   -0.9074   11.3188   -5.5614 H   0  0  0  0  0  0  0  0  0  0  0  0
    2.5855    7.2249   -5.0281 H   0  0  0  0  0  0  0  0  0  0  0  0
    3.7117    5.5025   -6.2412 H   0  0  0  0  0  0  0  0  0  0  0  0
    2.1066    5.1874   -6.9616 H   0  0  0  0  0  0  0  0  0  0  0  0
    0.4757    5.2141   -3.6981 H   0  0  0  0  0  0  0  0  0  0  0  0
    2.0393    6.0046   -3.0287 H   0  0  0  0  0  0  0  0  0  0  0  0
    0.7036    3.4035   -2.5695 H   0  0  0  0  0  0  0  0  0  0  0  0
    0.8805    4.7635   -1.4534 H   0  0  0  0  0  0  0  0  0  0  0  0
    2.6213    3.0123   -1.0805 H   0  0  0  0  0  0  0  0  0  0  0  0
    3.3308    4.5837   -1.5021 H   0  0  0  0  0  0  0  0  0  0  0  0
    4.0064    3.6446   -5.0671 H   0  0  0  0  0  0  0  0  0  0  0  0
    4.2110    4.9433   -3.8798 H   0  0  0  0  0  0  0  0  0  0  0  0
    3.7166    0.8768   -4.9813 H   0  0  0  0  0  0  0  0  0  0  0  0
    5.9863    2.9722   -4.3415 H   0  0  0  0  0  0  0  0  0  0  0  0
    5.6491    2.2096   -5.9530 H   0  0  0  0  0  0  0  0  0  0  0  0
    6.2795    0.7641   -3.2539 H   0  0  0  0  0  0  0  0  0  0  0  0
    6.0329   -0.0628   -4.8578 H   0  0  0  0  0  0  0  0  0  0  0  0
  1  2  1  0  0  0  0
  1 36  1  0  0  0  0
  1 37  1  0  0  0  0
  1 38  1  0  0  0  0
  3  5  1  0  0  0  0
  3 20  1  0  0  0  0
  3  4  1  6  0  0  0
  3  2  1  0  0  0  0
  5  6  1  6  0  0  0
  5 19  1  0  0  0  0
  7  9  1  0  0  0  0
  7 18  1  0  0  0  0
  7  8  1  1  0  0  0
  7  5  1  0  0  0  0
  9 10  1  1  0  0  0
  9 11  1  0  0  0  0
  9 17  1  0  0  0  0
 11 12  2  0  0  0  0
 11 39  1  0  0  0  0
 12 13  1  0  0  0  0
 12 40  1  0  0  0  0
 13 14  1  0  0  0  0
 13 15  1  0  0  0  0
 13 16  1  0  0  0  0
 14 41  1  0  0  0  0
 14 42  1  0  0  0  0
 14 43  1  0  0  0  0
 15 44  1  0  0  0  0
 15 45  1  0  0  0  0
 15 46  1  0  0  0  0
 16 47  1  0  0  0  0
 16 48  1  0  0  0  0
 16 49  1  0  0  0  0
 17 50  1  0  0  0  0
 18 51  1  0  0  0  0
 19 52  1  0  0  0  0
 20 21  2  0  0  0  0
 20 22  1  0  0  0  0
 22 23  1  0  0  0  0
 22 53  1  0  0  0  0
 23 54  1  0  0  0  0
 23 55  1  0  0  0  0
 24 26  1  0  0  0  0
 24 30  1  0  0  0  0
 24 25  1  6  0  0  0
 24 23  1  0  0  0  0
 26 27  1  0  0  0  0
 26 56  1  0  0  0  0
 26 57  1  0  0  0  0
 27 28  1  0  0  0  0
 27 58  1  0  0  0  0
 27 59  1  0  0  0  0
 28 29  1  0  0  0  0
 28 60  1  0  0  0  0
 28 61  1  0  0  0  0
 29 30  1  0  0  0  0
 29 31  1  0  0  0  0
 30 62  1  0  0  0  0
 30 63  1  0  0  0  0
 31 32  2  0  0  0  0
 31 33  1  0  0  0  0
 33 34  1  0  0  0  0
 33 35  1  0  0  0  0
 33 64  1  0  0  0  0
 34 35  1  0  0  0  0
 34 65  1  0  0  0  0
 34 66  1  0  0  0  0
 35 67  1  0  0  0  0
 35 68  1  0  0  0  0
M  END
$$$$
