YAK
 OpenBabel04121316213D

 59 63  0  0  1  0  0  0  0  0999 V2000
    0.8469    0.0420    0.0728 F   0  0  0  0  0  0  0  0  0  0  0  0
    2.1834    0.0458    0.0003 C   0  0  0  0  0  0  0  0  0  0  0  0
    2.8699    1.2548   -0.0099 C   0  0  0  0  0  0  0  0  0  0  0  0
    4.2460    1.2651   -0.2396 C   0  0  0  0  0  0  0  0  0  0  0  0
    4.9488    0.0585   -0.3551 C   0  0  0  0  0  0  0  0  0  0  0  0
    4.2466   -1.1487   -0.1760 C   0  0  0  0  0  0  0  0  0  0  0  0
    2.8611   -1.1593   -0.0710 C   0  0  0  0  0  0  0  0  0  0  0  0
    6.4271    0.0947   -0.6957 C   0  0  0  0  0  0  0  0  0  0  0  0
    6.9983   -1.2426   -0.7091 N   0  0  0  0  0  0  0  0  0  0  0  0
    7.3832   -1.8882   -1.9574 C   0  0  1  0  0  0  0  0  0  0  0  0
    6.7623   -1.5031   -2.7757 H   0  0  0  0  0  0  0  0  0  0  0  0
    8.8672   -1.6333   -2.2128 C   0  0  0  0  0  0  0  0  0  0  0  0
    9.4079   -2.8464   -2.9413 C   0  0  0  0  0  0  0  0  0  0  0  0
    8.3962   -3.9627   -2.7828 C   0  0  0  0  0  0  0  0  0  0  0  0
    7.2589   -3.4179   -1.9147 C   0  0  1  0  0  0  0  0  0  0  0  0
    6.2814   -3.7405   -2.3000 H   0  0  0  0  0  0  0  0  0  0  0  0
    7.3970   -3.9855   -0.5411 C   0  0  0  0  0  0  0  0  0  0  0  0
    7.5116   -3.2245    0.5724 C   0  0  0  0  0  0  0  0  0  0  0  0
    7.4550   -1.7359    0.4969 C   0  0  0  0  0  0  0  0  0  0  0  0
    7.6903   -1.0019    1.4490 O   0  0  0  0  0  0  0  0  0  0  0  0
    7.5783   -3.8480    1.9145 C   0  0  0  0  0  0  0  0  0  0  0  0
    7.7186   -3.1844    3.0032 N   0  0  0  0  0  0  0  0  0  0  0  0
    7.7374   -3.8013    4.2440 C   0  0  0  0  0  0  0  0  0  0  0  0
    7.8613   -2.9774    5.3501 C   0  0  0  0  0  0  0  0  0  0  0  0
    7.8904   -3.5370    6.6221 C   0  0  0  0  0  0  0  0  0  0  0  0
    7.7963   -4.9230    6.8136 C   0  0  0  0  0  0  0  0  0  0  0  0
    7.6676   -5.7495    5.7190 C   0  0  0  0  0  0  0  0  0  0  0  0
    7.6452   -5.1702    4.4624 C   0  0  0  0  0  0  0  0  0  0  0  0
    7.5088   -6.2445    3.1271 S   0  0  0  0  0  0  0  0  0  0  0  0
    8.7373   -6.9846    3.0028 O   0  0  0  0  0  0  0  0  0  0  0  0
    6.2200   -6.9094    3.1995 O   0  0  0  0  0  0  0  0  0  0  0  0
    7.4316   -5.2231    1.8865 N   0  0  0  0  0  0  0  0  0  0  0  0
    7.8310   -5.5399    8.0922 N   0  0  0  0  0  0  0  0  0  0  0  0
    7.9910   -4.5855    9.4470 S   0  0  0  0  0  0  0  0  0  0  0  0
    9.3017   -3.9735    9.3967 O   0  0  0  0  0  0  0  0  0  0  0  0
    6.7901   -3.7850    9.5585 O   0  0  0  0  0  0  0  0  0  0  0  0
    7.9902   -5.7438   10.7818 C   0  0  0  0  0  0  0  0  0  0  0  0
    7.3947   -5.3838   -0.4968 O   0  0  0  0  0  0  0  0  0  0  0  0
    2.3269    2.1810    0.1416 H   0  0  0  0  0  0  0  0  0  0  0  0
    4.7674    2.2157   -0.3307 H   0  0  0  0  0  0  0  0  0  0  0  0
    4.7623   -2.1024   -0.1281 H   0  0  0  0  0  0  0  0  0  0  0  0
    2.3193   -2.0984   -0.0449 H   0  0  0  0  0  0  0  0  0  0  0  0
    6.9432    0.7122    0.0500 H   0  0  0  0  0  0  0  0  0  0  0  0
    6.5720    0.5590   -1.6763 H   0  0  0  0  0  0  0  0  0  0  0  0
    9.4169   -1.5107   -1.2705 H   0  0  0  0  0  0  0  0  0  0  0  0
    9.0204   -0.7133   -2.7825 H   0  0  0  0  0  0  0  0  0  0  0  0
   10.3738   -3.1414   -2.5152 H   0  0  0  0  0  0  0  0  0  0  0  0
    9.5571   -2.6355   -4.0017 H   0  0  0  0  0  0  0  0  0  0  0  0
    8.9042   -4.8343   -2.3485 H   0  0  0  0  0  0  0  0  0  0  0  0
    8.0148   -4.2869   -3.7553 H   0  0  0  0  0  0  0  0  0  0  0  0
    7.9394   -1.8978    5.2321 H   0  0  0  0  0  0  0  0  0  0  0  0
    7.9919   -2.8462    7.4518 H   0  0  0  0  0  0  0  0  0  0  0  0
    7.5902   -6.8291    5.7987 H   0  0  0  0  0  0  0  0  0  0  0  0
    7.3811   -5.6987    0.9900 H   0  0  0  0  0  0  0  0  0  0  0  0
    7.7648   -6.5529    8.1591 H   0  0  0  0  0  0  0  0  0  0  0  0
    8.8421   -6.4160   10.6775 H   0  0  0  0  0  0  0  0  0  0  0  0
    7.0428   -6.2829   10.7917 H   0  0  0  0  0  0  0  0  0  0  0  0
    8.0919   -5.1534   11.6958 H   0  0  0  0  0  0  0  0  0  0  0  0
    7.3650   -5.7771   -1.3887 H   0  0  0  0  0  0  0  0  0  0  0  0
  1  2  1  0  0  0  0
  2  3  2  0  0  0  0
  2  7  1  0  0  0  0
  3  4  1  0  0  0  0
  3 39  1  0  0  0  0
  4  5  2  0  0  0  0
  4 40  1  0  0  0  0
  5  6  1  0  0  0  0
  5  8  1  0  0  0  0
  6  7  2  0  0  0  0
  6 41  1  0  0  0  0
  7 42  1  0  0  0  0
  8  9  1  0  0  0  0
  8 43  1  0  0  0  0
  8 44  1  0  0  0  0
  9 10  1  0  0  0  0
  9 19  1  0  0  0  0
 10 11  1  6  0  0  0
 10 12  1  0  0  0  0
 10 15  1  0  0  0  0
 12 13  1  0  0  0  0
 12 45  1  0  0  0  0
 12 46  1  0  0  0  0
 13 14  1  0  0  0  0
 13 47  1  0  0  0  0
 13 48  1  0  0  0  0
 14 15  1  0  0  0  0
 14 49  1  0  0  0  0
 14 50  1  0  0  0  0
 15 16  1  6  0  0  0
 15 17  1  0  0  0  0
 17 18  2  0  0  0  0
 17 38  1  0  0  0  0
 18 19  1  0  0  0  0
 18 21  1  0  0  0  0
 19 20  2  0  0  0  0
 21 22  2  0  0  0  0
 21 32  1  0  0  0  0
 22 23  1  0  0  0  0
 23 24  2  0  0  0  0
 23 28  1  0  0  0  0
 24 25  1  0  0  0  0
 24 51  1  0  0  0  0
 25 26  2  0  0  0  0
 25 52  1  0  0  0  0
 26 27  1  0  0  0  0
 26 33  1  0  0  0  0
 27 28  2  0  0  0  0
 27 53  1  0  0  0  0
 28 29  1  0  0  0  0
 29 30  2  0  0  0  0
 29 31  2  0  0  0  0
 29 32  1  0  0  0  0
 32 54  1  0  0  0  0
 33 34  1  0  0  0  0
 33 55  1  0  0  0  0
 34 35  2  0  0  0  0
 34 36  2  0  0  0  0
 34 37  1  0  0  0  0
 37 56  1  0  0  0  0
 37 57  1  0  0  0  0
 37 58  1  0  0  0  0
 38 59  1  0  0  0  0
M  END
$$$$
