YDP
 OpenBabel04121316213D

 78 80  0  0  1  0  0  0  0  0999 V2000
    0.9327    0.0234   -0.1907 C   0  0  0  0  0  0  0  0  0  0  0  0
    2.4213   -0.0504   -0.1658 C   0  0  0  0  0  0  0  0  0  0  0  0
    3.0872   -0.4845    0.9076 C   0  0  0  0  0  0  0  0  0  0  0  0
    2.5228   -0.7276    2.2378 C   0  0  0  0  0  0  0  0  0  0  0  0
    3.5459   -0.8483    3.3105 N   0  0  0  0  0  0  0  0  0  0  0  0
    4.7693    0.3573    3.5744 S   0  0  0  0  0  0  0  0  0  0  0  0
    4.0799    1.5936    3.8726 O   0  0  0  0  0  0  0  0  0  0  0  0
    5.7279   -0.1858    4.4941 O   0  0  0  0  0  0  0  0  0  0  0  0
    5.6256    0.8239    2.1396 C   0  0  0  0  0  0  0  0  0  0  0  0
    5.6080    2.1830    1.7659 C   0  0  0  0  0  0  0  0  0  0  0  0
    5.9912    2.5353    0.4894 C   0  0  0  0  0  0  0  0  0  0  0  0
    6.4777    1.5379   -0.3591 C   0  0  0  0  0  0  0  0  0  0  0  0
    6.6143    0.2087    0.0944 C   0  0  0  0  0  0  0  0  0  0  0  0
    6.1847   -0.1585    1.3550 C   0  0  0  0  0  0  0  0  0  0  0  0
    6.7777    1.9187   -1.7572 C   0  0  0  0  0  0  0  0  0  0  0  0
    6.6481    3.0683   -2.1556 O   0  0  0  0  0  0  0  0  0  0  0  0
    7.1846    0.9242   -2.5956 N   0  0  0  0  0  0  0  0  0  0  0  0
    2.7783   -1.2519    4.5994 C   0  0  1  0  0  0  0  0  0  0  0  0
    1.6971   -1.3211    4.3903 H   0  0  0  0  0  0  0  0  0  0  0  0
    3.2241   -2.6492    5.0760 C   0  0  0  0  0  0  0  0  0  0  0  0
    2.8708   -2.6700    6.4839 N   0  0  0  0  0  0  0  0  0  0  0  0
    3.1544   -1.3258    6.9586 C   0  0  0  0  0  0  0  0  0  0  0  0
    2.9730   -0.3203    5.8331 C   0  0  2  0  0  0  0  0  0  0  0  0
    3.9084    0.2189    5.8067 H   0  0  0  0  0  0  0  0  0  0  0  0
    1.8690    0.7660    6.0738 N   0  0  0  0  0  0  0  0  0  0  0  0
    2.3594    1.9327    7.3114 S   0  0  0  0  0  0  0  0  0  0  0  0
    3.7214    2.3266    7.0147 O   0  0  0  0  0  0  0  0  0  0  0  0
    1.3091    2.9102    7.4825 O   0  0  0  0  0  0  0  0  0  0  0  0
    2.3767    1.0216    8.8115 C   0  0  0  0  0  0  0  0  0  0  0  0
    3.4785    1.1411    9.6543 C   0  0  0  0  0  0  0  0  0  0  0  0
    3.6267    0.2313   10.6954 C   0  0  0  0  0  0  0  0  0  0  0  0
    2.6447   -0.7451   10.9297 C   0  0  0  0  0  0  0  0  0  0  0  0
    1.4847   -0.7692   10.1407 C   0  0  0  0  0  0  0  0  0  0  0  0
    1.3509    0.1103    9.0702 C   0  0  0  0  0  0  0  0  0  0  0  0
    2.8961   -1.7437   12.0035 C   0  0  0  0  0  0  0  0  0  0  0  0
    3.9130   -1.7103   12.6851 O   0  0  0  0  0  0  0  0  0  0  0  0
    1.9611   -2.7199   12.1999 N   0  0  0  0  0  0  0  0  0  0  0  0
    1.7062    1.5601    4.8284 C   0  0  0  0  0  0  0  0  0  0  0  0
    0.5805    2.4866    4.6991 C   0  0  0  0  0  0  0  0  0  0  0  0
    0.5118    3.3215    3.6405 C   0  0  0  0  0  0  0  0  0  0  0  0
    1.3814    3.2592    2.3968 C   0  0  0  0  0  0  0  0  0  0  0  0
   -0.4627    4.4454    3.7190 C   0  0  0  0  0  0  0  0  0  0  0  0
    3.2025    0.3127   -1.3903 C   0  0  0  0  0  0  0  0  0  0  0  0
    0.4843   -0.2555    0.7689 H   0  0  0  0  0  0  0  0  0  0  0  0
    0.5623   -0.6989   -0.9226 H   0  0  0  0  0  0  0  0  0  0  0  0
    0.5952    1.0312   -0.4309 H   0  0  0  0  0  0  0  0  0  0  0  0
    4.1249   -0.6532    0.7700 H   0  0  0  0  0  0  0  0  0  0  0  0
    1.9477   -1.6627    2.1853 H   0  0  0  0  0  0  0  0  0  0  0  0
    1.8103    0.0626    2.4441 H   0  0  0  0  0  0  0  0  0  0  0  0
    5.2338    2.9601    2.4363 H   0  0  0  0  0  0  0  0  0  0  0  0
    5.8665    3.5647    0.1551 H   0  0  0  0  0  0  0  0  0  0  0  0
    6.9722   -0.5920   -0.5353 H   0  0  0  0  0  0  0  0  0  0  0  0
    6.1017   -1.2039    1.6457 H   0  0  0  0  0  0  0  0  0  0  0  0
    7.2828   -0.0433   -2.3380 H   0  0  0  0  0  0  0  0  0  0  0  0
    7.4245    1.1862   -3.5395 H   0  0  0  0  0  0  0  0  0  0  0  0
    4.2977   -2.8071    4.9496 H   0  0  0  0  0  0  0  0  0  0  0  0
    2.6893   -3.4572    4.5630 H   0  0  0  0  0  0  0  0  0  0  0  0
    3.4107   -3.3457    7.0229 H   0  0  0  0  0  0  0  0  0  0  0  0
    4.1669   -1.2374    7.3702 H   0  0  0  0  0  0  0  0  0  0  0  0
    2.4427   -1.1919    7.7312 H   0  0  0  0  0  0  0  0  0  0  0  0
    4.2278    1.9119    9.4830 H   0  0  0  0  0  0  0  0  0  0  0  0
    4.5217    0.2750   11.3134 H   0  0  0  0  0  0  0  0  0  0  0  0
    0.6975   -1.4981   10.2844 H   0  0  0  0  0  0  0  0  0  0  0  0
    0.5500   -0.0442    8.3450 H   0  0  0  0  0  0  0  0  0  0  0  0
    1.1186   -2.8324   11.6607 H   0  0  0  0  0  0  0  0  0  0  0  0
    2.1360   -3.3856   12.9398 H   0  0  0  0  0  0  0  0  0  0  0  0
    1.6237    0.8935    3.9950 H   0  0  0  0  0  0  0  0  0  0  0  0
    2.5317    2.2559    4.7713 H   0  0  0  0  0  0  0  0  0  0  0  0
   -0.0528    2.6271    5.5634 H   0  0  0  0  0  0  0  0  0  0  0  0
    2.1301    2.4623    2.4151 H   0  0  0  0  0  0  0  0  0  0  0  0
    1.9320    4.1927    2.2345 H   0  0  0  0  0  0  0  0  0  0  0  0
    0.7569    3.0648    1.5186 H   0  0  0  0  0  0  0  0  0  0  0  0
   -0.9585    4.4564    4.6962 H   0  0  0  0  0  0  0  0  0  0  0  0
   -1.2219    4.3218    2.9474 H   0  0  0  0  0  0  0  0  0  0  0  0
    0.0476    5.4061    3.6046 H   0  0  0  0  0  0  0  0  0  0  0  0
    2.5502    0.5376   -2.2335 H   0  0  0  0  0  0  0  0  0  0  0  0
    3.8752   -0.5050   -1.6728 H   0  0  0  0  0  0  0  0  0  0  0  0
    3.8083    1.2038   -1.1936 H   0  0  0  0  0  0  0  0  0  0  0  0
  1  2  1  0  0  0  0
  1 44  1  0  0  0  0
  1 45  1  0  0  0  0
  1 46  1  0  0  0  0
  2  3  2  0  0  0  0
  2 43  1  0  0  0  0
  3  4  1  0  0  0  0
  3 47  1  0  0  0  0
  4  5  1  0  0  0  0
  4 48  1  0  0  0  0
  4 49  1  0  0  0  0
  5  6  1  0  0  0  0
  5 18  1  0  0  0  0
  6  7  2  0  0  0  0
  6  8  2  0  0  0  0
  6  9  1  0  0  0  0
  9 10  2  0  0  0  0
  9 14  1  0  0  0  0
 10 11  1  0  0  0  0
 10 50  1  0  0  0  0
 11 12  2  0  0  0  0
 11 51  1  0  0  0  0
 12 13  1  0  0  0  0
 12 15  1  0  0  0  0
 13 14  2  0  0  0  0
 13 52  1  0  0  0  0
 14 53  1  0  0  0  0
 15 16  2  0  0  0  0
 15 17  1  0  0  0  0
 17 54  1  0  0  0  0
 17 55  1  0  0  0  0
 18 19  1  6  0  0  0
 18 20  1  0  0  0  0
 18 23  1  0  0  0  0
 20 21  1  0  0  0  0
 20 56  1  0  0  0  0
 20 57  1  0  0  0  0
 21 22  1  0  0  0  0
 21 58  1  0  0  0  0
 22 23  1  0  0  0  0
 22 59  1  0  0  0  0
 22 60  1  0  0  0  0
 23 24  1  6  0  0  0
 23 25  1  0  0  0  0
 25 26  1  0  0  0  0
 25 38  1  0  0  0  0
 26 27  2  0  0  0  0
 26 28  2  0  0  0  0
 26 29  1  0  0  0  0
 29 30  2  0  0  0  0
 29 34  1  0  0  0  0
 30 31  1  0  0  0  0
 30 61  1  0  0  0  0
 31 32  2  0  0  0  0
 31 62  1  0  0  0  0
 32 33  1  0  0  0  0
 32 35  1  0  0  0  0
 33 34  2  0  0  0  0
 33 63  1  0  0  0  0
 34 64  1  0  0  0  0
 35 36  2  0  0  0  0
 35 37  1  0  0  0  0
 37 65  1  0  0  0  0
 37 66  1  0  0  0  0
 38 39  1  0  0  0  0
 38 67  1  0  0  0  0
 38 68  1  0  0  0  0
 39 40  2  0  0  0  0
 39 69  1  0  0  0  0
 40 41  1  0  0  0  0
 40 42  1  0  0  0  0
 41 70  1  0  0  0  0
 41 71  1  0  0  0  0
 41 72  1  0  0  0  0
 42 73  1  0  0  0  0
 42 74  1  0  0  0  0
 42 75  1  0  0  0  0
 43 76  1  0  0  0  0
 43 77  1  0  0  0  0
 43 78  1  0  0  0  0
M  END
$$$$
