YES
 OpenBabel04121316213D

 34 33  0  0  0  0  0  0  0  0999 V2000
    0.8598    0.5359   -0.1454 O   0  0  0  0  0  0  0  0  0  0  0  0
    2.2534    0.2931   -0.0645 C   0  0  0  0  0  0  0  0  0  0  0  0
    2.9503    0.2856   -1.4221 C   0  0  0  0  0  0  0  0  0  0  0  0
    4.5243    0.0917   -1.4049 C   0  0  0  0  0  0  0  0  0  0  0  0
    5.0714   -1.2889   -0.7428 C   0  0  0  0  0  0  0  0  0  0  0  0
    4.5321   -2.5099   -1.5293 C   0  0  0  0  0  0  0  0  0  0  0  0
    3.1205   -2.6334   -1.5537 O   0  0  0  0  0  0  0  0  0  0  0  0
    6.6440   -1.3813   -0.6696 C   0  0  0  0  0  0  0  0  0  0  0  0
    7.3252   -2.0136   -1.7405 O   0  0  0  0  0  0  0  0  0  0  0  0
    4.6835   -1.3822    0.7662 C   0  0  0  0  0  0  0  0  0  0  0  0
    5.2381   -2.5211    1.4185 O   0  0  0  0  0  0  0  0  0  0  0  0
    4.9977    0.3341   -2.8790 C   0  0  0  0  0  0  0  0  0  0  0  0
    6.4805    0.6219   -3.0913 C   0  0  0  0  0  0  0  0  0  0  0  0
    6.7635    0.6752   -4.4823 O   0  0  0  0  0  0  0  0  0  0  0  0
    0.4932    0.2263    0.7067 H   0  0  0  0  0  0  0  0  0  0  0  0
    2.2761   -0.6901    0.3703 H   0  0  0  0  0  0  0  0  0  0  0  0
    2.7067    1.0243    0.6103 H   0  0  0  0  0  0  0  0  0  0  0  0
    2.7023    1.2370   -1.9141 H   0  0  0  0  0  0  0  0  0  0  0  0
    2.4779   -0.4600   -2.0717 H   0  0  0  0  0  0  0  0  0  0  0  0
    4.9219    0.9266   -0.8094 H   0  0  0  0  0  0  0  0  0  0  0  0
    4.9453   -3.4417   -1.1375 H   0  0  0  0  0  0  0  0  0  0  0  0
    4.8315   -2.4540   -2.5792 H   0  0  0  0  0  0  0  0  0  0  0  0
    2.7530   -2.5699   -0.6615 H   0  0  0  0  0  0  0  0  0  0  0  0
    6.9629   -1.9930    0.1776 H   0  0  0  0  0  0  0  0  0  0  0  0
    7.0789   -0.3927   -0.4661 H   0  0  0  0  0  0  0  0  0  0  0  0
    6.7554   -2.1041   -2.5294 H   0  0  0  0  0  0  0  0  0  0  0  0
    3.6377   -1.5284    0.9536 H   0  0  0  0  0  0  0  0  0  0  0  0
    5.0056   -0.4818    1.3039 H   0  0  0  0  0  0  0  0  0  0  0  0
    4.8247   -3.3153    1.0364 H   0  0  0  0  0  0  0  0  0  0  0  0
    4.4667    1.2041   -3.2957 H   0  0  0  0  0  0  0  0  0  0  0  0
    4.6800   -0.4953   -3.5216 H   0  0  0  0  0  0  0  0  0  0  0  0
    7.1334   -0.1387   -2.7074 H   0  0  0  0  0  0  0  0  0  0  0  0
    6.7888    1.5544   -2.6120 H   0  0  0  0  0  0  0  0  0  0  0  0
    6.7353   -0.2415   -4.8129 H   0  0  0  0  0  0  0  0  0  0  0  0
  1  2  1  0  0  0  0
  1 15  1  0  0  0  0
  2  3  1  0  0  0  0
  2 16  1  0  0  0  0
  2 17  1  0  0  0  0
  3  4  1  0  0  0  0
  3 18  1  0  0  0  0
  3 19  1  0  0  0  0
  4  5  1  0  0  0  0
  4 12  1  0  0  0  0
  4 20  1  0  0  0  0
  5  6  1  0  0  0  0
  5  8  1  0  0  0  0
  5 10  1  0  0  0  0
  6  7  1  0  0  0  0
  6 21  1  0  0  0  0
  6 22  1  0  0  0  0
  7 23  1  0  0  0  0
  8  9  1  0  0  0  0
  8 24  1  0  0  0  0
  8 25  1  0  0  0  0
  9 26  1  0  0  0  0
 10 11  1  0  0  0  0
 10 27  1  0  0  0  0
 10 28  1  0  0  0  0
 11 29  1  0  0  0  0
 12 13  1  0  0  0  0
 12 30  1  0  0  0  0
 12 31  1  0  0  0  0
 13 14  1  0  0  0  0
 13 32  1  0  0  0  0
 13 33  1  0  0  0  0
 14 34  1  0  0  0  0
M  END
$$$$
