YET
 OpenBabel04121316213D

 60 63  0  0  1  0  0  0  0  0999 V2000
    0.8959   -0.0167    0.0319 N   0  0  0  0  0  0  0  0  0  0  0  0
    2.0280    0.0128   -0.0777 C   0  0  0  0  0  0  0  0  0  0  0  0
    3.4732    0.0028   -0.1827 N   0  0  0  0  0  0  0  0  0  0  0  0
    4.0499    0.4836   -1.3407 C   0  0  0  0  0  0  0  0  0  0  0  0
    3.2755    0.9273   -2.3105 N   0  0  0  0  0  0  0  0  0  0  0  0
    3.5278    1.5283   -3.5893 C   0  0  0  0  0  0  0  0  0  0  0  0
    3.6505    0.7705   -4.7619 C   0  0  0  0  0  0  0  0  0  0  0  0
    4.1022    1.3739   -6.0177 C   0  0  0  0  0  0  0  0  0  0  0  0
    4.4512    2.8003   -6.0420 C   0  0  0  0  0  0  0  0  0  0  0  0
    4.2326    3.5935   -4.9104 C   0  0  0  0  0  0  0  0  0  0  0  0
    3.6775    2.9453   -3.7450 C   0  0  0  0  0  0  0  0  0  0  0  0
    5.0300    4.8195   -5.0704 C   0  0  0  0  0  0  0  0  0  0  0  0
    5.7288    4.7424   -6.2774 C   0  0  0  0  0  0  0  0  0  0  0  0
    5.3624    3.5152   -6.8905 O   0  0  0  0  0  0  0  0  0  0  0  0
    6.9111    5.5815   -6.7905 C   0  0  0  0  0  0  0  0  0  0  0  0
    5.4253    0.3129   -1.2104 N   0  0  0  0  0  0  0  0  0  0  0  0
    6.3854    0.8249   -2.1681 C   0  0  1  0  0  0  0  0  0  0  0  0
    7.3981    0.8494   -1.7333 H   0  0  0  0  0  0  0  0  0  0  0  0
    6.4525   -0.2105   -3.2801 C   0  0  0  0  0  0  0  0  0  0  0  0
    7.2867    0.1449   -4.4999 C   0  0  0  0  0  0  0  0  0  0  0  0
    6.7648    1.3638   -5.1236 C   0  0  0  0  0  0  0  0  0  0  0  0
    7.2755    2.6393   -4.6101 C   0  0  0  0  0  0  0  0  0  0  0  0
    7.0998    2.8785   -3.2106 N   0  0  0  0  0  0  0  0  0  0  0  0
    6.1158    2.3191   -2.4064 C   0  0  0  0  0  0  0  0  0  0  0  0
    5.3758    2.9861   -1.6748 O   0  0  0  0  0  0  0  0  0  0  0  0
    7.8161    3.9819   -2.7085 C   0  0  0  0  0  0  0  0  0  0  0  0
    7.8939    3.9716   -1.1854 C   0  0  0  0  0  0  0  0  0  0  0  0
    7.3587    3.2523   -0.3555 O   0  0  0  0  0  0  0  0  0  0  0  0
    8.9180    4.7682   -0.8378 N   0  0  0  0  0  0  0  0  0  0  0  0
    8.6614    6.0455   -0.2571 C   0  0  0  0  0  0  0  0  0  0  0  0
   10.0621    6.5848   -0.3542 C   0  0  0  0  0  0  0  0  0  0  0  0
   10.9498    5.3654   -0.0163 C   0  0  0  0  0  0  0  0  0  0  0  0
   10.0833    4.1546   -0.2790 C   0  0  0  0  0  0  0  0  0  0  0  0
    4.0147   -0.2762    0.6186 H   0  0  0  0  0  0  0  0  0  0  0  0
    3.6642   -0.3253   -4.6450 H   0  0  0  0  0  0  0  0  0  0  0  0
    4.6079    0.6609   -6.6926 H   0  0  0  0  0  0  0  0  0  0  0  0
    3.6422    3.5598   -2.8503 H   0  0  0  0  0  0  0  0  0  0  0  0
    5.3488    5.4702   -4.2555 H   0  0  0  0  0  0  0  0  0  0  0  0
    7.0674    6.4801   -6.1632 H   0  0  0  0  0  0  0  0  0  0  0  0
    6.6992    5.9388   -7.7987 H   0  0  0  0  0  0  0  0  0  0  0  0
    7.9111    5.1086   -6.8148 H   0  0  0  0  0  0  0  0  0  0  0  0
    5.8339    0.2673   -0.2811 H   0  0  0  0  0  0  0  0  0  0  0  0
    5.4289   -0.4686   -3.5531 H   0  0  0  0  0  0  0  0  0  0  0  0
    6.8390   -1.1495   -2.8833 H   0  0  0  0  0  0  0  0  0  0  0  0
    7.1785   -0.6447   -5.2460 H   0  0  0  0  0  0  0  0  0  0  0  0
    8.3218    0.3508   -4.2545 H   0  0  0  0  0  0  0  0  0  0  0  0
    5.7809    1.3921   -4.7283 H   0  0  0  0  0  0  0  0  0  0  0  0
    6.7322    1.3434   -6.2164 H   0  0  0  0  0  0  0  0  0  0  0  0
    6.5575    3.2972   -4.9715 H   0  0  0  0  0  0  0  0  0  0  0  0
    8.1475    3.0644   -5.1078 H   0  0  0  0  0  0  0  0  0  0  0  0
    7.5408    4.9461   -3.1514 H   0  0  0  0  0  0  0  0  0  0  0  0
    8.8255    3.7416   -3.0775 H   0  0  0  0  0  0  0  0  0  0  0  0
    8.3039    5.9296    0.7732 H   0  0  0  0  0  0  0  0  0  0  0  0
    7.9024    6.5845   -0.8362 H   0  0  0  0  0  0  0  0  0  0  0  0
   10.2318    7.4380    0.2965 H   0  0  0  0  0  0  0  0  0  0  0  0
   10.2442    6.8837   -1.3968 H   0  0  0  0  0  0  0  0  0  0  0  0
   11.2471    5.3797    1.0329 H   0  0  0  0  0  0  0  0  0  0  0  0
   11.8422    5.3364   -0.6461 H   0  0  0  0  0  0  0  0  0  0  0  0
    9.8366    3.5893    0.6297 H   0  0  0  0  0  0  0  0  0  0  0  0
   10.4911    3.4449   -1.0105 H   0  0  0  0  0  0  0  0  0  0  0  0
  1  2  3  0  0  0  0
  2  3  1  0  0  0  0
  3  4  1  0  0  0  0
  3 34  1  0  0  0  0
  4  5  2  0  0  0  0
  4 16  1  0  0  0  0
  5  6  1  0  0  0  0
  6  7  2  0  0  0  0
  6 11  1  0  0  0  0
  7  8  1  0  0  0  0
  7 35  1  0  0  0  0
  8  9  2  0  0  0  0
  8 36  1  0  0  0  0
  9 10  1  0  0  0  0
  9 14  1  0  0  0  0
 10 11  2  0  0  0  0
 10 12  1  0  0  0  0
 11 37  1  0  0  0  0
 12 13  2  0  0  0  0
 12 38  1  0  0  0  0
 13 14  1  0  0  0  0
 13 15  1  0  0  0  0
 15 39  1  0  0  0  0
 15 40  1  0  0  0  0
 15 41  1  0  0  0  0
 16 17  1  0  0  0  0
 16 42  1  0  0  0  0
 17 18  1  1  0  0  0
 17 19  1  0  0  0  0
 17 24  1  0  0  0  0
 19 20  1  0  0  0  0
 19 43  1  0  0  0  0
 19 44  1  0  0  0  0
 20 21  1  0  0  0  0
 20 45  1  0  0  0  0
 20 46  1  0  0  0  0
 21 22  1  0  0  0  0
 21 47  1  0  0  0  0
 21 48  1  0  0  0  0
 22 23  1  0  0  0  0
 22 49  1  0  0  0  0
 22 50  1  0  0  0  0
 23 24  1  0  0  0  0
 23 26  1  0  0  0  0
 24 25  2  0  0  0  0
 26 27  1  0  0  0  0
 26 51  1  0  0  0  0
 26 52  1  0  0  0  0
 27 28  2  0  0  0  0
 27 29  1  0  0  0  0
 29 30  1  0  0  0  0
 29 33  1  0  0  0  0
 30 31  1  0  0  0  0
 30 53  1  0  0  0  0
 30 54  1  0  0  0  0
 31 32  1  0  0  0  0
 31 55  1  0  0  0  0
 31 56  1  0  0  0  0
 32 33  1  0  0  0  0
 32 57  1  0  0  0  0
 32 58  1  0  0  0  0
 33 59  1  0  0  0  0
 33 60  1  0  0  0  0
M  END
$$$$
