YHO
 OpenBabel04121316213D

 20 20  0  0  1  0  0  0  0  0999 V2000
    2.8885    0.1851   -1.3269 N   0  0  0  0  0  0  0  0  0  0  0  0
    2.4956    0.0147    0.0740 C   0  0  2  0  0  0  0  0  0  0  0  0
    1.4013    0.0264    0.1138 H   0  0  0  0  0  0  0  0  0  0  0  0
    3.0776    1.1297    0.9550 C   0  0  0  0  0  0  0  0  0  0  0  0
    4.4797    0.6405    1.3128 C   0  0  1  0  0  0  0  0  0  0  0  0
    4.8579    1.1244    2.2190 H   0  0  0  0  0  0  0  0  0  0  0  0
    4.3005   -0.8762    1.5278 C   0  0  1  0  0  0  0  0  0  0  0  0
    4.0927   -1.0391    2.5918 H   0  0  0  0  0  0  0  0  0  0  0  0
    3.0344   -1.2811    0.7386 C   0  0  2  0  0  0  0  0  0  0  0  0
    2.2856   -1.6326    1.4584 H   0  0  0  0  0  0  0  0  0  0  0  0
    3.2373   -2.3524   -0.1743 O   0  0  0  0  0  0  0  0  0  0  0  0
    5.4327   -1.6769    1.2097 O   0  0  0  0  0  0  0  0  0  0  0  0
    5.4081    0.9201    0.2696 O   0  0  0  0  0  0  0  0  0  0  0  0
    3.9039    0.0980   -1.4034 H   0  0  0  0  0  0  0  0  0  0  0  0
    2.6276    1.1035   -1.6756 H   0  0  0  0  0  0  0  0  0  0  0  0
    2.4735    1.2226    1.8661 H   0  0  0  0  0  0  0  0  0  0  0  0
    3.0809    2.1014    0.4493 H   0  0  0  0  0  0  0  0  0  0  0  0
    3.9717   -2.8844    0.1930 H   0  0  0  0  0  0  0  0  0  0  0  0
    6.2229   -1.1358    1.3989 H   0  0  0  0  0  0  0  0  0  0  0  0
    5.4406    1.8893    0.1553 H   0  0  0  0  0  0  0  0  0  0  0  0
  1 14  1  0  0  0  0
  1 15  1  0  0  0  0
  2  4  1  0  0  0  0
  2  9  1  0  0  0  0
  2  3  1  1  0  0  0
  2  1  1  0  0  0  0
  4  5  1  0  0  0  0
  4 16  1  0  0  0  0
  4 17  1  0  0  0  0
  5  6  1  1  0  0  0
  5  7  1  0  0  0  0
  5 13  1  0  0  0  0
  7  8  1  1  0  0  0
  7  9  1  0  0  0  0
  7 12  1  0  0  0  0
  9 10  1  1  0  0  0
  9 11  1  0  0  0  0
 11 18  1  0  0  0  0
 12 19  1  0  0  0  0
 13 20  1  0  0  0  0
M  END
$$$$
