YML
 OpenBabel04121316213D

 40 39  0  0  1  0  0  0  0  0999 V2000
   -5.3249   -4.7737   -0.1994 O   0  0  0  0  0  0  0  0  0  0  0  0
   -5.4557   -3.5082   -0.8526 C   0  0  0  0  0  0  0  0  0  0  0  0
   -6.2593   -2.5456    0.0555 C   0  0  1  0  0  0  0  0  0  0  0  0
   -7.0071   -3.1105    0.6266 H   0  0  0  0  0  0  0  0  0  0  0  0
   -5.5108   -1.6828    1.0847 C   0  0  0  0  0  0  0  0  0  0  0  0
   -5.0046   -2.4101    2.3345 C   0  0  1  0  0  0  0  0  0  0  0  0
   -5.7568   -3.0952    2.7330 H   0  0  0  0  0  0  0  0  0  0  0  0
   -3.6188   -3.1254    2.1683 C   0  0  1  0  0  0  0  0  0  0  0  0
   -2.9225   -2.3750    1.8020 H   0  0  0  0  0  0  0  0  0  0  0  0
   -3.1140   -3.9268    3.3571 C   0  0  2  0  0  0  0  0  0  0  0  0
   -3.5170   -3.6024    4.3171 H   0  0  0  0  0  0  0  0  0  0  0  0
   -1.6248   -3.6590    3.3471 C   0  0  0  0  0  0  0  0  0  0  0  0
   -0.8172   -4.6164    3.2733 O   0  0  0  0  0  0  0  0  0  0  0  0
   -1.0572   -2.2598    3.4578 C   0  0  0  0  0  0  0  0  0  0  0  0
   -2.0717   -0.6808    3.2251 P   0  0  2  0  0  0  0  0  0  0  0  0
   -1.5006   -0.4485    1.9905 H   0  0  0  0  0  0  0  0  0  0  0  0
   -1.2750    0.4930    3.7850 O   0  0  0  0  0  0  0  0  0  0  0  0
   -2.7877   -0.9720    4.7728 O   0  0  0  0  0  0  0  0  0  0  0  0
   -3.4469   -5.4417    3.2160 C   0  0  0  0  0  0  0  0  0  0  0  0
   -3.5263   -4.0134    1.0980 O   0  0  0  0  0  0  0  0  0  0  0  0
   -4.8387   -1.2991    3.3402 C   0  0  0  0  0  0  0  0  0  0  0  0
   -6.9207   -1.5778   -0.9057 C   0  0  0  0  0  0  0  0  0  0  0  0
   -4.3915   -5.0930   -0.1463 H   0  0  0  0  0  0  0  0  0  0  0  0
   -5.9683   -3.7232   -1.7845 H   0  0  0  0  0  0  0  0  0  0  0  0
   -4.4743   -3.0726   -1.1039 H   0  0  0  0  0  0  0  0  0  0  0  0
   -6.2271   -0.9209    1.4487 H   0  0  0  0  0  0  0  0  0  0  0  0
   -4.7058   -1.0891    0.6253 H   0  0  0  0  0  0  0  0  0  0  0  0
   -0.2869   -2.1839    2.6843 H   0  0  0  0  0  0  0  0  0  0  0  0
   -0.6125   -2.1925    4.4514 H   0  0  0  0  0  0  0  0  0  0  0  0
   -3.0884   -0.1167    5.1488 H   0  0  0  0  0  0  0  0  0  0  0  0
   -3.1174   -6.0037    4.0942 H   0  0  0  0  0  0  0  0  0  0  0  0
   -2.9496   -5.9116    2.3541 H   0  0  0  0  0  0  0  0  0  0  0  0
   -4.5256   -5.6031    3.0904 H   0  0  0  0  0  0  0  0  0  0  0  0
   -4.2830   -3.7000    0.6171 H   0  0  0  0  0  0  0  0  0  0  0  0
   -5.6729   -0.7202    3.7239 H   0  0  0  0  0  0  0  0  0  0  0  0
   -4.2252   -0.5325    2.8584 H   0  0  0  0  0  0  0  0  0  0  0  0
   -4.4399   -1.7981    4.2088 H   0  0  0  0  0  0  0  0  0  0  0  0
   -7.4837   -2.1468   -1.6467 H   0  0  0  0  0  0  0  0  0  0  0  0
   -6.1503   -0.9908   -1.4202 H   0  0  0  0  0  0  0  0  0  0  0  0
   -7.6016   -0.8950   -0.3944 H   0  0  0  0  0  0  0  0  0  0  0  0
  1  2  1  0  0  0  0
  1 23  1  0  0  0  0
  2  3  1  0  0  0  0
  2 24  1  0  0  0  0
  2 25  1  0  0  0  0
  3  4  1  1  0  0  0
  3  5  1  0  0  0  0
  3 22  1  0  0  0  0
  5  6  1  0  0  0  0
  5 26  1  0  0  0  0
  5 27  1  0  0  0  0
  6  7  1  1  0  0  0
  6  8  1  0  0  0  0
  6 21  1  0  0  0  0
  8  9  1  6  0  0  0
  8 20  1  0  0  0  0
 10 12  1  0  0  0  0
 10 19  1  0  0  0  0
 10 11  1  1  0  0  0
 10  8  1  0  0  0  0
 12 13  2  0  0  0  0
 12 14  1  0  0  0  0
 14 28  1  0  0  0  0
 14 29  1  0  0  0  0
 15 17  2  0  0  0  0
 15 18  1  0  0  0  0
 15 16  1  6  0  0  0
 15 14  1  0  0  0  0
 18 30  1  0  0  0  0
 19 31  1  0  0  0  0
 19 32  1  0  0  0  0
 19 33  1  0  0  0  0
 20 34  1  0  0  0  0
 21 35  1  0  0  0  0
 21 36  1  0  0  0  0
 21 37  1  0  0  0  0
 22 38  1  0  0  0  0
 22 39  1  0  0  0  0
 22 40  1  0  0  0  0
M  END
$$$$
