YVN
 OpenBabel04121316213D

 66 67  0  0  1  0  0  0  0  0999 V2000
    3.7702   -9.2113   -1.1080 C   0  0  0  0  0  0  0  0  0  0  0  0
    4.6243   -8.3670   -1.9127 N   0  0  0  0  0  0  0  0  0  0  0  0
    5.5731   -7.5502   -1.3545 C   0  0  0  0  0  0  0  0  0  0  0  0
    5.7969   -7.5686   -0.1495 O   0  0  0  0  0  0  0  0  0  0  0  0
    6.3279   -6.5599   -2.1682 C   0  0  2  0  0  0  0  0  0  0  0  0
    6.6574   -5.7738   -1.4873 H   0  0  0  0  0  0  0  0  0  0  0  0
    6.0844   -5.9691   -3.5100 C   0  0  1  0  0  0  0  0  0  0  0  0
    6.3017   -4.9032   -3.5328 H   0  0  0  0  0  0  0  0  0  0  0  0
    7.2781   -6.8940   -3.2972 C   0  0  1  0  0  0  0  0  0  0  0  0
    7.2150   -7.8957   -3.7173 H   0  0  0  0  0  0  0  0  0  0  0  0
    8.6980   -6.4668   -3.2191 C   0  0  0  0  0  0  0  0  0  0  0  0
    9.4437   -7.2996   -2.7006 O   0  0  0  0  0  0  0  0  0  0  0  0
    9.0447   -5.2674   -3.7778 N   0  0  0  0  0  0  0  0  0  0  0  0
   10.3384   -4.5194   -3.8735 C   0  0  2  0  0  0  0  0  0  0  0  0
   10.5697   -4.0900   -2.8965 H   0  0  0  0  0  0  0  0  0  0  0  0
   10.1076   -3.3255   -4.8732 C   0  0  0  0  0  0  0  0  0  0  0  0
   10.8898   -3.0188   -5.7737 O   0  0  0  0  0  0  0  0  0  0  0  0
    8.9934   -2.5392   -4.7285 N   0  0  0  0  0  0  0  0  0  0  0  0
    8.2186   -2.3349   -3.5014 C   0  0  2  0  0  0  0  0  0  0  0  0
    7.7659   -3.2883   -3.2384 H   0  0  0  0  0  0  0  0  0  0  0  0
    7.0225   -1.4040   -3.7558 C   0  0  0  0  0  0  0  0  0  0  0  0
    6.6422   -0.5503   -2.9615 O   0  0  0  0  0  0  0  0  0  0  0  0
    6.2540   -1.7087   -4.8422 N   0  0  0  0  0  0  0  0  0  0  0  0
    9.0276   -1.8636   -2.3007 C   0  0  0  0  0  0  0  0  0  0  0  0
    9.5960   -0.4956   -2.5545 C   0  0  0  0  0  0  0  0  0  0  0  0
    9.4879    0.1137   -3.6117 O   0  0  0  0  0  0  0  0  0  0  0  0
   10.3124    0.0195   -1.5230 N   0  0  0  0  0  0  0  0  0  0  0  0
   11.5882   -5.3071   -4.3046 C   0  0  0  0  0  0  0  0  0  0  0  0
   12.0522   -6.2879   -3.2338 C   0  0  0  0  0  0  0  0  0  0  0  0
   11.3326   -5.9969   -5.6389 C   0  0  0  0  0  0  0  0  0  0  0  0
    5.2384   -6.3772   -4.6581 C   0  0  0  0  0  0  0  0  0  0  0  0
    4.2767   -7.3870   -4.7070 C   0  0  0  0  0  0  0  0  0  0  0  0
    3.8788   -8.0161   -5.8801 C   0  0  0  0  0  0  0  0  0  0  0  0
    4.1872   -7.4072   -7.0651 C   0  0  0  0  0  0  0  0  0  0  0  0
    4.9123   -6.1945   -6.9937 C   0  0  0  0  0  0  0  0  0  0  0  0
    5.4610   -5.7086   -5.8328 C   0  0  0  0  0  0  0  0  0  0  0  0
    3.6196   -8.0088   -8.1800 O   0  0  0  0  0  0  0  0  0  0  0  0
    3.8069   -7.2319   -9.6771 P   0  0  0  0  0  0  0  0  0  0  0  0
    2.3321   -7.4417  -10.0226 O   0  0  0  0  0  0  0  0  0  0  0  0
    3.8196   -5.7186   -9.1127 O   0  0  0  0  0  0  0  0  0  0  0  0
    3.9978   -6.4400  -11.2032 O   0  0  0  0  0  0  0  0  0  0  0  0
    3.0429   -9.7025   -1.7627 H   0  0  0  0  0  0  0  0  0  0  0  0
    3.2375   -8.6117   -0.3630 H   0  0  0  0  0  0  0  0  0  0  0  0
    4.3892   -9.9605   -0.6130 H   0  0  0  0  0  0  0  0  0  0  0  0
    4.7717   -8.6713   -2.8579 H   0  0  0  0  0  0  0  0  0  0  0  0
    8.3026   -4.8136   -4.2835 H   0  0  0  0  0  0  0  0  0  0  0  0
    9.0513   -1.7270   -5.3462 H   0  0  0  0  0  0  0  0  0  0  0  0
    6.4861   -2.4213   -5.5177 H   0  0  0  0  0  0  0  0  0  0  0  0
    5.4706   -1.0931   -5.0222 H   0  0  0  0  0  0  0  0  0  0  0  0
    9.8599   -2.5261   -2.0627 H   0  0  0  0  0  0  0  0  0  0  0  0
    8.3848   -1.8530   -1.4134 H   0  0  0  0  0  0  0  0  0  0  0  0
   10.4757   -0.4606   -0.6498 H   0  0  0  0  0  0  0  0  0  0  0  0
   10.6841    0.9501   -1.6563 H   0  0  0  0  0  0  0  0  0  0  0  0
   12.4234   -4.5993   -4.4328 H   0  0  0  0  0  0  0  0  0  0  0  0
   11.3628   -7.1062   -3.1255 H   0  0  0  0  0  0  0  0  0  0  0  0
   12.1632   -5.8053   -2.2560 H   0  0  0  0  0  0  0  0  0  0  0  0
   12.9811   -6.7885   -3.5082 H   0  0  0  0  0  0  0  0  0  0  0  0
   10.4409   -6.6263   -5.5853 H   0  0  0  0  0  0  0  0  0  0  0  0
   12.1856   -6.6083   -5.9332 H   0  0  0  0  0  0  0  0  0  0  0  0
   11.1626   -5.2709   -6.4400 H   0  0  0  0  0  0  0  0  0  0  0  0
    3.7234   -7.6483   -3.8245 H   0  0  0  0  0  0  0  0  0  0  0  0
    3.2665   -8.9117   -5.8513 H   0  0  0  0  0  0  0  0  0  0  0  0
    5.1204   -5.4719   -7.7713 H   0  0  0  0  0  0  0  0  0  0  0  0
    6.0515   -4.7959   -5.8812 H   0  0  0  0  0  0  0  0  0  0  0  0
    3.0005   -5.5519   -8.6303 H   0  0  0  0  0  0  0  0  0  0  0  0
    3.4754   -6.9487  -11.8509 H   0  0  0  0  0  0  0  0  0  0  0  0
  1  2  1  0  0  0  0
  1 42  1  0  0  0  0
  1 43  1  0  0  0  0
  1 44  1  0  0  0  0
  2  3  1  0  0  0  0
  2 45  1  0  0  0  0
  3  4  2  0  0  0  0
  5  7  1  0  0  0  0
  5  9  1  0  0  0  0
  5  6  1  1  0  0  0
  5  3  1  0  0  0  0
  7  9  1  0  0  0  0
  7 31  1  0  0  0  0
  7  8  1  6  0  0  0
  9 11  1  0  0  0  0
  9 10  1  6  0  0  0
 11 12  2  0  0  0  0
 11 13  1  0  0  0  0
 13 46  1  0  0  0  0
 14 16  1  0  0  0  0
 14 28  1  0  0  0  0
 14 15  1  1  0  0  0
 14 13  1  0  0  0  0
 16 17  2  0  0  0  0
 16 18  1  0  0  0  0
 18 47  1  0  0  0  0
 19 21  1  0  0  0  0
 19 24  1  0  0  0  0
 19 20  1  1  0  0  0
 19 18  1  0  0  0  0
 21 22  2  0  0  0  0
 21 23  1  0  0  0  0
 23 48  1  0  0  0  0
 23 49  1  0  0  0  0
 24 25  1  0  0  0  0
 24 50  1  0  0  0  0
 24 51  1  0  0  0  0
 25 26  2  0  0  0  0
 25 27  1  0  0  0  0
 27 52  1  0  0  0  0
 27 53  1  0  0  0  0
 28 29  1  0  0  0  0
 28 30  1  0  0  0  0
 28 54  1  0  0  0  0
 29 55  1  0  0  0  0
 29 56  1  0  0  0  0
 29 57  1  0  0  0  0
 30 58  1  0  0  0  0
 30 59  1  0  0  0  0
 30 60  1  0  0  0  0
 31 32  2  0  0  0  0
 31 36  1  0  0  0  0
 32 33  1  0  0  0  0
 32 61  1  0  0  0  0
 33 34  2  0  0  0  0
 33 62  1  0  0  0  0
 34 35  1  0  0  0  0
 34 37  1  0  0  0  0
 35 36  2  0  0  0  0
 35 63  1  0  0  0  0
 36 64  1  0  0  0  0
 37 38  1  0  0  0  0
 38 39  2  0  0  0  0
 38 40  1  0  0  0  0
 38 41  1  0  0  0  0
 40 65  1  0  0  0  0
 41 66  1  0  0  0  0
M  END
$$$$
