YYY
 OpenBabel04121316213D

 39 40  0  0  1  0  0  0  0  0999 V2000
   -1.7029   -6.2650   -2.8658 O   0  0  0  0  0  0  0  0  0  0  0  0
   -1.8770   -4.8631   -2.8455 C   0  0  1  0  0  0  0  0  0  0  0  0
   -1.3770   -4.4147   -3.7135 H   0  0  0  0  0  0  0  0  0  0  0  0
   -3.3315   -4.4791   -2.8046 C   0  0  0  0  0  0  0  0  0  0  0  0
   -3.2634   -3.0792   -2.2066 C   0  0  1  0  0  0  0  0  0  0  0  0
   -4.2128   -2.7849   -1.7444 H   0  0  0  0  0  0  0  0  0  0  0  0
   -2.2921   -3.2258   -1.1679 O   0  0  0  0  0  0  0  0  0  0  0  0
   -1.3675   -4.2637   -1.5608 C   0  0  2  0  0  0  0  0  0  0  0  0
   -1.3041   -4.9914   -0.7425 H   0  0  0  0  0  0  0  0  0  0  0  0
   -0.0282   -3.6216   -1.7808 C   0  0  0  0  0  0  0  0  0  0  0  0
    0.9497   -4.3960   -2.4766 O   0  0  0  0  0  0  0  0  0  0  0  0
    2.5032   -3.8213   -2.3771 P   0  0  2  0  0  0  0  0  0  0  0  0
    2.1350   -2.7760   -1.3018 O   0  0  0  0  0  0  0  0  0  0  0  0
    2.5625   -2.5715   -3.5718 O   0  0  0  0  0  0  0  0  0  0  0  0
    2.1934   -1.0508   -2.8343 P   0  0  0  0  0  0  0  0  0  0  0  0
    3.5541   -1.0287   -2.1007 O   0  0  0  0  0  0  0  0  0  0  0  0
    2.6715   -0.3698   -4.2470 O   0  0  0  0  0  0  0  0  0  0  0  0
    1.8242    0.4700   -2.0967 O   0  0  0  0  0  0  0  0  0  0  0  0
    2.9157   -4.9925   -3.5818 O   0  0  0  0  0  0  0  0  0  0  0  0
   -2.9104   -2.0294   -3.1913 N   0  0  0  0  0  0  0  0  0  0  0  0
   -3.7755   -1.8693   -4.2669 C   0  0  0  0  0  0  0  0  0  0  0  0
   -3.7517   -0.7784   -5.0269 C   0  0  0  0  0  0  0  0  0  0  0  0
   -2.5686    0.0743   -4.8590 C   0  0  0  0  0  0  0  0  0  0  0  0
   -1.7416   -0.0655   -3.8725 N   0  0  0  0  0  0  0  0  0  0  0  0
   -1.9987   -0.9986   -2.9011 C   0  0  0  0  0  0  0  0  0  0  0  0
   -1.3644   -0.9173   -1.8425 O   0  0  0  0  0  0  0  0  0  0  0  0
   -2.3055    1.0320   -5.7866 N   0  0  0  0  0  0  0  0  0  0  0  0
   -1.9394   -6.5691   -3.7562 H   0  0  0  0  0  0  0  0  0  0  0  0
   -3.8677   -5.1571   -2.1287 H   0  0  0  0  0  0  0  0  0  0  0  0
   -3.7951   -4.5573   -3.7874 H   0  0  0  0  0  0  0  0  0  0  0  0
    0.2700   -3.3190   -0.7674 H   0  0  0  0  0  0  0  0  0  0  0  0
   -0.1173   -2.7285   -2.3923 H   0  0  0  0  0  0  0  0  0  0  0  0
    3.6288   -0.5969   -4.2768 H   0  0  0  0  0  0  0  0  0  0  0  0
    1.1795    0.2956   -1.3839 H   0  0  0  0  0  0  0  0  0  0  0  0
    3.7673   -4.7457   -3.9862 H   0  0  0  0  0  0  0  0  0  0  0  0
   -4.5313   -2.6284   -4.4401 H   0  0  0  0  0  0  0  0  0  0  0  0
   -4.4859   -0.5491   -5.7842 H   0  0  0  0  0  0  0  0  0  0  0  0
   -2.8511    1.1427   -6.6287 H   0  0  0  0  0  0  0  0  0  0  0  0
   -1.4106    1.5057   -5.7320 H   0  0  0  0  0  0  0  0  0  0  0  0
  1  2  1  0  0  0  0
  1 28  1  0  0  0  0
  2  3  1  6  0  0  0
  2  4  1  0  0  0  0
  2  8  1  0  0  0  0
  4  5  1  0  0  0  0
  4 29  1  0  0  0  0
  4 30  1  0  0  0  0
  5  6  1  1  0  0  0
  5  7  1  0  0  0  0
  5 20  1  0  0  0  0
  7  8  1  0  0  0  0
  8  9  1  1  0  0  0
  8 10  1  0  0  0  0
 10 11  1  0  0  0  0
 10 31  1  0  0  0  0
 10 32  1  0  0  0  0
 12 14  1  6  0  0  0
 12 19  1  0  0  0  0
 12 13  2  0  0  0  0
 12 11  1  0  0  0  0
 14 15  1  0  0  0  0
 15 16  2  0  0  0  0
 15 17  1  0  0  0  0
 15 18  1  0  0  0  0
 17 33  1  0  0  0  0
 18 34  1  0  0  0  0
 19 35  1  0  0  0  0
 20 21  1  0  0  0  0
 20 25  1  0  0  0  0
 21 22  2  0  0  0  0
 21 36  1  0  0  0  0
 22 23  1  0  0  0  0
 22 37  1  0  0  0  0
 23 24  2  0  0  0  0
 23 27  1  0  0  0  0
 24 25  1  0  0  0  0
 25 26  2  0  0  0  0
 27 38  1  0  0  0  0
 27 39  1  0  0  0  0
M  END
$$$$
