YZ9
 OpenBabel04121316213D

 27 28  0  0  0  0  0  0  0  0999 V2000
    0.9624   -0.0872    0.0315 C   0  0  0  0  0  0  0  0  0  0  0  0
    2.4776   -0.1077    0.0267 C   0  0  0  0  0  0  0  0  0  0  0  0
    2.9481    0.9639    0.8444 O   0  0  0  0  0  0  0  0  0  0  0  0
    4.2967    1.0603    0.9041 C   0  0  0  0  0  0  0  0  0  0  0  0
    5.1119    0.2834    0.4185 O   0  0  0  0  0  0  0  0  0  0  0  0
    4.6479    2.2208    1.7236 C   0  0  0  0  0  0  0  0  0  0  0  0
    5.4041    2.0177    2.8124 C   0  0  0  0  0  0  0  0  0  0  0  0
    5.7576    3.1561    3.6412 C   0  0  0  0  0  0  0  0  0  0  0  0
    6.6260    3.0377    4.7249 C   0  0  0  0  0  0  0  0  0  0  0  0
    7.1014    4.1912    5.3522 C   0  0  0  0  0  0  0  0  0  0  0  0
    6.5116    5.4207    5.0666 C   0  0  0  0  0  0  0  0  0  0  0  0
    5.5598    5.5391    4.0666 C   0  0  0  0  0  0  0  0  0  0  0  0
    5.2549    4.4135    3.3140 C   0  0  0  0  0  0  0  0  0  0  0  0
    4.4383    4.6013    2.1873 O   0  0  0  0  0  0  0  0  0  0  0  0
    4.1584    3.5506    1.3245 C   0  0  0  0  0  0  0  0  0  0  0  0
    3.5439    3.7351    0.2805 O   0  0  0  0  0  0  0  0  0  0  0  0
    6.8372    6.5430    5.7655 O   0  0  0  0  0  0  0  0  0  0  0  0
    0.5664   -0.9082   -0.5720 H   0  0  0  0  0  0  0  0  0  0  0  0
    0.5849    0.8600   -0.3683 H   0  0  0  0  0  0  0  0  0  0  0  0
    0.5769   -0.1786    1.0523 H   0  0  0  0  0  0  0  0  0  0  0  0
    2.8466    0.0240   -0.9963 H   0  0  0  0  0  0  0  0  0  0  0  0
    2.8358   -1.0590    0.4334 H   0  0  0  0  0  0  0  0  0  0  0  0
    5.7839    1.0359    3.0815 H   0  0  0  0  0  0  0  0  0  0  0  0
    6.9601    2.0631    5.0718 H   0  0  0  0  0  0  0  0  0  0  0  0
    7.9331    4.1123    6.0454 H   0  0  0  0  0  0  0  0  0  0  0  0
    5.0899    6.4938    3.8560 H   0  0  0  0  0  0  0  0  0  0  0  0
    7.4250    6.2954    6.4979 H   0  0  0  0  0  0  0  0  0  0  0  0
  1  2  1  0  0  0  0
  1 18  1  0  0  0  0
  1 19  1  0  0  0  0
  1 20  1  0  0  0  0
  2  3  1  0  0  0  0
  2 21  1  0  0  0  0
  2 22  1  0  0  0  0
  3  4  1  0  0  0  0
  4  5  2  0  0  0  0
  4  6  1  0  0  0  0
  6  7  2  0  0  0  0
  6 15  1  0  0  0  0
  7  8  1  0  0  0  0
  7 23  1  0  0  0  0
  8  9  2  0  0  0  0
  8 13  1  0  0  0  0
  9 10  1  0  0  0  0
  9 24  1  0  0  0  0
 10 11  2  0  0  0  0
 10 25  1  0  0  0  0
 11 12  1  0  0  0  0
 11 17  1  0  0  0  0
 12 13  2  0  0  0  0
 12 26  1  0  0  0  0
 13 14  1  0  0  0  0
 14 15  1  0  0  0  0
 15 16  2  0  0  0  0
 17 27  1  0  0  0  0
M  END
$$$$
