Z48
 OpenBabel04121316213D

 54 57  0  0  1  0  0  0  0  0999 V2000
    1.2204   -2.0019    2.4361 O   0  0  0  0  0  0  0  0  0  0  0  0
    2.3836   -1.2272    2.1860 C   0  0  0  0  0  0  0  0  0  0  0  0
    2.9011   -1.2615    0.7221 C   0  0  2  0  0  0  0  0  0  0  0  0
    2.5763   -0.3332    0.2349 H   0  0  0  0  0  0  0  0  0  0  0  0
    2.4382   -2.4373   -0.1294 C   0  0  0  0  0  0  0  0  0  0  0  0
    2.4983   -3.7454    0.3783 C   0  0  0  0  0  0  0  0  0  0  0  0
    2.4594   -4.8505   -0.4544 C   0  0  0  0  0  0  0  0  0  0  0  0
    2.1176   -4.6749   -1.7836 C   0  0  0  0  0  0  0  0  0  0  0  0
    1.8271   -3.3961   -2.2633 C   0  0  0  0  0  0  0  0  0  0  0  0
    2.0581   -2.2724   -1.4641 C   0  0  0  0  0  0  0  0  0  0  0  0
    4.3690   -1.1812    0.7207 N   0  0  0  0  0  0  0  0  0  0  0  0
    5.1054   -2.1731    1.2966 C   0  0  0  0  0  0  0  0  0  0  0  0
    4.6220   -3.1288    1.9155 O   0  0  0  0  0  0  0  0  0  0  0  0
    6.5120   -2.1151    1.1522 C   0  0  0  0  0  0  0  0  0  0  0  0
    7.3963   -1.0782    1.1307 N   0  0  0  0  0  0  0  0  0  0  0  0
    7.1498   -0.1015    1.1835 H   0  0  0  0  0  0  0  0  0  0  0  0
    8.6781   -1.5878    1.1618 C   0  0  0  0  0  0  0  0  0  0  0  0
    8.6063   -2.9702    1.1584 C   0  0  0  0  0  0  0  0  0  0  0  0
    7.2432   -3.2661    1.1406 C   0  0  0  0  0  0  0  0  0  0  0  0
    9.7150   -3.9074    1.1949 C   0  0  0  0  0  0  0  0  0  0  0  0
   10.9518   -3.3396    1.2222 N   0  0  0  0  0  0  0  0  0  0  0  0
   11.9736   -4.1883    1.2444 C   0  0  0  0  0  0  0  0  0  0  0  0
   11.7930   -5.5112    1.2179 N   0  0  0  0  0  0  0  0  0  0  0  0
   10.5907   -6.0491    1.2052 C   0  0  0  0  0  0  0  0  0  0  0  0
    9.4762   -5.2863    1.1939 C   0  0  0  0  0  0  0  0  0  0  0  0
    8.1731   -6.0052    1.1760 C   0  0  0  0  0  0  0  0  0  0  0  0
   13.2913   -3.7246    1.3025 N   0  0  0  0  0  0  0  0  0  0  0  0
   14.4672   -4.4990    1.2686 C   0  0  0  0  0  0  0  0  0  0  0  0
   15.7259   -3.9077    1.1726 C   0  0  0  0  0  0  0  0  0  0  0  0
   16.8657   -4.7054    0.9708 C   0  0  0  0  0  0  0  0  0  0  0  0
   16.7835   -6.0993    0.9824 C   0  0  0  0  0  0  0  0  0  0  0  0
   15.5717   -6.7020    1.2266 C   0  0  0  0  0  0  0  0  0  0  0  0
   14.4443   -5.9061    1.3229 C   0  0  0  0  0  0  0  0  0  0  0  0
    1.1712   -2.1164    3.4006 H   0  0  0  0  0  0  0  0  0  0  0  0
    3.1594   -1.5490    2.8894 H   0  0  0  0  0  0  0  0  0  0  0  0
    2.1490   -0.1929    2.4472 H   0  0  0  0  0  0  0  0  0  0  0  0
    2.6594   -3.9176    1.4393 H   0  0  0  0  0  0  0  0  0  0  0  0
    2.7053   -5.8265   -0.0476 H   0  0  0  0  0  0  0  0  0  0  0  0
    2.0642   -5.5390   -2.4362 H   0  0  0  0  0  0  0  0  0  0  0  0
    1.4503   -3.2764   -3.2740 H   0  0  0  0  0  0  0  0  0  0  0  0
    1.9453   -1.2799   -1.8924 H   0  0  0  0  0  0  0  0  0  0  0  0
    4.8365   -0.4659    0.1833 H   0  0  0  0  0  0  0  0  0  0  0  0
    9.5324   -0.9261    1.1969 H   0  0  0  0  0  0  0  0  0  0  0  0
    6.7216   -4.2079    1.1694 H   0  0  0  0  0  0  0  0  0  0  0  0
   10.5688   -7.1327    1.2062 H   0  0  0  0  0  0  0  0  0  0  0  0
    8.2818   -7.0932    1.1736 H   0  0  0  0  0  0  0  0  0  0  0  0
    7.6316   -5.7598    0.2567 H   0  0  0  0  0  0  0  0  0  0  0  0
    7.6083   -5.7655    2.0828 H   0  0  0  0  0  0  0  0  0  0  0  0
   13.3521   -2.7215    1.2307 H   0  0  0  0  0  0  0  0  0  0  0  0
   15.8423   -2.8295    1.2337 H   0  0  0  0  0  0  0  0  0  0  0  0
   17.8305   -4.2394    0.7988 H   0  0  0  0  0  0  0  0  0  0  0  0
   17.6541   -6.7212    0.8121 H   0  0  0  0  0  0  0  0  0  0  0  0
   15.4560   -7.7770    1.3214 H   0  0  0  0  0  0  0  0  0  0  0  0
   13.5371   -6.4792    1.4316 H   0  0  0  0  0  0  0  0  0  0  0  0
  1  2  1  0  0  0  0
  1 34  1  0  0  0  0
  2 35  1  0  0  0  0
  2 36  1  0  0  0  0
  3  5  1  0  0  0  0
  3 11  1  0  0  0  0
  3  4  1  6  0  0  0
  3  2  1  0  0  0  0
  5  6  2  0  0  0  0
  5 10  1  0  0  0  0
  6  7  1  0  0  0  0
  6 37  1  0  0  0  0
  7  8  2  0  0  0  0
  7 38  1  0  0  0  0
  8  9  1  0  0  0  0
  8 39  1  0  0  0  0
  9 10  2  0  0  0  0
  9 40  1  0  0  0  0
 10 41  1  0  0  0  0
 11 12  1  0  0  0  0
 11 42  1  0  0  0  0
 12 13  2  0  0  0  0
 12 14  1  0  0  0  0
 14 15  1  0  0  0  0
 14 19  2  0  0  0  0
 15 16  1  0  0  0  0
 15 17  1  0  0  0  0
 17 18  2  0  0  0  0
 17 43  1  0  0  0  0
 18 19  1  0  0  0  0
 18 20  1  0  0  0  0
 19 44  1  0  0  0  0
 20 21  2  0  0  0  0
 20 25  1  0  0  0  0
 21 22  1  0  0  0  0
 22 23  2  0  0  0  0
 22 27  1  0  0  0  0
 23 24  1  0  0  0  0
 24 25  2  0  0  0  0
 24 45  1  0  0  0  0
 25 26  1  0  0  0  0
 26 46  1  0  0  0  0
 26 47  1  0  0  0  0
 26 48  1  0  0  0  0
 27 28  1  0  0  0  0
 27 49  1  0  0  0  0
 28 29  2  0  0  0  0
 28 33  1  0  0  0  0
 29 30  1  0  0  0  0
 29 50  1  0  0  0  0
 30 31  2  0  0  0  0
 30 51  1  0  0  0  0
 31 32  1  0  0  0  0
 31 52  1  0  0  0  0
 32 33  2  0  0  0  0
 32 53  1  0  0  0  0
 33 54  1  0  0  0  0
M  END
$$$$
