Z57
 OpenBabel04121316213D

 35 36  0  0  1  0  0  0  0  0999 V2000
    0.3622    0.2582    0.6839 O   0  0  0  0  0  0  0  0  0  0  0  0
    1.7751    0.1768    0.5070 C   0  0  0  0  0  0  0  0  0  0  0  0
    2.8678   -0.1906    1.6083 C   0  0  1  0  0  0  0  0  0  0  0  0
    2.4122    0.1186    2.5586 H   0  0  0  0  0  0  0  0  0  0  0  0
    2.9564   -1.6354    1.6190 O   0  0  0  0  0  0  0  0  0  0  0  0
    3.8615   -2.2237    0.6525 C   0  0  2  0  0  0  0  0  0  0  0  0
    3.7253   -3.2948    0.8639 H   0  0  0  0  0  0  0  0  0  0  0  0
    5.3407   -1.9188    0.9841 C   0  0  1  0  0  0  0  0  0  0  0  0
    5.9777   -2.4698    0.2809 H   0  0  0  0  0  0  0  0  0  0  0  0
    5.6045   -0.4236    0.9162 C   0  0  2  0  0  0  0  0  0  0  0  0
    6.5085   -0.2231    1.4982 H   0  0  0  0  0  0  0  0  0  0  0  0
    4.3969    0.4092    1.5872 C   0  0  2  0  0  0  0  0  0  0  0  0
    4.3991    1.4430    1.2268 H   0  0  0  0  0  0  0  0  0  0  0  0
    4.7578    0.5203    2.9962 O   0  0  0  0  0  0  0  0  0  0  0  0
    6.1159   -0.0518   -0.3772 O   0  0  0  0  0  0  0  0  0  0  0  0
    5.7448   -2.3254    2.3043 O   0  0  0  0  0  0  0  0  0  0  0  0
    3.5329   -2.0035   -0.8564 C   0  0  0  0  0  0  0  0  0  0  0  0
    3.3618   -3.0930   -1.7046 C   0  0  0  0  0  0  0  0  0  0  0  0
    3.1540   -2.8651   -3.0844 C   0  0  0  0  0  0  0  0  0  0  0  0
    3.2682   -3.8974   -3.9641 O   0  0  0  0  0  0  0  0  0  0  0  0
    2.8907   -1.5841   -3.5842 C   0  0  0  0  0  0  0  0  0  0  0  0
    2.8966   -0.5134   -2.7473 C   0  0  0  0  0  0  0  0  0  0  0  0
    3.4089   -0.7334   -1.4787 C   0  0  0  0  0  0  0  0  0  0  0  0
    3.8527    0.4030   -0.8824 O   0  0  0  0  0  0  0  0  0  0  0  0
    2.7503   -1.1821   -5.4268 Br  0  0  0  0  0  0  0  0  0  0  0  0
    0.0237    0.1989   -0.2439 H   0  0  0  0  0  0  0  0  0  0  0  0
    2.0069    1.1129    0.0055 H   0  0  0  0  0  0  0  0  0  0  0  0
    1.7263   -0.6987   -0.1237 H   0  0  0  0  0  0  0  0  0  0  0  0
    5.7297    0.5080    3.0682 H   0  0  0  0  0  0  0  0  0  0  0  0
    5.3727   -0.0208   -1.0012 H   0  0  0  0  0  0  0  0  0  0  0  0
    5.4775   -3.2423    2.4635 H   0  0  0  0  0  0  0  0  0  0  0  0
    3.4551   -4.1078   -1.3258 H   0  0  0  0  0  0  0  0  0  0  0  0
    3.6328   -4.6693   -3.5024 H   0  0  0  0  0  0  0  0  0  0  0  0
    2.6649    0.4957   -3.0659 H   0  0  0  0  0  0  0  0  0  0  0  0
    3.5189    1.2340   -1.2754 H   0  0  0  0  0  0  0  0  0  0  0  0
  1  2  1  0  0  0  0
  1 26  1  0  0  0  0
  2  3  1  0  0  0  0
  2 27  1  0  0  0  0
  2 28  1  0  0  0  0
  3  4  1  1  0  0  0
  3  5  1  0  0  0  0
  3 12  1  0  0  0  0
  5  6  1  0  0  0  0
  6  8  1  0  0  0  0
  6 17  1  0  0  0  0
  6  7  1  1  0  0  0
  8  9  1  6  0  0  0
  8 10  1  0  0  0  0
  8 16  1  0  0  0  0
 10 12  1  0  0  0  0
 10 15  1  0  0  0  0
 10 11  1  1  0  0  0
 12 13  1  6  0  0  0
 12 14  1  0  0  0  0
 14 29  1  0  0  0  0
 15 30  1  0  0  0  0
 16 31  1  0  0  0  0
 17 18  2  0  0  0  0
 17 23  1  0  0  0  0
 18 19  1  0  0  0  0
 18 32  1  0  0  0  0
 19 20  1  0  0  0  0
 19 21  2  0  0  0  0
 20 33  1  0  0  0  0
 21 22  1  0  0  0  0
 21 25  1  0  0  0  0
 22 23  2  0  0  0  0
 22 34  1  0  0  0  0
 23 24  1  0  0  0  0
 24 35  1  0  0  0  0
M  END
$$$$
