Z77
 OpenBabel04121316213D

 54 56  0  0  0  0  0  0  0  0999 V2000
    0.7711   -0.2060   -0.0225 O   0  0  0  0  0  0  0  0  0  0  0  0
    2.1784   -0.1350   -0.0147 C   0  0  0  0  0  0  0  0  0  0  0  0
    2.9494   -1.3665    0.4491 C   0  0  0  0  0  0  0  0  0  0  0  0
    4.4326   -1.2526    0.3955 N   0  0  0  0  0  0  0  0  0  0  0  0
    5.0530   -0.4661   -0.6322 C   0  0  0  0  0  0  0  0  0  0  0  0
    6.0947   -1.1650   -1.7643 S   0  0  0  0  0  0  0  0  0  0  0  0
    4.7325    0.9025   -0.4933 N   0  0  0  0  0  0  0  0  0  0  0  0
    5.2776    2.0971   -0.9844 C   0  0  0  0  0  0  0  0  0  0  0  0
    4.7651    3.3285   -0.5574 C   0  0  0  0  0  0  0  0  0  0  0  0
    5.3141    4.5119   -1.0628 C   0  0  0  0  0  0  0  0  0  0  0  0
    6.2849    4.4571   -2.0754 C   0  0  0  0  0  0  0  0  0  0  0  0
    6.7718    3.2284   -2.5075 C   0  0  0  0  0  0  0  0  0  0  0  0
    6.3045    2.0889   -1.8890 C   0  0  0  0  0  0  0  0  0  0  0  0
    7.6860    3.1623   -3.5277 O   0  0  0  0  0  0  0  0  0  0  0  0
    8.0787    1.8262   -3.9038 C   0  0  0  0  0  0  0  0  0  0  0  0
    5.1223   -2.4446    0.9732 C   0  0  0  0  0  0  0  0  0  0  0  0
    6.6157   -2.3297    1.1398 C   0  0  0  0  0  0  0  0  0  0  0  0
    7.4353   -3.3533    0.8363 C   0  0  0  0  0  0  0  0  0  0  0  0
    8.8724   -3.1333    0.7115 C   0  0  0  0  0  0  0  0  0  0  0  0
    9.7537   -4.2002    0.6062 C   0  0  0  0  0  0  0  0  0  0  0  0
   11.1301   -3.9703    0.7066 C   0  0  0  0  0  0  0  0  0  0  0  0
   12.0326   -5.1469    0.9348 C   0  0  0  0  0  0  0  0  0  0  0  0
   11.6241   -2.6491    0.6955 C   0  0  0  0  0  0  0  0  0  0  0  0
   10.7272   -1.5765    0.5825 C   0  0  0  0  0  0  0  0  0  0  0  0
    9.3643   -1.8250    0.7006 C   0  0  0  0  0  0  0  0  0  0  0  0
    8.4838   -0.7708    0.9548 N   0  0  0  0  0  0  0  0  0  0  0  0
    8.8136    0.1829    0.9846 H   0  0  0  0  0  0  0  0  0  0  0  0
    7.2027   -0.9748    1.4301 C   0  0  0  0  0  0  0  0  0  0  0  0
    6.5806   -0.0950    1.9738 O   0  0  0  0  0  0  0  0  0  0  0  0
   13.0801   -2.3424    0.9104 C   0  0  0  0  0  0  0  0  0  0  0  0
    0.5001    0.6744   -0.3544 H   0  0  0  0  0  0  0  0  0  0  0  0
    2.4055    0.6789    0.6781 H   0  0  0  0  0  0  0  0  0  0  0  0
    2.4720    0.0904   -1.0452 H   0  0  0  0  0  0  0  0  0  0  0  0
    2.6560   -2.2320   -0.1563 H   0  0  0  0  0  0  0  0  0  0  0  0
    2.6714   -1.5925    1.4861 H   0  0  0  0  0  0  0  0  0  0  0  0
    3.9047    1.1278    0.0071 H   0  0  0  0  0  0  0  0  0  0  0  0
    3.9683    3.3895    0.1830 H   0  0  0  0  0  0  0  0  0  0  0  0
    4.9843    5.4723   -0.6716 H   0  0  0  0  0  0  0  0  0  0  0  0
    6.6619    5.3732   -2.5170 H   0  0  0  0  0  0  0  0  0  0  0  0
    6.7312    1.1546   -2.1619 H   0  0  0  0  0  0  0  0  0  0  0  0
    8.7587    1.8813   -4.7534 H   0  0  0  0  0  0  0  0  0  0  0  0
    7.2186    1.2151   -4.2189 H   0  0  0  0  0  0  0  0  0  0  0  0
    8.6172    1.3312   -3.0827 H   0  0  0  0  0  0  0  0  0  0  0  0
    4.8794   -3.2982    0.3232 H   0  0  0  0  0  0  0  0  0  0  0  0
    4.6836   -2.6471    1.9569 H   0  0  0  0  0  0  0  0  0  0  0  0
    7.0587   -4.3406    0.5863 H   0  0  0  0  0  0  0  0  0  0  0  0
    9.3739   -5.2163    0.5356 H   0  0  0  0  0  0  0  0  0  0  0  0
   11.4769   -6.0893    0.9236 H   0  0  0  0  0  0  0  0  0  0  0  0
   12.4964   -5.0572    1.9238 H   0  0  0  0  0  0  0  0  0  0  0  0
   12.8012   -5.1922    0.1602 H   0  0  0  0  0  0  0  0  0  0  0  0
   11.0982   -0.5564    0.5244 H   0  0  0  0  0  0  0  0  0  0  0  0
   13.6773   -3.2417    1.0782 H   0  0  0  0  0  0  0  0  0  0  0  0
   13.1931   -1.7226    1.8072 H   0  0  0  0  0  0  0  0  0  0  0  0
   13.4949   -1.8222    0.0444 H   0  0  0  0  0  0  0  0  0  0  0  0
  1  2  1  0  0  0  0
  1 31  1  0  0  0  0
  2  3  1  0  0  0  0
  2 32  1  0  0  0  0
  2 33  1  0  0  0  0
  3  4  1  0  0  0  0
  3 34  1  0  0  0  0
  3 35  1  0  0  0  0
  4  5  1  0  0  0  0
  4 16  1  0  0  0  0
  5  6  2  0  0  0  0
  5  7  1  0  0  0  0
  7  8  1  0  0  0  0
  7 36  1  0  0  0  0
  8  9  2  0  0  0  0
  8 13  1  0  0  0  0
  9 10  1  0  0  0  0
  9 37  1  0  0  0  0
 10 11  2  0  0  0  0
 10 38  1  0  0  0  0
 11 12  1  0  0  0  0
 11 39  1  0  0  0  0
 12 13  2  0  0  0  0
 12 14  1  0  0  0  0
 13 40  1  0  0  0  0
 14 15  1  0  0  0  0
 15 41  1  0  0  0  0
 15 42  1  0  0  0  0
 15 43  1  0  0  0  0
 16 17  1  0  0  0  0
 16 44  1  0  0  0  0
 16 45  1  0  0  0  0
 17 18  2  0  0  0  0
 17 28  1  0  0  0  0
 18 19  1  0  0  0  0
 18 46  1  0  0  0  0
 19 20  2  0  0  0  0
 19 25  1  0  0  0  0
 20 21  1  0  0  0  0
 20 47  1  0  0  0  0
 21 22  1  0  0  0  0
 21 23  2  0  0  0  0
 22 48  1  0  0  0  0
 22 49  1  0  0  0  0
 22 50  1  0  0  0  0
 23 24  1  0  0  0  0
 23 30  1  0  0  0  0
 24 25  2  0  0  0  0
 24 51  1  0  0  0  0
 25 26  1  0  0  0  0
 26 27  1  0  0  0  0
 26 28  1  0  0  0  0
 28 29  2  0  0  0  0
 30 52  1  0  0  0  0
 30 53  1  0  0  0  0
 30 54  1  0  0  0  0
M  END
$$$$
