Z79
 OpenBabel04121316213D

 29 29  0  0  0  0  0  0  0  0999 V2000
    1.0656   -0.0155    0.0288 O   0  0  0  0  0  0  0  0  0  0  0  0
    2.4767   -0.0401    0.0286 N   0  0  0  0  0  0  0  0  0  0  0  0
    3.0828   -0.1624   -1.2098 C   0  0  0  0  0  0  0  0  0  0  0  0
    2.4718   -0.2358   -2.2747 O   0  0  0  0  0  0  0  0  0  0  0  0
    4.6078   -0.1632   -1.1438 C   0  0  0  0  0  0  0  0  0  0  0  0
    5.2311   -0.2819   -2.4905 N   0  0  0  0  0  0  0  0  0  0  0  0
    6.9190   -0.2741   -2.4556 S   0  0  0  0  0  0  0  0  0  0  0  0
    7.3082    1.0405   -2.0050 O   0  0  0  0  0  0  0  0  0  0  0  0
    7.3365   -1.4664   -1.7439 O   0  0  0  0  0  0  0  0  0  0  0  0
    7.3892   -0.4461   -4.1593 C   0  0  0  0  0  0  0  0  0  0  0  0
    7.7210    0.6815   -4.9160 C   0  0  0  0  0  0  0  0  0  0  0  0
    7.9858    0.5396   -6.2829 C   0  0  0  0  0  0  0  0  0  0  0  0
    8.0511   -0.7296   -6.8637 C   0  0  0  0  0  0  0  0  0  0  0  0
    7.8912   -1.8570   -6.0554 C   0  0  0  0  0  0  0  0  0  0  0  0
    7.5055   -1.7192   -4.7191 C   0  0  0  0  0  0  0  0  0  0  0  0
    8.2701   -0.7508   -8.2152 O   0  0  0  0  0  0  0  0  0  0  0  0
    8.2719   -2.0401   -8.8219 C   0  0  0  0  0  0  0  0  0  0  0  0
    0.8170    0.0735    0.9653 H   0  0  0  0  0  0  0  0  0  0  0  0
    2.9686    0.0577    0.9104 H   0  0  0  0  0  0  0  0  0  0  0  0
    4.9254   -1.0009   -0.5146 H   0  0  0  0  0  0  0  0  0  0  0  0
    4.9144    0.7851   -0.6886 H   0  0  0  0  0  0  0  0  0  0  0  0
    4.8321    0.3918   -3.1501 H   0  0  0  0  0  0  0  0  0  0  0  0
    7.7714    1.6679   -4.4615 H   0  0  0  0  0  0  0  0  0  0  0  0
    8.1431    1.4226   -6.8994 H   0  0  0  0  0  0  0  0  0  0  0  0
    8.0476   -2.8595   -6.4403 H   0  0  0  0  0  0  0  0  0  0  0  0
    7.3046   -2.6105   -4.1291 H   0  0  0  0  0  0  0  0  0  0  0  0
    8.3685   -1.9148   -9.9039 H   0  0  0  0  0  0  0  0  0  0  0  0
    7.3343   -2.5768   -8.6337 H   0  0  0  0  0  0  0  0  0  0  0  0
    9.1330   -2.6185   -8.4721 H   0  0  0  0  0  0  0  0  0  0  0  0
  1  2  1  0  0  0  0
  1 18  1  0  0  0  0
  2  3  1  0  0  0  0
  2 19  1  0  0  0  0
  3  4  2  0  0  0  0
  3  5  1  0  0  0  0
  5  6  1  0  0  0  0
  5 20  1  0  0  0  0
  5 21  1  0  0  0  0
  6  7  1  0  0  0  0
  6 22  1  0  0  0  0
  7  8  2  0  0  0  0
  7  9  2  0  0  0  0
  7 10  1  0  0  0  0
 10 11  2  0  0  0  0
 10 15  1  0  0  0  0
 11 12  1  0  0  0  0
 11 23  1  0  0  0  0
 12 13  2  0  0  0  0
 12 24  1  0  0  0  0
 13 14  1  0  0  0  0
 13 16  1  0  0  0  0
 14 15  2  0  0  0  0
 14 25  1  0  0  0  0
 15 26  1  0  0  0  0
 16 17  1  0  0  0  0
 17 27  1  0  0  0  0
 17 28  1  0  0  0  0
 17 29  1  0  0  0  0
M  END
$$$$
