Z81
 OpenBabel04121316213D

 44 47  0  0  1  0  0  0  0  0999 V2000
    0.9151    0.0641    0.1898 F   0  0  0  0  0  0  0  0  0  0  0  0
    2.2521    0.0746    0.1139 C   0  0  0  0  0  0  0  0  0  0  0  0
    2.9314    1.2765    0.0447 C   0  0  0  0  0  0  0  0  0  0  0  0
    4.3194    1.2627   -0.0279 C   0  0  0  0  0  0  0  0  0  0  0  0
    4.9978    0.0533   -0.1774 C   0  0  0  0  0  0  0  0  0  0  0  0
    4.3277   -1.1802   -0.1926 C   0  0  0  0  0  0  0  0  0  0  0  0
    2.9376   -1.1327    0.0686 C   0  0  0  0  0  0  0  0  0  0  0  0
    5.0143   -2.4580   -0.5139 C   0  0  0  0  0  0  0  0  0  0  0  0
    6.2595   -2.5607   -1.1359 C   0  0  0  0  0  0  0  0  0  0  0  0
    6.8495   -3.8083   -1.4020 C   0  0  0  0  0  0  0  0  0  0  0  0
    6.2010   -5.0032   -1.0796 C   0  0  0  0  0  0  0  0  0  0  0  0
    4.9631   -4.9551   -0.4644 C   0  0  0  0  0  0  0  0  0  0  0  0
    4.3873   -3.6774   -0.2689 C   0  0  0  0  0  0  0  0  0  0  0  0
    4.1178   -6.1583   -0.0389 C   0  0  1  0  0  0  0  0  0  0  0  0
    2.8738   -6.0865   -0.8981 N   0  0  0  0  0  0  0  0  0  0  0  0
    2.7108   -7.2578   -1.4174 C   0  0  0  0  0  0  0  0  0  0  0  0
    3.5949   -8.1997   -1.0407 N   0  0  0  0  0  0  0  0  0  0  0  0
    4.6357   -7.5716   -0.4058 C   0  0  0  0  0  0  0  0  0  0  0  0
    5.6942   -8.0997   -0.0584 O   0  0  0  0  0  0  0  0  0  0  0  0
    3.3338   -9.6243   -0.9381 C   0  0  0  0  0  0  0  0  0  0  0  0
    1.7193   -7.5210   -2.3035 N   0  0  0  0  0  0  0  0  0  0  0  0
    3.7914   -6.1506    1.5000 C   0  0  0  0  0  0  0  0  0  0  0  0
    3.6028   -7.3476    2.2052 C   0  0  0  0  0  0  0  0  0  0  0  0
    3.2121   -7.3184    3.5373 C   0  0  0  0  0  0  0  0  0  0  0  0
    3.0738   -6.1968    4.2659 N   0  0  0  0  0  0  0  0  0  0  0  0
    3.3688   -5.0564    3.6330 C   0  0  0  0  0  0  0  0  0  0  0  0
    3.7053   -4.9921    2.2928 C   0  0  0  0  0  0  0  0  0  0  0  0
    6.3288    0.1204   -0.3281 F   0  0  0  0  0  0  0  0  0  0  0  0
    2.3785    2.2077    0.0526 H   0  0  0  0  0  0  0  0  0  0  0  0
    4.8906    2.1840   -0.0042 H   0  0  0  0  0  0  0  0  0  0  0  0
    2.3245   -2.0195    0.1960 H   0  0  0  0  0  0  0  0  0  0  0  0
    6.7838   -1.6739   -1.4805 H   0  0  0  0  0  0  0  0  0  0  0  0
    7.8242   -3.8392   -1.8806 H   0  0  0  0  0  0  0  0  0  0  0  0
    6.6560   -5.9501   -1.3503 H   0  0  0  0  0  0  0  0  0  0  0  0
    3.3755   -3.6695    0.1266 H   0  0  0  0  0  0  0  0  0  0  0  0
    2.4037   -9.8964   -1.4438 H   0  0  0  0  0  0  0  0  0  0  0  0
    3.2072   -9.8806    0.1230 H   0  0  0  0  0  0  0  0  0  0  0  0
    4.1753  -10.1985   -1.3254 H   0  0  0  0  0  0  0  0  0  0  0  0
    1.3717   -6.7079   -2.8047 H   0  0  0  0  0  0  0  0  0  0  0  0
    1.7150   -8.3771   -2.8418 H   0  0  0  0  0  0  0  0  0  0  0  0
    3.7988   -8.3211    1.7731 H   0  0  0  0  0  0  0  0  0  0  0  0
    3.0093   -8.2417    4.0674 H   0  0  0  0  0  0  0  0  0  0  0  0
    3.3631   -4.1470    4.2266 H   0  0  0  0  0  0  0  0  0  0  0  0
    3.9430   -3.9943    1.9645 H   0  0  0  0  0  0  0  0  0  0  0  0
  1  2  1  0  0  0  0
  2  3  2  0  0  0  0
  2  7  1  0  0  0  0
  3  4  1  0  0  0  0
  3 29  1  0  0  0  0
  4  5  2  0  0  0  0
  4 30  1  0  0  0  0
  5  6  1  0  0  0  0
  5 28  1  0  0  0  0
  6  7  2  0  0  0  0
  6  8  1  0  0  0  0
  7 31  1  0  0  0  0
  8  9  2  0  0  0  0
  8 13  1  0  0  0  0
  9 10  1  0  0  0  0
  9 32  1  0  0  0  0
 10 11  2  0  0  0  0
 10 33  1  0  0  0  0
 11 12  1  0  0  0  0
 11 34  1  0  0  0  0
 12 13  2  0  0  0  0
 13 35  1  0  0  0  0
 14 12  1  6  0  0  0
 14 15  1  0  0  0  0
 14 18  1  0  0  0  0
 14 22  1  0  0  0  0
 15 16  2  0  0  0  0
 16 17  1  0  0  0  0
 16 21  1  0  0  0  0
 17 18  1  0  0  0  0
 17 20  1  0  0  0  0
 18 19  2  0  0  0  0
 20 36  1  0  0  0  0
 20 37  1  0  0  0  0
 20 38  1  0  0  0  0
 21 39  1  0  0  0  0
 21 40  1  0  0  0  0
 22 23  2  0  0  0  0
 22 27  1  0  0  0  0
 23 24  1  0  0  0  0
 23 41  1  0  0  0  0
 24 25  2  0  0  0  0
 24 42  1  0  0  0  0
 25 26  1  0  0  0  0
 26 27  2  0  0  0  0
 26 43  1  0  0  0  0
 27 44  1  0  0  0  0
M  END
$$$$
