Z84
 OpenBabel04121316213D

 65 68  0  0  0  0  0  0  0  0999 V2000
    0.9967   -0.0873   -0.0121 O   0  0  0  0  0  0  0  0  0  0  0  0
    2.2208   -0.1068   -0.0855 C   0  0  0  0  0  0  0  0  0  0  0  0
    3.0058   -0.7822    0.8877 N   0  0  0  0  0  0  0  0  0  0  0  0
    2.3957   -1.4587    1.9230 C   0  0  0  0  0  0  0  0  0  0  0  0
    2.5209   -2.8047    2.0905 C   0  0  0  0  0  0  0  0  0  0  0  0
    1.7098   -3.1087    3.2051 C   0  0  0  0  0  0  0  0  0  0  0  0
    1.0578   -2.0271    3.6584 N   0  0  0  0  0  0  0  0  0  0  0  0
    1.5022   -1.0144    2.8784 N   0  0  0  0  0  0  0  0  0  0  0  0
    1.1330    0.3195    3.1154 C   0  0  0  0  0  0  0  0  0  0  0  0
   -0.2166    0.6260    3.2825 C   0  0  0  0  0  0  0  0  0  0  0  0
   -0.6064    1.9588    3.1946 C   0  0  0  0  0  0  0  0  0  0  0  0
    0.3543    2.9764    3.1170 C   0  0  0  0  0  0  0  0  0  0  0  0
    1.7152    2.6525    3.1486 C   0  0  0  0  0  0  0  0  0  0  0  0
    2.1069    1.3233    3.0624 C   0  0  0  0  0  0  0  0  0  0  0  0
   -0.0665    4.4061    2.9721 C   0  0  0  0  0  0  0  0  0  0  0  0
    1.5307   -4.4619    3.8517 C   0  0  0  0  0  0  0  0  0  0  0  0
    2.1048   -4.4428    5.2789 C   0  0  0  0  0  0  0  0  0  0  0  0
    0.0417   -4.8345    3.8986 C   0  0  0  0  0  0  0  0  0  0  0  0
    2.2812   -5.5418    3.0429 C   0  0  0  0  0  0  0  0  0  0  0  0
    2.9244    0.5382   -1.0405 N   0  0  0  0  0  0  0  0  0  0  0  0
    4.2772    0.5537   -1.0508 C   0  0  0  0  0  0  0  0  0  0  0  0
    4.9512    2.0980   -1.2077 S   0  0  0  0  0  0  0  0  0  0  0  0
    6.4881    1.3859   -1.0450 C   0  0  0  0  0  0  0  0  0  0  0  0
    6.3870    0.0024   -0.9740 C   0  0  0  0  0  0  0  0  0  0  0  0
    5.0848   -0.4567   -0.8341 N   0  0  0  0  0  0  0  0  0  0  0  0
    7.5386   -0.9593   -1.0016 C   0  0  0  0  0  0  0  0  0  0  0  0
    8.8532   -0.1875   -1.0225 C   0  0  0  0  0  0  0  0  0  0  0  0
    9.9655   -1.0502   -1.0145 O   0  0  0  0  0  0  0  0  0  0  0  0
   11.1691   -0.2790   -1.0184 C   0  0  0  0  0  0  0  0  0  0  0  0
   12.3488   -1.1967   -1.0394 C   0  0  0  0  0  0  0  0  0  0  0  0
   13.6355   -0.6657   -1.1290 C   0  0  0  0  0  0  0  0  0  0  0  0
   14.6899   -1.5424   -1.3078 C   0  0  0  0  0  0  0  0  0  0  0  0
   14.5650   -2.8857   -1.2637 N   0  0  0  0  0  0  0  0  0  0  0  0
   13.3244   -3.3743   -1.0632 C   0  0  0  0  0  0  0  0  0  0  0  0
   12.1961   -2.5839   -0.9993 C   0  0  0  0  0  0  0  0  0  0  0  0
    3.9963   -0.9379    0.7169 H   0  0  0  0  0  0  0  0  0  0  0  0
    3.0756   -3.4843    1.4613 H   0  0  0  0  0  0  0  0  0  0  0  0
   -0.9681   -0.1549    3.3729 H   0  0  0  0  0  0  0  0  0  0  0  0
   -1.6667    2.2007    3.1622 H   0  0  0  0  0  0  0  0  0  0  0  0
    2.4687    3.4339    3.2121 H   0  0  0  0  0  0  0  0  0  0  0  0
    3.1644    1.0834    2.9895 H   0  0  0  0  0  0  0  0  0  0  0  0
   -1.1546    4.4910    2.8914 H   0  0  0  0  0  0  0  0  0  0  0  0
    0.3652    4.8233    2.0555 H   0  0  0  0  0  0  0  0  0  0  0  0
    0.2667    4.9887    3.8342 H   0  0  0  0  0  0  0  0  0  0  0  0
    1.5905   -3.7083    5.9094 H   0  0  0  0  0  0  0  0  0  0  0  0
    3.1696   -4.1796    5.2732 H   0  0  0  0  0  0  0  0  0  0  0  0
    2.0030   -5.4232    5.7565 H   0  0  0  0  0  0  0  0  0  0  0  0
   -0.5332   -4.1130    4.4907 H   0  0  0  0  0  0  0  0  0  0  0  0
   -0.1024   -5.8234    4.3453 H   0  0  0  0  0  0  0  0  0  0  0  0
   -0.3893   -4.8489    2.8906 H   0  0  0  0  0  0  0  0  0  0  0  0
    3.3556   -5.3211    2.9913 H   0  0  0  0  0  0  0  0  0  0  0  0
    1.9072   -5.5907    2.0123 H   0  0  0  0  0  0  0  0  0  0  0  0
    2.1690   -6.5339    3.4878 H   0  0  0  0  0  0  0  0  0  0  0  0
    2.4283    1.2551   -1.5462 H   0  0  0  0  0  0  0  0  0  0  0  0
    7.3776    1.9987   -1.0666 H   0  0  0  0  0  0  0  0  0  0  0  0
    7.4809   -1.6104   -1.8854 H   0  0  0  0  0  0  0  0  0  0  0  0
    7.5068   -1.6262   -0.1322 H   0  0  0  0  0  0  0  0  0  0  0  0
    8.9081    0.4577   -0.1371 H   0  0  0  0  0  0  0  0  0  0  0  0
    8.9004    0.4391   -1.9232 H   0  0  0  0  0  0  0  0  0  0  0  0
   11.2033    0.3553   -0.1247 H   0  0  0  0  0  0  0  0  0  0  0  0
   11.1886    0.3509   -1.9179 H   0  0  0  0  0  0  0  0  0  0  0  0
   13.8145    0.4033   -1.0832 H   0  0  0  0  0  0  0  0  0  0  0  0
   15.6924   -1.1749   -1.5032 H   0  0  0  0  0  0  0  0  0  0  0  0
   13.2509   -4.4502   -0.9449 H   0  0  0  0  0  0  0  0  0  0  0  0
   11.2168   -3.0443   -0.9135 H   0  0  0  0  0  0  0  0  0  0  0  0
  1  2  2  0  0  0  0
  2  3  1  0  0  0  0
  2 20  1  0  0  0  0
  3  4  1  0  0  0  0
  3 36  1  0  0  0  0
  4  5  2  0  0  0  0
  4  8  1  0  0  0  0
  5  6  1  0  0  0  0
  5 37  1  0  0  0  0
  6  7  2  0  0  0  0
  6 16  1  0  0  0  0
  7  8  1  0  0  0  0
  8  9  1  0  0  0  0
  9 10  2  0  0  0  0
  9 14  1  0  0  0  0
 10 11  1  0  0  0  0
 10 38  1  0  0  0  0
 11 12  2  0  0  0  0
 11 39  1  0  0  0  0
 12 13  1  0  0  0  0
 12 15  1  0  0  0  0
 13 14  2  0  0  0  0
 13 40  1  0  0  0  0
 14 41  1  0  0  0  0
 15 42  1  0  0  0  0
 15 43  1  0  0  0  0
 15 44  1  0  0  0  0
 16 17  1  0  0  0  0
 16 18  1  0  0  0  0
 16 19  1  0  0  0  0
 17 45  1  0  0  0  0
 17 46  1  0  0  0  0
 17 47  1  0  0  0  0
 18 48  1  0  0  0  0
 18 49  1  0  0  0  0
 18 50  1  0  0  0  0
 19 51  1  0  0  0  0
 19 52  1  0  0  0  0
 19 53  1  0  0  0  0
 20 21  1  0  0  0  0
 20 54  1  0  0  0  0
 21 22  1  0  0  0  0
 21 25  2  0  0  0  0
 22 23  1  0  0  0  0
 23 24  2  0  0  0  0
 23 55  1  0  0  0  0
 24 25  1  0  0  0  0
 24 26  1  0  0  0  0
 26 27  1  0  0  0  0
 26 56  1  0  0  0  0
 26 57  1  0  0  0  0
 27 28  1  0  0  0  0
 27 58  1  0  0  0  0
 27 59  1  0  0  0  0
 28 29  1  0  0  0  0
 29 30  1  0  0  0  0
 29 60  1  0  0  0  0
 29 61  1  0  0  0  0
 30 31  2  0  0  0  0
 30 35  1  0  0  0  0
 31 32  1  0  0  0  0
 31 62  1  0  0  0  0
 32 33  2  0  0  0  0
 32 63  1  0  0  0  0
 33 34  1  0  0  0  0
 34 35  2  0  0  0  0
 34 64  1  0  0  0  0
 35 65  1  0  0  0  0
M  END
$$$$
