Z89
 OpenBabel04121316213D

 35 37  0  0  1  0  0  0  0  0999 V2000
    0.8426    0.0232    0.0574 O   0  0  0  0  0  0  0  0  0  0  0  0
    2.1838   -0.1036   -0.0544 C   0  0  0  0  0  0  0  0  0  0  0  0
    2.6393   -0.8586   -0.8768 O   0  0  0  0  0  0  0  0  0  0  0  0
    2.9880    0.7875    0.8858 C   0  0  0  0  0  0  0  0  0  0  0  0
    4.5329    0.7314    0.6804 C   0  0  1  0  0  0  0  0  0  0  0  0
    4.8186   -0.3326    0.7428 H   0  0  0  0  0  0  0  0  0  0  0  0
    4.9740    1.3002   -0.6197 N   0  0  0  0  0  0  0  0  0  0  0  0
    5.3057    2.5768   -0.9560 C   0  0  0  0  0  0  0  0  0  0  0  0
    6.5124    3.5149   -0.3030 S   0  0  0  0  0  0  0  0  0  0  0  0
    4.5478    2.9823   -2.4704 S   0  0  0  0  0  0  0  0  0  0  0  0
    4.5264    1.3243   -2.9720 C   0  0  0  0  0  0  0  0  0  0  0  0
    4.2767    0.9562   -4.2419 C   0  0  0  0  0  0  0  0  0  0  0  0
    4.0019    1.8447   -5.4474 C   0  0  0  0  0  0  0  0  0  0  0  0
    3.9903    3.0614   -5.5026 O   0  0  0  0  0  0  0  0  0  0  0  0
    3.7774    0.9648   -6.5147 N   0  0  0  0  0  0  0  0  0  0  0  0
    3.8863   -0.3697   -6.1022 C   0  0  0  0  0  0  0  0  0  0  0  0
    4.2011   -0.4013   -4.7530 C   0  0  0  0  0  0  0  0  0  0  0  0
    4.3904   -1.5972   -4.1146 C   0  0  0  0  0  0  0  0  0  0  0  0
    4.2294   -2.7925   -4.7604 C   0  0  0  0  0  0  0  0  0  0  0  0
    4.4684   -4.3477   -3.7148 Br  0  0  0  0  0  0  0  0  0  0  0  0
    3.9121   -2.7875   -6.1078 C   0  0  0  0  0  0  0  0  0  0  0  0
    3.7449   -1.5626   -6.8040 C   0  0  0  0  0  0  0  0  0  0  0  0
    4.8450    0.5081   -1.7244 C   0  0  0  0  0  0  0  0  0  0  0  0
    5.1360   -0.6726   -1.5950 O   0  0  0  0  0  0  0  0  0  0  0  0
    5.2415    1.4102    1.8438 C   0  0  0  0  0  0  0  0  0  0  0  0
    4.6553    2.0700    2.6908 O   0  0  0  0  0  0  0  0  0  0  0  0
    6.5821    1.2336    1.8712 O   0  0  0  0  0  0  0  0  0  0  0  0
    0.5083    0.1072    0.9669 H   0  0  0  0  0  0  0  0  0  0  0  0
    2.7435    0.4697    1.9072 H   0  0  0  0  0  0  0  0  0  0  0  0
    2.6565    1.8223    0.7538 H   0  0  0  0  0  0  0  0  0  0  0  0
    3.5763    1.3041   -7.4469 H   0  0  0  0  0  0  0  0  0  0  0  0
    4.6712   -1.6682   -3.0980 H   0  0  0  0  0  0  0  0  0  0  0  0
    3.8085   -3.7463   -6.6029 H   0  0  0  0  0  0  0  0  0  0  0  0
    3.5104   -1.5962   -7.8611 H   0  0  0  0  0  0  0  0  0  0  0  0
    6.9745    0.8529    1.0588 H   0  0  0  0  0  0  0  0  0  0  0  0
  1  2  1  0  0  0  0
  1 28  1  0  0  0  0
  2  3  2  0  0  0  0
  2  4  1  0  0  0  0
  4  5  1  0  0  0  0
  4 29  1  0  0  0  0
  4 30  1  0  0  0  0
  5  6  1  1  0  0  0
  5  7  1  0  0  0  0
  5 25  1  0  0  0  0
  7  8  1  0  0  0  0
  7 23  1  0  0  0  0
  8  9  2  0  0  0  0
  8 10  1  0  0  0  0
 10 11  1  0  0  0  0
 11 12  2  0  0  0  0
 11 23  1  0  0  0  0
 12 13  1  0  0  0  0
 12 17  1  0  0  0  0
 13 14  2  0  0  0  0
 13 15  1  0  0  0  0
 15 16  1  0  0  0  0
 15 31  1  0  0  0  0
 16 17  2  0  0  0  0
 16 22  1  0  0  0  0
 17 18  1  0  0  0  0
 18 19  2  0  0  0  0
 18 32  1  0  0  0  0
 19 20  1  0  0  0  0
 19 21  1  0  0  0  0
 21 22  2  0  0  0  0
 21 33  1  0  0  0  0
 22 34  1  0  0  0  0
 23 24  2  0  0  0  0
 25 26  2  0  0  0  0
 25 27  1  0  0  0  0
 27 35  1  0  0  0  0
M  END
$$$$
