Z90
 OpenBabel04121316213D

 81 84  0  0  0  0  0  0  0  0999 V2000
    1.0482    0.0463    0.0769 O   0  0  0  0  0  0  0  0  0  0  0  0
    2.3818   -0.0579   -0.0769 C   0  0  0  0  0  0  0  0  0  0  0  0
    2.8941   -0.4297   -1.1193 O   0  0  0  0  0  0  0  0  0  0  0  0
    3.1357    0.3454    1.1540 C   0  0  0  0  0  0  0  0  0  0  0  0
    4.6348    0.2944    0.8323 C   0  0  0  0  0  0  0  0  0  0  0  0
    5.4049    0.7195    2.0413 C   0  0  0  0  0  0  0  0  0  0  0  0
    6.9111    0.6306    1.9559 C   0  0  0  0  0  0  0  0  0  0  0  0
    7.5605    1.1139    3.2011 N   0  0  0  0  0  0  0  0  0  0  0  0
    7.2481    0.3260    4.4379 C   0  0  0  0  0  0  0  0  0  0  0  0
    5.8050    0.2523    4.8665 C   0  0  0  0  0  0  0  0  0  0  0  0
    5.0915   -0.9626    4.9446 C   0  0  0  0  0  0  0  0  0  0  0  0
    3.6948   -0.9319    4.8987 C   0  0  0  0  0  0  0  0  0  0  0  0
    3.0157    0.2998    4.9135 C   0  0  0  0  0  0  0  0  0  0  0  0
    3.7472    1.4910    5.0079 C   0  0  0  0  0  0  0  0  0  0  0  0
    5.1316    1.4662    4.9626 C   0  0  0  0  0  0  0  0  0  0  0  0
    1.5333    0.2644    4.7289 C   0  0  0  0  0  0  0  0  0  0  0  0
    0.9263   -0.7650    4.5600 O   0  0  0  0  0  0  0  0  0  0  0  0
    0.9198    1.4705    4.7017 O   0  0  0  0  0  0  0  0  0  0  0  0
    9.0104    1.2452    2.8961 C   0  0  0  0  0  0  0  0  0  0  0  0
    9.8642    1.5550    4.1427 C   0  0  0  0  0  0  0  0  0  0  0  0
   11.3281    1.3067    3.9232 C   0  0  0  0  0  0  0  0  0  0  0  0
   12.1156    2.4625    3.8074 C   0  0  0  0  0  0  0  0  0  0  0  0
   13.4309    2.3829    3.3770 C   0  0  0  0  0  0  0  0  0  0  0  0
   14.0197    1.1390    3.1970 C   0  0  0  0  0  0  0  0  0  0  0  0
   13.2960   -0.0196    3.4729 C   0  0  0  0  0  0  0  0  0  0  0  0
   11.9353    0.0421    3.7913 C   0  0  0  0  0  0  0  0  0  0  0  0
   11.3826   -1.2070    3.9040 O   0  0  0  0  0  0  0  0  0  0  0  0
   10.0276   -1.3020    4.2821 C   0  0  0  0  0  0  0  0  0  0  0  0
    9.4359   -2.6507    4.1449 C   0  0  0  0  0  0  0  0  0  0  0  0
   10.2059   -3.7284    4.5120 C   0  0  0  0  0  0  0  0  0  0  0  0
    9.7012   -4.9752    4.2703 C   0  0  0  0  0  0  0  0  0  0  0  0
    8.3605   -5.1174    3.8947 C   0  0  0  0  0  0  0  0  0  0  0  0
    7.5273   -4.0279    3.7400 C   0  0  0  0  0  0  0  0  0  0  0  0
    8.1195   -2.8158    3.6840 C   0  0  0  0  0  0  0  0  0  0  0  0
    7.8616   -6.4697    3.5725 C   0  0  0  0  0  0  0  0  0  0  0  0
    6.3730   -6.4679    3.2237 C   0  0  0  0  0  0  0  0  0  0  0  0
    5.9125   -7.8445    2.9233 C   0  0  0  0  0  0  0  0  0  0  0  0
    6.3979   -8.9148    3.6786 C   0  0  0  0  0  0  0  0  0  0  0  0
    6.1883  -10.2047    3.2448 C   0  0  0  0  0  0  0  0  0  0  0  0
    5.3350  -10.4265    2.1707 C   0  0  0  0  0  0  0  0  0  0  0  0
    4.6964   -9.3604    1.5336 C   0  0  0  0  0  0  0  0  0  0  0  0
    5.0298   -8.0594    1.8688 C   0  0  0  0  0  0  0  0  0  0  0  0
    0.7118   -0.7041    0.6064 H   0  0  0  0  0  0  0  0  0  0  0  0
    2.8844   -0.3423    1.9717 H   0  0  0  0  0  0  0  0  0  0  0  0
    2.8457    1.3595    1.4569 H   0  0  0  0  0  0  0  0  0  0  0  0
    4.8855    0.9415   -0.0098 H   0  0  0  0  0  0  0  0  0  0  0  0
    4.9168   -0.7357    0.5828 H   0  0  0  0  0  0  0  0  0  0  0  0
    5.0742   -0.0150    2.7538 H   0  0  0  0  0  0  0  0  0  0  0  0
    5.1065    1.7279    2.3461 H   0  0  0  0  0  0  0  0  0  0  0  0
    7.2265    1.2630    1.1159 H   0  0  0  0  0  0  0  0  0  0  0  0
    7.2171   -0.3947    1.7116 H   0  0  0  0  0  0  0  0  0  0  0  0
    7.7686    0.6917    5.3231 H   0  0  0  0  0  0  0  0  0  0  0  0
    7.5758   -0.6787    4.3368 H   0  0  0  0  0  0  0  0  0  0  0  0
    5.5924   -1.9277    4.8892 H   0  0  0  0  0  0  0  0  0  0  0  0
    3.1438   -1.8653    4.7702 H   0  0  0  0  0  0  0  0  0  0  0  0
    3.3050    2.4759    5.0193 H   0  0  0  0  0  0  0  0  0  0  0  0
    5.6915    2.3872    4.8006 H   0  0  0  0  0  0  0  0  0  0  0  0
    1.4647    2.2643    4.8055 H   0  0  0  0  0  0  0  0  0  0  0  0
    9.1766    2.0452    2.1637 H   0  0  0  0  0  0  0  0  0  0  0  0
    9.3710    0.3863    2.3044 H   0  0  0  0  0  0  0  0  0  0  0  0
    9.6132    1.0030    5.0450 H   0  0  0  0  0  0  0  0  0  0  0  0
    9.6549    2.5913    4.4263 H   0  0  0  0  0  0  0  0  0  0  0  0
   11.6835    3.4384    4.0209 H   0  0  0  0  0  0  0  0  0  0  0  0
   13.9854    3.2934    3.1750 H   0  0  0  0  0  0  0  0  0  0  0  0
   15.0446    1.0693    2.8479 H   0  0  0  0  0  0  0  0  0  0  0  0
   13.7904   -0.9870    3.4136 H   0  0  0  0  0  0  0  0  0  0  0  0
    9.4487   -0.8053    3.5466 H   0  0  0  0  0  0  0  0  0  0  0  0
    9.8515   -0.9458    5.2997 H   0  0  0  0  0  0  0  0  0  0  0  0
   11.2118   -3.5691    4.8809 H   0  0  0  0  0  0  0  0  0  0  0  0
   10.3573   -5.8315    4.3599 H   0  0  0  0  0  0  0  0  0  0  0  0
    6.4620   -4.0796    3.5379 H   0  0  0  0  0  0  0  0  0  0  0  0
    7.4943   -2.0518    3.2415 H   0  0  0  0  0  0  0  0  0  0  0  0
    8.0819   -7.0751    4.4536 H   0  0  0  0  0  0  0  0  0  0  0  0
    8.4450   -6.8553    2.7250 H   0  0  0  0  0  0  0  0  0  0  0  0
    6.2123   -5.8321    2.3376 H   0  0  0  0  0  0  0  0  0  0  0  0
    5.7655   -6.0632    4.0426 H   0  0  0  0  0  0  0  0  0  0  0  0
    6.9918   -8.7504    4.5735 H   0  0  0  0  0  0  0  0  0  0  0  0
    6.6941  -11.0204    3.7489 H   0  0  0  0  0  0  0  0  0  0  0  0
    5.1595  -11.4412    1.8360 H   0  0  0  0  0  0  0  0  0  0  0  0
    3.9612   -9.5420    0.7579 H   0  0  0  0  0  0  0  0  0  0  0  0
    4.6251   -7.2224    1.3025 H   0  0  0  0  0  0  0  0  0  0  0  0
  1  2  1  0  0  0  0
  1 43  1  0  0  0  0
  2  3  2  0  0  0  0
  2  4  1  0  0  0  0
  4  5  1  0  0  0  0
  4 44  1  0  0  0  0
  4 45  1  0  0  0  0
  5  6  1  0  0  0  0
  5 46  1  0  0  0  0
  5 47  1  0  0  0  0
  6  7  1  0  0  0  0
  6 48  1  0  0  0  0
  6 49  1  0  0  0  0
  7  8  1  0  0  0  0
  7 50  1  0  0  0  0
  7 51  1  0  0  0  0
  8  9  1  0  0  0  0
  8 19  1  0  0  0  0
  9 10  1  0  0  0  0
  9 52  1  0  0  0  0
  9 53  1  0  0  0  0
 10 11  2  0  0  0  0
 10 15  1  0  0  0  0
 11 12  1  0  0  0  0
 11 54  1  0  0  0  0
 12 13  2  0  0  0  0
 12 55  1  0  0  0  0
 13 14  1  0  0  0  0
 13 16  1  0  0  0  0
 14 15  2  0  0  0  0
 14 56  1  0  0  0  0
 15 57  1  0  0  0  0
 16 17  2  0  0  0  0
 16 18  1  0  0  0  0
 18 58  1  0  0  0  0
 19 20  1  0  0  0  0
 19 59  1  0  0  0  0
 19 60  1  0  0  0  0
 20 21  1  0  0  0  0
 20 61  1  0  0  0  0
 20 62  1  0  0  0  0
 21 22  2  0  0  0  0
 21 26  1  0  0  0  0
 22 23  1  0  0  0  0
 22 63  1  0  0  0  0
 23 24  2  0  0  0  0
 23 64  1  0  0  0  0
 24 25  1  0  0  0  0
 24 65  1  0  0  0  0
 25 26  2  0  0  0  0
 25 66  1  0  0  0  0
 26 27  1  0  0  0  0
 27 28  1  0  0  0  0
 28 29  1  0  0  0  0
 28 67  1  0  0  0  0
 28 68  1  0  0  0  0
 29 30  2  0  0  0  0
 29 34  1  0  0  0  0
 30 31  1  0  0  0  0
 30 69  1  0  0  0  0
 31 32  2  0  0  0  0
 31 70  1  0  0  0  0
 32 33  1  0  0  0  0
 32 35  1  0  0  0  0
 33 34  2  0  0  0  0
 33 71  1  0  0  0  0
 34 72  1  0  0  0  0
 35 36  1  0  0  0  0
 35 73  1  0  0  0  0
 35 74  1  0  0  0  0
 36 37  1  0  0  0  0
 36 75  1  0  0  0  0
 36 76  1  0  0  0  0
 37 38  2  0  0  0  0
 37 42  1  0  0  0  0
 38 39  1  0  0  0  0
 38 77  1  0  0  0  0
 39 40  2  0  0  0  0
 39 78  1  0  0  0  0
 40 41  1  0  0  0  0
 40 79  1  0  0  0  0
 41 42  2  0  0  0  0
 41 80  1  0  0  0  0
 42 81  1  0  0  0  0
M  END
$$$$
