Z98
 OpenBabel04121316213D

 41 41  0  0  1  0  0  0  0  0999 V2000
    3.3411    1.7276   -3.1167 O   0  0  0  0  0  0  0  0  0  0  0  0
    2.8360    0.7593   -2.3245 C   0  0  0  0  0  0  0  0  0  0  0  0
    2.1610   -0.1490   -2.8018 O   0  0  0  0  0  0  0  0  0  0  0  0
    3.2053    0.9350   -0.8504 C   0  0  2  0  0  0  0  0  0  0  0  0
    2.6436    0.1869   -0.2759 H   0  0  0  0  0  0  0  0  0  0  0  0
    2.8541    2.3393   -0.3515 C   0  0  0  0  0  0  0  0  0  0  0  0
    1.3667    2.5703   -0.5038 C   0  0  0  0  0  0  0  0  0  0  0  0
    1.0189    3.8619    0.0829 N   0  0  0  0  0  0  0  0  0  0  0  0
   -0.2445    4.1442    0.0854 C   0  0  0  0  0  0  0  0  0  0  0  0
   -1.3205    3.2878   -0.4577 C   0  0  0  0  0  0  0  0  0  0  0  0
   -1.9187    3.5678   -1.6806 C   0  0  0  0  0  0  0  0  0  0  0  0
   -2.8116    2.6400   -2.2006 C   0  0  0  0  0  0  0  0  0  0  0  0
   -3.0915    1.4708   -1.6052 N   0  0  0  0  0  0  0  0  0  0  0  0
   -2.4921    1.2253   -0.4143 C   0  0  0  0  0  0  0  0  0  0  0  0
   -1.6375    2.1231    0.2124 C   0  0  0  0  0  0  0  0  0  0  0  0
   -1.0756    1.9054    1.4370 O   0  0  0  0  0  0  0  0  0  0  0  0
   -2.7603   -0.1055    0.1994 C   0  0  0  0  0  0  0  0  0  0  0  0
   -1.7171    4.8221   -2.4323 C   0  0  0  0  0  0  0  0  0  0  0  0
   -0.7953    5.6891   -1.8064 O   0  0  0  0  0  0  0  0  0  0  0  0
   -0.5256    7.1761   -2.6485 P   0  0  0  0  0  0  0  0  0  0  0  0
    0.4697    6.5170   -3.5939 O   0  0  0  0  0  0  0  0  0  0  0  0
   -2.0175    7.1561   -3.3089 O   0  0  0  0  0  0  0  0  0  0  0  0
   -0.2559    8.6631   -3.4906 O   0  0  0  0  0  0  0  0  0  0  0  0
    4.6475    0.6878   -0.6686 N   0  0  0  0  0  0  0  0  0  0  0  0
    3.0621    1.4794   -4.0212 H   0  0  0  0  0  0  0  0  0  0  0  0
    3.4036    3.1175   -0.8943 H   0  0  0  0  0  0  0  0  0  0  0  0
    3.1214    2.4399    0.7086 H   0  0  0  0  0  0  0  0  0  0  0  0
    0.8770    1.7508    0.0262 H   0  0  0  0  0  0  0  0  0  0  0  0
    1.0716    2.5343   -1.5598 H   0  0  0  0  0  0  0  0  0  0  0  0
   -0.5561    5.1260    0.4817 H   0  0  0  0  0  0  0  0  0  0  0  0
   -3.3410    2.8209   -3.1360 H   0  0  0  0  0  0  0  0  0  0  0  0
   -1.1046    0.9637    1.6605 H   0  0  0  0  0  0  0  0  0  0  0  0
   -3.4794   -0.6726   -0.3948 H   0  0  0  0  0  0  0  0  0  0  0  0
   -3.1619    0.0391    1.2050 H   0  0  0  0  0  0  0  0  0  0  0  0
   -1.8241   -0.6707    0.2499 H   0  0  0  0  0  0  0  0  0  0  0  0
   -2.7054    5.2947   -2.4310 H   0  0  0  0  0  0  0  0  0  0  0  0
   -1.3904    4.6097   -3.4568 H   0  0  0  0  0  0  0  0  0  0  0  0
   -2.0999    6.6125   -4.1120 H   0  0  0  0  0  0  0  0  0  0  0  0
    0.7120    8.7680   -3.5591 H   0  0  0  0  0  0  0  0  0  0  0  0
    4.8812    0.8459    0.3107 H   0  0  0  0  0  0  0  0  0  0  0  0
    5.1464    1.4105   -1.1918 H   0  0  0  0  0  0  0  0  0  0  0  0
  1  2  1  0  0  0  0
  1 25  1  0  0  0  0
  2  3  2  0  0  0  0
  4  6  1  0  0  0  0
  4 24  1  0  0  0  0
  4  5  1  1  0  0  0
  4  2  1  0  0  0  0
  6  7  1  0  0  0  0
  6 26  1  0  0  0  0
  6 27  1  0  0  0  0
  7  8  1  0  0  0  0
  7 28  1  0  0  0  0
  7 29  1  0  0  0  0
  8  9  2  0  0  0  0
  9 10  1  0  0  0  0
  9 30  1  0  0  0  0
 10 11  2  0  0  0  0
 10 15  1  0  0  0  0
 11 12  1  0  0  0  0
 11 18  1  0  0  0  0
 12 13  2  0  0  0  0
 12 31  1  0  0  0  0
 13 14  1  0  0  0  0
 14 15  2  0  0  0  0
 14 17  1  0  0  0  0
 15 16  1  0  0  0  0
 16 32  1  0  0  0  0
 17 33  1  0  0  0  0
 17 34  1  0  0  0  0
 17 35  1  0  0  0  0
 18 19  1  0  0  0  0
 18 36  1  0  0  0  0
 18 37  1  0  0  0  0
 19 20  1  0  0  0  0
 20 21  2  0  0  0  0
 20 22  1  0  0  0  0
 20 23  1  0  0  0  0
 22 38  1  0  0  0  0
 23 39  1  0  0  0  0
 24 40  1  0  0  0  0
 24 41  1  0  0  0  0
M  END
$$$$
