Z99
 OpenBabel04121316213D

 45 48  0  0  1  0  0  0  0  0999 V2000
    6.9088   -0.0883   -0.3703 O   0  0  0  0  0  0  0  0  0  0  0  0
    6.6971    1.2613   -0.6464 C   0  0  0  0  0  0  0  0  0  0  0  0
    7.0190    1.9334    0.2949 O   0  0  0  0  0  0  0  0  0  0  0  0
    5.9139    2.1312   -1.8895 C   0  0  1  0  0  0  0  0  0  0  0  0
    5.8462    3.1216   -1.4460 H   0  0  0  0  0  0  0  0  0  0  0  0
    6.0952    2.3097   -3.4270 C   0  0  0  0  0  0  0  0  0  0  0  0
    4.8279    1.5869   -2.8983 C   0  0  2  0  0  0  0  0  0  0  0  0
    4.7939    0.5657   -2.6326 H   0  0  0  0  0  0  0  0  0  0  0  0
    3.3382    1.7099   -3.3681 C   0  0  2  0  0  0  0  0  0  0  0  0
    2.3204    0.8691   -2.4726 C   0  0  0  0  0  0  0  0  0  0  0  0
    1.1996    0.5713   -2.8224 O   0  0  0  0  0  0  0  0  0  0  0  0
    2.7962    0.4445   -1.2722 O   0  0  0  0  0  0  0  0  0  0  0  0
    2.9898    1.1244   -4.8629 C   0  0  0  0  0  0  0  0  0  0  0  0
    3.2991   -0.3944   -5.2341 C   0  0  0  0  0  0  0  0  0  0  0  0
    4.5147   -0.8816   -4.5411 C   0  0  0  0  0  0  0  0  0  0  0  0
    5.6748   -0.1901   -4.8481 C   0  0  0  0  0  0  0  0  0  0  0  0
    6.7203   -0.3463   -3.9968 C   0  0  0  0  0  0  0  0  0  0  0  0
    6.5072   -1.0298   -2.8269 C   0  0  0  0  0  0  0  0  0  0  0  0
    5.3680   -1.7457   -2.4793 C   0  0  0  0  0  0  0  0  0  0  0  0
    4.3985   -1.7657   -3.4469 C   0  0  0  0  0  0  0  0  0  0  0  0
    3.3084   -2.5582   -3.2561 O   0  0  0  0  0  0  0  0  0  0  0  0
    2.4214   -2.5805   -4.3035 C   0  0  0  0  0  0  0  0  0  0  0  0
    2.2923   -1.5059   -5.2081 C   0  0  0  0  0  0  0  0  0  0  0  0
    1.4062   -1.6172   -6.2719 C   0  0  0  0  0  0  0  0  0  0  0  0
    0.6603   -2.7785   -6.4249 C   0  0  0  0  0  0  0  0  0  0  0  0
    0.7985   -3.8390   -5.5236 C   0  0  0  0  0  0  0  0  0  0  0  0
    1.6885   -3.7488   -4.4603 C   0  0  0  0  0  0  0  0  0  0  0  0
    3.0221    3.1440   -3.2937 N   0  0  0  0  0  0  0  0  0  0  0  0
    7.0902   -0.9964   -0.6930 H   0  0  0  0  0  0  0  0  0  0  0  0
    6.8735    1.9185   -4.0720 H   0  0  0  0  0  0  0  0  0  0  0  0
    6.0524    3.1848   -4.1015 H   0  0  0  0  0  0  0  0  0  0  0  0
    3.6908    0.7354   -1.0378 H   0  0  0  0  0  0  0  0  0  0  0  0
    3.5417    1.7391   -5.5917 H   0  0  0  0  0  0  0  0  0  0  0  0
    1.9312    1.3106   -5.1215 H   0  0  0  0  0  0  0  0  0  0  0  0
    3.6095   -0.3762   -6.2937 H   0  0  0  0  0  0  0  0  0  0  0  0
    5.6009    0.6945   -5.4859 H   0  0  0  0  0  0  0  0  0  0  0  0
    7.5601    0.3420   -3.9036 H   0  0  0  0  0  0  0  0  0  0  0  0
    7.2923   -0.6653   -2.2107 H   0  0  0  0  0  0  0  0  0  0  0  0
    5.1883   -2.1578   -1.4851 H   0  0  0  0  0  0  0  0  0  0  0  0
    1.3609   -0.8265   -7.0150 H   0  0  0  0  0  0  0  0  0  0  0  0
   -0.0123   -2.8602   -7.2711 H   0  0  0  0  0  0  0  0  0  0  0  0
    0.2124   -4.7417   -5.6542 H   0  0  0  0  0  0  0  0  0  0  0  0
    1.8378   -4.5829   -3.7788 H   0  0  0  0  0  0  0  0  0  0  0  0
    2.0699    3.3076   -3.6325 H   0  0  0  0  0  0  0  0  0  0  0  0
    3.6322    3.6388   -3.9420 H   0  0  0  0  0  0  0  0  0  0  0  0
  1  2  1  0  0  0  0
  1 29  1  0  0  0  0
  2  3  2  0  0  0  0
  2  4  1  0  0  0  0
  4  5  1  1  0  0  0
  4  6  1  0  0  0  0
  4  7  1  0  0  0  0
  6  7  1  0  0  0  0
  6 30  1  0  0  0  0
  6 31  1  0  0  0  0
  7  8  1  6  0  0  0
  9 13  1  6  0  0  0
  9 28  1  0  0  0  0
  9 10  1  0  0  0  0
  9  7  1  0  0  0  0
 10 11  2  0  0  0  0
 10 12  1  0  0  0  0
 12 32  1  0  0  0  0
 13 14  1  0  0  0  0
 13 33  1  0  0  0  0
 13 34  1  0  0  0  0
 14 15  1  0  0  0  0
 14 23  1  0  0  0  0
 14 35  1  0  0  0  0
 15 16  2  0  0  0  0
 15 20  1  0  0  0  0
 16 17  1  0  0  0  0
 16 36  1  0  0  0  0
 17 18  2  0  0  0  0
 17 37  1  0  0  0  0
 18 19  1  0  0  0  0
 18 38  1  0  0  0  0
 19 20  2  0  0  0  0
 19 39  1  0  0  0  0
 20 21  1  0  0  0  0
 21 22  1  0  0  0  0
 22 23  2  0  0  0  0
 22 27  1  0  0  0  0
 23 24  1  0  0  0  0
 24 25  2  0  0  0  0
 24 40  1  0  0  0  0
 25 26  1  0  0  0  0
 25 41  1  0  0  0  0
 26 27  2  0  0  0  0
 26 42  1  0  0  0  0
 27 43  1  0  0  0  0
 28 44  1  0  0  0  0
 28 45  1  0  0  0  0
M  END
$$$$
