ZAA
 OpenBabel04121316213D

 63 67  0  0  0  0  0  0  0  0999 V2000
    1.3836   -0.0396    0.4481 O   0  0  0  0  0  0  0  0  0  0  0  0
    2.7079    0.2823    0.4437 C   0  0  0  0  0  0  0  0  0  0  0  0
    3.1420    0.8492    1.4548 O   0  0  0  0  0  0  0  0  0  0  0  0
    3.5719   -0.0622   -0.9337 C   0  0  0  0  0  0  0  0  0  0  0  0
    4.9728   -0.2567   -0.6778 C   0  0  0  0  0  0  0  0  0  0  0  0
    5.8023    0.7867   -0.6092 N   0  0  0  0  0  0  0  0  0  0  0  0
    6.9882    0.1792   -0.4176 N   0  0  0  0  0  0  0  0  0  0  0  0
    6.9390   -1.2048   -0.4675 N   0  0  0  0  0  0  0  0  0  0  0  0
    5.6259   -1.4907   -0.6214 C   0  0  0  0  0  0  0  0  0  0  0  0
    5.1098   -2.9485   -0.6954 C   0  0  0  0  0  0  0  0  0  0  0  0
    3.5909   -3.2001   -0.9388 C   0  0  0  0  0  0  0  0  0  0  0  0
    3.0524   -4.4223   -1.2673 C   0  0  0  0  0  0  0  0  0  0  0  0
    1.6630   -4.5059   -1.5455 C   0  0  0  0  0  0  0  0  0  0  0  0
    0.8863   -3.3401   -1.7767 C   0  0  0  0  0  0  0  0  0  0  0  0
    1.4018   -2.1179   -1.4346 C   0  0  0  0  0  0  0  0  0  0  0  0
    2.5467   -2.3372   -0.6038 C   0  0  0  0  0  0  0  0  0  0  0  0
    0.6249   -0.9685   -1.7815 O   0  0  0  0  0  0  0  0  0  0  0  0
    1.1110    0.4127   -2.1581 C   0  0  0  0  0  0  0  0  0  0  0  0
    0.2311    1.7241   -2.3391 C   0  0  0  0  0  0  0  0  0  0  0  0
    1.0272    3.1280   -2.0867 C   0  0  0  0  0  0  0  0  0  0  0  0
    0.4400    4.4252   -2.1279 N   0  0  0  0  0  0  0  0  0  0  0  0
    1.4425    5.2898   -1.9009 C   0  0  0  0  0  0  0  0  0  0  0  0
    2.6170    4.6816   -1.6642 O   0  0  0  0  0  0  0  0  0  0  0  0
    2.3576    3.3767   -1.7803 C   0  0  0  0  0  0  0  0  0  0  0  0
    3.5470    2.6283   -1.5199 C   0  0  0  0  0  0  0  0  0  0  0  0
    1.6132    6.7548   -1.8585 C   0  0  0  0  0  0  0  0  0  0  0  0
    0.8514    7.5608   -1.0121 C   0  0  0  0  0  0  0  0  0  0  0  0
    0.9317    8.9615   -1.0895 C   0  0  0  0  0  0  0  0  0  0  0  0
    1.8752    9.5787   -1.9083 C   0  0  0  0  0  0  0  0  0  0  0  0
    2.7818    8.7920   -2.6070 C   0  0  0  0  0  0  0  0  0  0  0  0
    2.6320    7.3946   -2.6083 C   0  0  0  0  0  0  0  0  0  0  0  0
    8.2049    0.9165   -0.2517 C   0  0  0  0  0  0  0  0  0  0  0  0
    8.2547    2.3247   -0.1808 C   0  0  0  0  0  0  0  0  0  0  0  0
    9.5000    2.9841   -0.1721 C   0  0  0  0  0  0  0  0  0  0  0  0
   10.6854    2.2510   -0.1217 C   0  0  0  0  0  0  0  0  0  0  0  0
   10.6291    0.8625   -0.0587 C   0  0  0  0  0  0  0  0  0  0  0  0
    9.4038    0.2011   -0.1748 C   0  0  0  0  0  0  0  0  0  0  0  0
    0.8053    0.6357    0.8622 H   0  0  0  0  0  0  0  0  0  0  0  0
    3.4761    0.5417   -1.8088 H   0  0  0  0  0  0  0  0  0  0  0  0
    3.2657   -0.8492   -1.5997 H   0  0  0  0  0  0  0  0  0  0  0  0
    5.4097   -3.4288    0.2375 H   0  0  0  0  0  0  0  0  0  0  0  0
    5.6662   -3.4073   -1.5288 H   0  0  0  0  0  0  0  0  0  0  0  0
    3.6629   -5.3192   -1.2106 H   0  0  0  0  0  0  0  0  0  0  0  0
    1.1799   -5.4770   -1.5717 H   0  0  0  0  0  0  0  0  0  0  0  0
   -0.1319   -3.4011   -2.1400 H   0  0  0  0  0  0  0  0  0  0  0  0
    2.8145   -1.7896    0.2823 H   0  0  0  0  0  0  0  0  0  0  0  0
    1.8236    0.3665   -2.9849 H   0  0  0  0  0  0  0  0  0  0  0  0
    1.5878    0.8104   -1.3027 H   0  0  0  0  0  0  0  0  0  0  0  0
   -0.6227    1.6757   -1.6530 H   0  0  0  0  0  0  0  0  0  0  0  0
   -0.1357    1.7142   -3.3693 H   0  0  0  0  0  0  0  0  0  0  0  0
    4.4655    3.1412   -1.2587 H   0  0  0  0  0  0  0  0  0  0  0  0
    3.7528    2.0650   -2.4291 H   0  0  0  0  0  0  0  0  0  0  0  0
    3.2937    2.1067   -0.6114 H   0  0  0  0  0  0  0  0  0  0  0  0
    0.1964    7.1084   -0.2735 H   0  0  0  0  0  0  0  0  0  0  0  0
    0.2491    9.5760   -0.5083 H   0  0  0  0  0  0  0  0  0  0  0  0
    1.9120   10.6640   -1.9853 H   0  0  0  0  0  0  0  0  0  0  0  0
    3.5869    9.2678   -3.1648 H   0  0  0  0  0  0  0  0  0  0  0  0
    3.3238    6.8104   -3.2148 H   0  0  0  0  0  0  0  0  0  0  0  0
    7.3527    2.9331   -0.1268 H   0  0  0  0  0  0  0  0  0  0  0  0
    9.5567    4.0718   -0.1986 H   0  0  0  0  0  0  0  0  0  0  0  0
   11.6503    2.7551   -0.1206 H   0  0  0  0  0  0  0  0  0  0  0  0
   11.5408    0.2855    0.0670 H   0  0  0  0  0  0  0  0  0  0  0  0
    9.3959   -0.8842   -0.2150 H   0  0  0  0  0  0  0  0  0  0  0  0
  1  2  1  0  0  0  0
  1 38  1  0  0  0  0
  2  3  2  0  0  0  0
  2  4  1  0  0  0  0
  4  5  1  0  0  0  0
  4 39  1  0  0  0  0
  4 40  1  0  0  0  0
  5  6  2  0  0  0  0
  5  9  1  0  0  0  0
  6  7  1  0  0  0  0
  7  8  1  0  0  0  0
  7 32  1  0  0  0  0
  8  9  2  0  0  0  0
  9 10  1  0  0  0  0
 10 11  1  0  0  0  0
 10 41  1  0  0  0  0
 10 42  1  0  0  0  0
 11 12  2  0  0  0  0
 11 16  1  0  0  0  0
 12 13  1  0  0  0  0
 12 43  1  0  0  0  0
 13 14  2  0  0  0  0
 13 44  1  0  0  0  0
 14 15  1  0  0  0  0
 14 45  1  0  0  0  0
 15 16  2  0  0  0  0
 15 17  1  0  0  0  0
 16 46  1  0  0  0  0
 17 18  1  0  0  0  0
 18 19  1  0  0  0  0
 18 47  1  0  0  0  0
 18 48  1  0  0  0  0
 19 20  1  0  0  0  0
 19 49  1  0  0  0  0
 19 50  1  0  0  0  0
 20 21  1  0  0  0  0
 20 24  2  0  0  0  0
 21 22  2  0  0  0  0
 22 23  1  0  0  0  0
 22 26  1  0  0  0  0
 23 24  1  0  0  0  0
 24 25  1  0  0  0  0
 25 51  1  0  0  0  0
 25 52  1  0  0  0  0
 25 53  1  0  0  0  0
 26 27  2  0  0  0  0
 26 31  1  0  0  0  0
 27 28  1  0  0  0  0
 27 54  1  0  0  0  0
 28 29  2  0  0  0  0
 28 55  1  0  0  0  0
 29 30  1  0  0  0  0
 29 56  1  0  0  0  0
 30 31  2  0  0  0  0
 30 57  1  0  0  0  0
 31 58  1  0  0  0  0
 32 33  2  0  0  0  0
 32 37  1  0  0  0  0
 33 34  1  0  0  0  0
 33 59  1  0  0  0  0
 34 35  2  0  0  0  0
 34 60  1  0  0  0  0
 35 36  1  0  0  0  0
 35 61  1  0  0  0  0
 36 37  2  0  0  0  0
 36 62  1  0  0  0  0
 37 63  1  0  0  0  0
M  END
$$$$
