ZCT
 OpenBabel04121316213D

 72 77  0  0  1  0  0  0  0  0999 V2000
    7.8869   -0.2073    1.7735 O   0  0  0  0  0  0  0  0  0  0  0  0
    6.9722    0.1276    2.6881 C   0  0  0  0  0  0  0  0  0  0  0  0
    7.3679    0.4753    3.7794 O   0  0  0  0  0  0  0  0  0  0  0  0
    5.4875   -0.0744    2.3717 C   0  0  0  0  0  0  0  0  0  0  0  0
    4.7952   -0.1158    0.9787 C   0  0  1  0  0  0  0  0  0  0  0  0
    3.7160   -0.0998    1.1930 H   0  0  0  0  0  0  0  0  0  0  0  0
    5.0279    0.9975    0.1013 O   0  0  0  0  0  0  0  0  0  0  0  0
    6.3952    1.1192   -0.3189 C   0  0  2  0  0  0  0  0  0  0  0  0
    6.9117    1.5927    0.5210 H   0  0  0  0  0  0  0  0  0  0  0  0
    6.5428    2.0601   -1.4953 C   0  0  0  0  0  0  0  0  0  0  0  0
    6.9870   -0.2223   -0.6830 C   0  0  0  0  0  0  0  0  0  0  0  0
    6.3333   -1.3737   -0.4582 C   0  0  0  0  0  0  0  0  0  0  0  0
    4.9962   -1.4035    0.1948 C   0  0  0  0  0  0  0  0  0  0  0  0
    6.9845   -2.6869   -0.4808 C   0  0  0  0  0  0  0  0  0  0  0  0
    6.3747   -3.6645   -0.0835 O   0  0  0  0  0  0  0  0  0  0  0  0
    8.3969   -2.7157   -0.8271 C   0  0  0  0  0  0  0  0  0  0  0  0
    9.1130   -1.5390   -1.0299 C   0  0  0  0  0  0  0  0  0  0  0  0
    8.4476   -0.2375   -0.9289 C   0  0  0  0  0  0  0  0  0  0  0  0
    9.1229    0.7862   -0.9315 O   0  0  0  0  0  0  0  0  0  0  0  0
   10.4785   -1.5798   -1.3099 C   0  0  0  0  0  0  0  0  0  0  0  0
   11.1720   -0.4015   -1.4226 O   0  0  0  0  0  0  0  0  0  0  0  0
   11.1340   -2.8127   -1.4866 C   0  0  0  0  0  0  0  0  0  0  0  0
   10.3462   -3.9650   -1.2731 C   0  0  0  0  0  0  0  0  0  0  0  0
    9.0206   -3.9345   -0.9227 C   0  0  0  0  0  0  0  0  0  0  0  0
    8.3601   -5.1072   -0.7246 O   0  0  0  0  0  0  0  0  0  0  0  0
   12.5562   -2.9325   -1.9113 C   0  0  0  0  0  0  0  0  0  0  0  0
   13.3279   -1.7794   -2.1814 C   0  0  0  0  0  0  0  0  0  0  0  0
   14.6367   -1.8040   -2.5930 C   0  0  0  0  0  0  0  0  0  0  0  0
   15.2898   -0.6314   -2.8102 O   0  0  0  0  0  0  0  0  0  0  0  0
   15.2404   -3.0196   -2.7716 C   0  0  0  0  0  0  0  0  0  0  0  0
   14.5361   -4.1957   -2.5200 C   0  0  0  0  0  0  0  0  0  0  0  0
   13.2095   -4.1636   -2.0950 C   0  0  0  0  0  0  0  0  0  0  0  0
   12.5528   -5.3467   -1.8654 O   0  0  0  0  0  0  0  0  0  0  0  0
   15.1863   -5.4923   -2.6805 C   0  0  0  0  0  0  0  0  0  0  0  0
   14.6076   -6.5210   -2.3527 O   0  0  0  0  0  0  0  0  0  0  0  0
   16.5469   -5.4955   -3.2200 C   0  0  0  0  0  0  0  0  0  0  0  0
   17.2134   -4.3565   -3.4358 C   0  0  0  0  0  0  0  0  0  0  0  0
   16.6278   -3.0394   -3.2210 C   0  0  0  0  0  0  0  0  0  0  0  0
   17.3013   -2.0473   -3.4135 O   0  0  0  0  0  0  0  0  0  0  0  0
   18.6470   -4.3253   -3.8490 C   0  0  0  0  0  0  0  0  0  0  0  0
   19.2887   -5.6524   -3.4664 C   0  0  2  0  0  0  0  0  0  0  0  0
   20.2677   -5.6930   -3.9557 H   0  0  0  0  0  0  0  0  0  0  0  0
   18.4635   -6.6660   -4.0622 O   0  0  0  0  0  0  0  0  0  0  0  0
   17.1702   -6.8286   -3.4528 C   0  0  2  0  0  0  0  0  0  0  0  0
   17.2650   -7.3463   -2.4927 H   0  0  0  0  0  0  0  0  0  0  0  0
   16.3438   -7.6906   -4.3911 C   0  0  0  0  0  0  0  0  0  0  0  0
   19.4973   -5.8034   -1.9396 C   0  0  0  0  0  0  0  0  0  0  0  0
   19.5586   -7.2563   -1.5140 C   0  0  0  0  0  0  0  0  0  0  0  0
   19.6117   -8.2174   -2.2632 O   0  0  0  0  0  0  0  0  0  0  0  0
   19.4953   -7.4307   -0.1764 O   0  0  0  0  0  0  0  0  0  0  0  0
    7.6972   -1.0807    1.4092 H   0  0  0  0  0  0  0  0  0  0  0  0
    5.0149    0.7685    2.8926 H   0  0  0  0  0  0  0  0  0  0  0  0
    5.2117   -0.9898    2.9100 H   0  0  0  0  0  0  0  0  0  0  0  0
    6.1267    1.6085   -2.3989 H   0  0  0  0  0  0  0  0  0  0  0  0
    7.6008    2.2693   -1.6827 H   0  0  0  0  0  0  0  0  0  0  0  0
    6.0595    3.0174   -1.3046 H   0  0  0  0  0  0  0  0  0  0  0  0
    4.8903   -2.2434    0.8928 H   0  0  0  0  0  0  0  0  0  0  0  0
    4.2474   -1.5383   -0.5935 H   0  0  0  0  0  0  0  0  0  0  0  0
   10.6149    0.3842   -1.2277 H   0  0  0  0  0  0  0  0  0  0  0  0
   10.7141   -4.9672   -1.3932 H   0  0  0  0  0  0  0  0  0  0  0  0
    8.9317   -5.8761   -0.8798 H   0  0  0  0  0  0  0  0  0  0  0  0
   12.9502   -0.7781   -2.0932 H   0  0  0  0  0  0  0  0  0  0  0  0
   14.7253    0.1367   -2.6346 H   0  0  0  0  0  0  0  0  0  0  0  0
   13.1203   -6.1323   -2.0289 H   0  0  0  0  0  0  0  0  0  0  0  0
   19.1873   -3.4950   -3.3802 H   0  0  0  0  0  0  0  0  0  0  0  0
   18.6599   -4.1721   -4.9354 H   0  0  0  0  0  0  0  0  0  0  0  0
   16.2227   -7.1870   -5.3544 H   0  0  0  0  0  0  0  0  0  0  0  0
   15.3494   -7.9112   -3.9958 H   0  0  0  0  0  0  0  0  0  0  0  0
   16.8423   -8.6469   -4.5619 H   0  0  0  0  0  0  0  0  0  0  0  0
   20.4223   -5.2970   -1.6415 H   0  0  0  0  0  0  0  0  0  0  0  0
   18.6831   -5.3138   -1.3873 H   0  0  0  0  0  0  0  0  0  0  0  0
   19.4996   -6.6187    0.3595 H   0  0  0  0  0  0  0  0  0  0  0  0
  1  2  1  0  0  0  0
  1 51  1  0  0  0  0
  2  3  2  0  0  0  0
  2  4  1  0  0  0  0
  4 52  1  0  0  0  0
  4 53  1  0  0  0  0
  5  7  1  0  0  0  0
  5 13  1  0  0  0  0
  5  6  1  1  0  0  0
  5  4  1  0  0  0  0
  7  8  1  0  0  0  0
  8 11  1  0  0  0  0
  8 10  1  0  0  0  0
  8  9  1  1  0  0  0
 10 54  1  0  0  0  0
 10 55  1  0  0  0  0
 10 56  1  0  0  0  0
 11 12  2  0  0  0  0
 11 18  1  0  0  0  0
 12 13  1  0  0  0  0
 12 14  1  0  0  0  0
 13 57  1  0  0  0  0
 13 58  1  0  0  0  0
 14 15  2  0  0  0  0
 14 16  1  0  0  0  0
 16 17  2  0  0  0  0
 16 24  1  0  0  0  0
 17 18  1  0  0  0  0
 17 20  1  0  0  0  0
 18 19  2  0  0  0  0
 20 21  1  0  0  0  0
 20 22  2  0  0  0  0
 21 59  1  0  0  0  0
 22 23  1  0  0  0  0
 22 26  1  0  0  0  0
 23 24  2  0  0  0  0
 23 60  1  0  0  0  0
 24 25  1  0  0  0  0
 25 61  1  0  0  0  0
 26 27  2  0  0  0  0
 26 32  1  0  0  0  0
 27 28  1  0  0  0  0
 27 62  1  0  0  0  0
 28 29  1  0  0  0  0
 28 30  2  0  0  0  0
 29 63  1  0  0  0  0
 30 31  1  0  0  0  0
 30 38  1  0  0  0  0
 31 32  2  0  0  0  0
 31 34  1  0  0  0  0
 32 33  1  0  0  0  0
 33 64  1  0  0  0  0
 34 35  2  0  0  0  0
 34 36  1  0  0  0  0
 36 37  2  0  0  0  0
 36 44  1  0  0  0  0
 37 38  1  0  0  0  0
 37 40  1  0  0  0  0
 38 39  2  0  0  0  0
 40 41  1  0  0  0  0
 40 65  1  0  0  0  0
 40 66  1  0  0  0  0
 41 43  1  0  0  0  0
 41 47  1  0  0  0  0
 41 42  1  6  0  0  0
 43 44  1  0  0  0  0
 44 46  1  0  0  0  0
 44 45  1  1  0  0  0
 46 67  1  0  0  0  0
 46 68  1  0  0  0  0
 46 69  1  0  0  0  0
 47 48  1  0  0  0  0
 47 70  1  0  0  0  0
 47 71  1  0  0  0  0
 48 49  2  0  0  0  0
 48 50  1  0  0  0  0
 50 72  1  0  0  0  0
M  END
$$$$
