ZDR
 OpenBabel04121316213D

 30 29  0  0  1  0  0  0  0  0999 V2000
    3.8657   -3.1499   -1.5105 N   0  0  0  0  0  0  0  0  0  0  0  0
    4.8695   -4.2061   -1.2009 C   0  0  2  0  0  0  0  0  0  0  0  0
    5.0835   -4.7484   -2.1258 H   0  0  0  0  0  0  0  0  0  0  0  0
    4.3190   -5.2233   -0.1662 C   0  0  0  0  0  0  0  0  0  0  0  0
    4.8755   -5.5467    0.8738 O   0  0  0  0  0  0  0  0  0  0  0  0
    3.1325   -5.7686   -0.5147 O   0  0  0  0  0  0  0  0  0  0  0  0
    6.1996   -3.5882   -0.6986 C   0  0  0  0  0  0  0  0  0  0  0  0
    5.9378   -2.8288    0.5812 C   0  0  0  0  0  0  0  0  0  0  0  0
    7.0654   -2.0380    1.1902 C   0  0  0  0  0  0  0  0  0  0  0  0
    6.5499   -1.2944    2.4565 C   0  0  2  0  0  0  0  0  0  0  0  0
    4.9822   -1.1943    2.6089 C   0  0  0  0  0  0  0  0  0  0  0  0
    4.3513   -1.5749    3.5913 O   0  0  0  0  0  0  0  0  0  0  0  0
    4.3382   -0.5830    1.5804 O   0  0  0  0  0  0  0  0  0  0  0  0
    7.0939    0.0810    2.4394 N   0  0  0  0  0  0  0  0  0  0  0  0
    7.0947   -2.0211    3.6989 C   0  0  0  0  0  0  0  0  0  0  0  0
    3.5830   -2.6629   -0.6551 H   0  0  0  0  0  0  0  0  0  0  0  0
    3.0006   -3.5265   -1.8842 H   0  0  0  0  0  0  0  0  0  0  0  0
    2.8310   -5.5113   -1.4018 H   0  0  0  0  0  0  0  0  0  0  0  0
    6.5998   -2.8930   -1.4489 H   0  0  0  0  0  0  0  0  0  0  0  0
    6.9553   -4.3620   -0.5297 H   0  0  0  0  0  0  0  0  0  0  0  0
    5.5185   -3.4613    1.3652 H   0  0  0  0  0  0  0  0  0  0  0  0
    5.1766   -2.1242    0.2895 H   0  0  0  0  0  0  0  0  0  0  0  0
    7.4661   -1.3416    0.4429 H   0  0  0  0  0  0  0  0  0  0  0  0
    7.8968   -2.7135    1.4380 H   0  0  0  0  0  0  0  0  0  0  0  0
    4.9046   -0.3673    0.8157 H   0  0  0  0  0  0  0  0  0  0  0  0
    6.7583    0.5690    3.2730 H   0  0  0  0  0  0  0  0  0  0  0  0
    6.7359    0.6029    1.6436 H   0  0  0  0  0  0  0  0  0  0  0  0
    6.7605   -1.5416    4.6255 H   0  0  0  0  0  0  0  0  0  0  0  0
    8.1902   -2.0469    3.7097 H   0  0  0  0  0  0  0  0  0  0  0  0
    6.7389   -3.0595    3.7255 H   0  0  0  0  0  0  0  0  0  0  0  0
  1 16  1  0  0  0  0
  1 17  1  0  0  0  0
  2  4  1  0  0  0  0
  2  7  1  0  0  0  0
  2  3  1  6  0  0  0
  2  1  1  0  0  0  0
  4  5  2  0  0  0  0
  4  6  1  0  0  0  0
  6 18  1  0  0  0  0
  7  8  1  0  0  0  0
  7 19  1  0  0  0  0
  7 20  1  0  0  0  0
  8  9  1  0  0  0  0
  8 21  1  0  0  0  0
  8 22  1  0  0  0  0
  9 23  1  0  0  0  0
  9 24  1  0  0  0  0
 10 14  1  6  0  0  0
 10 15  1  0  0  0  0
 10 11  1  0  0  0  0
 10  9  1  0  0  0  0
 11 12  2  0  0  0  0
 11 13  1  0  0  0  0
 13 25  1  0  0  0  0
 14 26  1  0  0  0  0
 14 27  1  0  0  0  0
 15 28  1  0  0  0  0
 15 29  1  0  0  0  0
 15 30  1  0  0  0  0
M  END
$$$$
