ZIO
 OpenBabel04121316213D

109112  0  0  1  0  0  0  0  0999 V2000
    5.7663   -4.3908    0.7346 C   0  0  0  0  0  0  0  0  0  0  0  0
    5.0039   -5.1061   -0.1723 O   0  0  0  0  0  0  0  0  0  0  0  0
    3.7678   -4.8708   -0.7956 C   0  0  1  0  0  0  0  0  0  0  0  0
    3.7358   -3.8675   -1.2288 H   0  0  0  0  0  0  0  0  0  0  0  0
    3.7999   -6.0452   -1.7730 C   0  0  0  0  0  0  0  0  0  0  0  0
    4.0117   -7.3475   -1.0005 C   0  0  2  0  0  0  0  0  0  0  0  0
    4.7197   -7.3688   -0.1991 H   0  0  0  0  0  0  0  0  0  0  0  0
    4.4235   -8.3447   -1.9529 O   0  0  0  0  0  0  0  0  0  0  0  0
    5.7826   -8.8939   -1.9566 C   0  0  2  0  0  0  0  0  0  0  0  0
    5.8958   -9.2043   -3.0117 H   0  0  0  0  0  0  0  0  0  0  0  0
    5.9210  -10.1902   -1.1336 C   0  0  1  0  0  0  0  0  0  0  0  0
    6.5239  -10.0487   -0.2329 H   0  0  0  0  0  0  0  0  0  0  0  0
    4.5274  -10.6176   -0.7277 C   0  0  0  0  0  0  0  0  0  0  0  0
    6.5562  -11.3270   -1.9369 C   0  0  0  0  0  0  0  0  0  0  0  0
    5.9659  -11.9450   -2.8130 O   0  0  0  0  0  0  0  0  0  0  0  0
    7.8453  -11.6023   -1.5702 O   0  0  0  0  0  0  0  0  0  0  0  0
    8.4641  -12.7404   -2.2461 C   0  0  2  0  0  0  0  0  0  0  0  0
    7.9460  -12.9657   -3.1859 H   0  0  0  0  0  0  0  0  0  0  0  0
    8.3992  -13.9750   -1.3533 C   0  0  0  0  0  0  0  0  0  0  0  0
    9.9351  -12.4092   -2.5844 C   0  0  2  0  0  0  0  0  0  0  0  0
   10.4033  -13.3036   -3.0237 H   0  0  0  0  0  0  0  0  0  0  0  0
   10.6677  -12.0712   -1.2612 C   0  0  0  0  0  0  0  0  0  0  0  0
    9.9367  -11.2966   -3.6726 C   0  0  2  0  0  0  0  0  0  0  0  0
    8.9360  -10.8644   -3.7854 H   0  0  0  0  0  0  0  0  0  0  0  0
   10.2580  -11.8610   -4.9488 O   0  0  0  0  0  0  0  0  0  0  0  0
   10.9667  -10.2136   -3.3839 C   0  0  2  0  0  0  0  0  0  0  0  0
   10.7325   -9.7825   -2.3979 H   0  0  0  0  0  0  0  0  0  0  0  0
   10.9275   -9.1131   -4.4618 C   0  0  0  0  0  0  0  0  0  0  0  0
   11.4962   -9.1157   -5.4868 O   0  0  0  0  0  0  0  0  0  0  0  0
   10.0483   -7.9983   -4.1019 C   0  0  2  0  0  0  0  0  0  0  0  0
    8.6197   -8.0429   -4.0688 C   0  0  0  0  0  0  0  0  0  0  0  0
    8.2497   -6.5298   -3.1054 C   0  0  1  0  0  0  0  0  0  0  0  0
    8.2913   -5.6075   -3.7124 H   0  0  0  0  0  0  0  0  0  0  0  0
    6.8848   -6.7544   -2.6109 C   0  0  1  0  0  0  0  0  0  0  0  0
    6.2137   -7.1400   -3.3619 H   0  0  0  0  0  0  0  0  0  0  0  0
    6.9769   -7.9440   -1.6658 C   0  0  1  0  0  0  0  0  0  0  0  0
    7.8871   -8.5348   -1.8736 H   0  0  0  0  0  0  0  0  0  0  0  0
    7.0798   -7.4714   -0.2563 C   0  0  0  0  0  0  0  0  0  0  0  0
    6.4720   -5.4630   -2.1443 O   0  0  0  0  0  0  0  0  0  0  0  0
    6.2037   -4.4728   -3.1711 C   0  0  2  0  0  0  0  0  0  0  0  0
    7.1713   -4.0027   -3.3590 H   0  0  0  0  0  0  0  0  0  0  0  0
    5.3620   -3.3891   -2.7374 O   0  0  0  0  0  0  0  0  0  0  0  0
    5.3945   -2.3497   -3.7148 C   0  0  2  0  0  0  0  0  0  0  0  0
    6.4393   -2.0358   -3.8209 H   0  0  0  0  0  0  0  0  0  0  0  0
    4.5844   -1.1412   -3.2937 C   0  0  0  0  0  0  0  0  0  0  0  0
    4.8525   -2.8338   -5.0557 C   0  0  0  0  0  0  0  0  0  0  0  0
    5.6367   -4.0360   -5.5571 C   0  0  1  0  0  0  0  0  0  0  0  0
    6.6927   -3.7442   -5.6778 H   0  0  0  0  0  0  0  0  0  0  0  0
    5.5898   -5.0788   -4.4647 C   0  0  1  0  0  0  0  0  0  0  0  0
    4.5641   -5.4420   -4.3221 H   0  0  0  0  0  0  0  0  0  0  0  0
    6.3880   -6.1438   -4.9531 O   0  0  0  0  0  0  0  0  0  0  0  0
    5.1486   -4.5786   -6.8516 N   0  0  0  0  0  0  0  0  0  0  0  0
    5.2630   -3.5498   -7.8714 C   0  0  0  0  0  0  0  0  0  0  0  0
    5.8800   -5.7698   -7.3339 C   0  0  0  0  0  0  0  0  0  0  0  0
    9.1038   -5.9022   -1.8586 C   0  0  0  0  0  0  0  0  0  0  0  0
   10.0910   -6.6764   -4.7421 C   0  0  0  0  0  0  0  0  0  0  0  0
   10.6226   -7.0360   -3.3284 O   0  0  0  0  0  0  0  0  0  0  0  0
   12.3832  -10.7629   -3.4614 C   0  0  0  0  0  0  0  0  0  0  0  0
    2.8127   -7.5875   -0.2391 O   0  0  0  0  0  0  0  0  0  0  0  0
    2.5412   -6.4869    0.6871 C   0  0  2  0  0  0  0  0  0  0  0  0
    1.5542   -6.7118    1.0950 H   0  0  0  0  0  0  0  0  0  0  0  0
    2.4689   -5.1237   -0.0412 C   0  0  2  0  0  0  0  0  0  0  0  0
    2.2489   -4.3040    0.6449 H   0  0  0  0  0  0  0  0  0  0  0  0
    1.4073   -5.1082   -1.0229 O   0  0  0  0  0  0  0  0  0  0  0  0
    3.5140   -6.3869    1.8769 C   0  0  0  0  0  0  0  0  0  0  0  0
    6.6674   -5.0071    0.8928 H   0  0  0  0  0  0  0  0  0  0  0  0
    5.2625   -4.3398    1.6926 H   0  0  0  0  0  0  0  0  0  0  0  0
    6.0955   -3.4312    0.3563 H   0  0  0  0  0  0  0  0  0  0  0  0
    4.6201   -5.9686   -2.4260 H   0  0  0  0  0  0  0  0  0  0  0  0
    2.9823   -6.1002   -2.4929 H   0  0  0  0  0  0  0  0  0  0  0  0
    4.0429   -9.8279   -0.1500 H   0  0  0  0  0  0  0  0  0  0  0  0
    4.5483  -11.5106   -0.1116 H   0  0  0  0  0  0  0  0  0  0  0  0
    3.9270  -10.8051   -1.6267 H   0  0  0  0  0  0  0  0  0  0  0  0
    7.3680  -14.2148   -1.0950 H   0  0  0  0  0  0  0  0  0  0  0  0
    8.9164  -13.8230   -0.4023 H   0  0  0  0  0  0  0  0  0  0  0  0
    8.8605  -14.8308   -1.8591 H   0  0  0  0  0  0  0  0  0  0  0  0
   10.6826  -12.9221   -0.5796 H   0  0  0  0  0  0  0  0  0  0  0  0
   10.2041  -11.2170   -0.7633 H   0  0  0  0  0  0  0  0  0  0  0  0
   11.7237  -11.8367   -1.3478 H   0  0  0  0  0  0  0  0  0  0  0  0
    9.6774  -12.6090   -5.1546 H   0  0  0  0  0  0  0  0  0  0  0  0
    8.0554   -8.9278   -3.8031 H   0  0  0  0  0  0  0  0  0  0  0  0
    8.5441   -8.1322   -5.2230 H   0  0  0  0  0  0  0  0  0  0  0  0
    6.2823   -6.7902   -0.1488 H   0  0  0  0  0  0  0  0  0  0  0  0
    7.9062   -6.8248   -0.0029 H   0  0  0  0  0  0  0  0  0  0  0  0
    7.0047   -8.2566    0.4793 H   0  0  0  0  0  0  0  0  0  0  0  0
    4.9200   -0.7601   -2.3282 H   0  0  0  0  0  0  0  0  0  0  0  0
    3.5206   -1.3867   -3.2150 H   0  0  0  0  0  0  0  0  0  0  0  0
    4.6993   -0.3524   -4.0472 H   0  0  0  0  0  0  0  0  0  0  0  0
    4.9365   -2.0015   -5.7548 H   0  0  0  0  0  0  0  0  0  0  0  0
    3.7955   -3.1152   -4.9591 H   0  0  0  0  0  0  0  0  0  0  0  0
    7.2138   -5.7217   -5.2099 H   0  0  0  0  0  0  0  0  0  0  0  0
    4.6487   -2.6835   -7.6242 H   0  0  0  0  0  0  0  0  0  0  0  0
    4.8830   -3.9308   -8.8184 H   0  0  0  0  0  0  0  0  0  0  0  0
    6.3051   -3.2316   -7.9828 H   0  0  0  0  0  0  0  0  0  0  0  0
    5.6815   -6.6797   -6.7558 H   0  0  0  0  0  0  0  0  0  0  0  0
    6.9642   -5.5838   -7.3619 H   0  0  0  0  0  0  0  0  0  0  0  0
    5.5441   -6.0759   -8.3234 H   0  0  0  0  0  0  0  0  0  0  0  0
   10.0413   -5.4009   -2.1312 H   0  0  0  0  0  0  0  0  0  0  0  0
    9.3529   -6.6819   -1.1471 H   0  0  0  0  0  0  0  0  0  0  0  0
    8.5813   -5.0846   -1.3179 H   0  0  0  0  0  0  0  0  0  0  0  0
    9.0322   -6.4032   -5.1226 H   0  0  0  0  0  0  0  0  0  0  0  0
   10.5346   -5.7838   -5.0774 H   0  0  0  0  0  0  0  0  0  0  0  0
   12.6309  -10.9940   -4.4970 H   0  0  0  0  0  0  0  0  0  0  0  0
   12.5497  -11.7100   -2.9516 H   0  0  0  0  0  0  0  0  0  0  0  0
   13.0781  -10.0218   -3.0655 H   0  0  0  0  0  0  0  0  0  0  0  0
    0.6252   -5.5444   -0.6517 H   0  0  0  0  0  0  0  0  0  0  0  0
    4.5542   -6.3146    1.5784 H   0  0  0  0  0  0  0  0  0  0  0  0
    3.5235   -7.2786    2.4983 H   0  0  0  0  0  0  0  0  0  0  0  0
    3.2905   -5.5005    2.4873 H   0  0  0  0  0  0  0  0  0  0  0  0
  1  2  1  0  0  0  0
  1 66  1  0  0  0  0
  1 67  1  0  0  0  0
  1 68  1  0  0  0  0
  2  3  1  0  0  0  0
  3  4  1  6  0  0  0
  3  5  1  0  0  0  0
  3 62  1  0  0  0  0
  5  6  1  0  0  0  0
  5 69  1  0  0  0  0
  5 70  1  0  0  0  0
  6  7  1  1  0  0  0
  6  8  1  0  0  0  0
  6 59  1  0  0  0  0
  9 11  1  0  0  0  0
  9 36  1  0  0  0  0
  9 10  1  6  0  0  0
  9  8  1  0  0  0  0
 11 12  1  1  0  0  0
 11 13  1  0  0  0  0
 11 14  1  0  0  0  0
 13 71  1  0  0  0  0
 13 72  1  0  0  0  0
 13 73  1  0  0  0  0
 14 15  2  0  0  0  0
 14 16  1  0  0  0  0
 16 17  1  0  0  0  0
 17 18  1  6  0  0  0
 17 19  1  0  0  0  0
 17 20  1  0  0  0  0
 19 74  1  0  0  0  0
 19 75  1  0  0  0  0
 19 76  1  0  0  0  0
 20 21  1  6  0  0  0
 20 22  1  0  0  0  0
 20 23  1  0  0  0  0
 22 77  1  0  0  0  0
 22 78  1  0  0  0  0
 22 79  1  0  0  0  0
 23 24  1  6  0  0  0
 23 25  1  0  0  0  0
 23 26  1  0  0  0  0
 25 80  1  0  0  0  0
 26 28  1  0  0  0  0
 26 58  1  0  0  0  0
 26 27  1  1  0  0  0
 28 29  2  0  0  0  0
 30 28  1  6  0  0  0
 30 31  1  0  0  0  0
 30 56  1  0  0  0  0
 30 57  1  0  0  0  0
 31 32  1  0  0  0  0
 31 81  1  0  0  0  0
 31 82  1  0  0  0  0
 32 33  1  6  0  0  0
 32 34  1  0  0  0  0
 32 55  1  0  0  0  0
 34 35  1  6  0  0  0
 34 36  1  0  0  0  0
 34 39  1  0  0  0  0
 36 38  1  0  0  0  0
 36 37  1  6  0  0  0
 38 83  1  0  0  0  0
 38 84  1  0  0  0  0
 38 85  1  0  0  0  0
 40 42  1  0  0  0  0
 40 49  1  0  0  0  0
 40 41  1  6  0  0  0
 40 39  1  0  0  0  0
 42 43  1  0  0  0  0
 43 44  1  6  0  0  0
 43 45  1  0  0  0  0
 43 46  1  0  0  0  0
 45 86  1  0  0  0  0
 45 87  1  0  0  0  0
 45 88  1  0  0  0  0
 46 47  1  0  0  0  0
 46 89  1  0  0  0  0
 46 90  1  0  0  0  0
 47 48  1  6  0  0  0
 47 49  1  0  0  0  0
 47 52  1  0  0  0  0
 49 51  1  0  0  0  0
 49 50  1  1  0  0  0
 51 91  1  0  0  0  0
 52 53  1  0  0  0  0
 52 54  1  0  0  0  0
 53 92  1  0  0  0  0
 53 93  1  0  0  0  0
 53 94  1  0  0  0  0
 54 95  1  0  0  0  0
 54 96  1  0  0  0  0
 54 97  1  0  0  0  0
 55 98  1  0  0  0  0
 55 99  1  0  0  0  0
 55100  1  0  0  0  0
 56 57  1  0  0  0  0
 56101  1  0  0  0  0
 56102  1  0  0  0  0
 58103  1  0  0  0  0
 58104  1  0  0  0  0
 58105  1  0  0  0  0
 59 60  1  0  0  0  0
 60 62  1  0  0  0  0
 60 65  1  0  0  0  0
 60 61  1  1  0  0  0
 62 63  1  1  0  0  0
 62 64  1  0  0  0  0
 64106  1  0  0  0  0
 65107  1  0  0  0  0
 65108  1  0  0  0  0
 65109  1  0  0  0  0
M  END
$$$$
