ZKD
 OpenBabel04121316213D

 66 68  0  0  1  0  0  0  0  0999 V2000
    3.7070   -1.6475   -1.2567 O   0  0  0  0  0  0  0  0  0  0  0  0
    4.7391   -2.1377   -0.4297 C   0  0  0  0  0  0  0  0  0  0  0  0
    4.5870   -3.6095    0.0364 C   0  0  1  0  0  0  0  0  0  0  0  0
    4.0946   -3.5672    1.0180 H   0  0  0  0  0  0  0  0  0  0  0  0
    3.7503   -4.5061   -0.7120 O   0  0  0  0  0  0  0  0  0  0  0  0
    4.1917   -4.9635   -1.9910 C   0  0  2  0  0  0  0  0  0  0  0  0
    4.1270   -4.1130   -2.6867 H   0  0  0  0  0  0  0  0  0  0  0  0
    3.1167   -6.3792   -2.6126 S   0  0  0  0  0  0  0  0  0  0  0  0
    1.3862   -5.3942   -3.0104 P   0  0  2  0  0  0  0  0  0  0  0  0
    1.6449   -4.0242   -2.4470 O   0  0  0  0  0  0  0  0  0  0  0  0
   -0.1562   -6.0045   -2.7522 O   0  0  0  0  0  0  0  0  0  0  0  0
   -0.5544   -5.9400   -1.0699 P   0  0  1  0  0  0  0  0  0  0  0  0
    0.8021   -6.4525   -0.6300 O   0  0  0  0  0  0  0  0  0  0  0  0
   -0.6822   -4.2716   -1.2031 O   0  0  0  0  0  0  0  0  0  0  0  0
   -0.9525   -3.6533   -2.4948 C   0  0  0  0  0  0  0  0  0  0  0  0
   -1.2330   -2.1735   -2.5691 C   0  0  1  0  0  0  0  0  0  0  0  0
   -2.0533   -2.0926   -3.2951 H   0  0  0  0  0  0  0  0  0  0  0  0
   -1.6230   -1.6660   -1.3059 O   0  0  0  0  0  0  0  0  0  0  0  0
   -1.6521   -0.2597   -1.5062 C   0  0  2  0  0  0  0  0  0  0  0  0
   -2.5968   -0.0538   -2.0253 H   0  0  0  0  0  0  0  0  0  0  0  0
   -0.4814    0.0977   -2.4490 C   0  0  1  0  0  0  0  0  0  0  0  0
    0.3975    0.4711   -1.9210 H   0  0  0  0  0  0  0  0  0  0  0  0
   -0.1167   -1.2380   -3.1048 C   0  0  2  0  0  0  0  0  0  0  0  0
    0.8907   -1.5320   -2.7853 H   0  0  0  0  0  0  0  0  0  0  0  0
   -0.0951   -1.1630   -4.5350 O   0  0  0  0  0  0  0  0  0  0  0  0
   -0.8335    1.1187   -3.3854 O   0  0  0  0  0  0  0  0  0  0  0  0
   -1.6416    0.4080   -0.2172 N   0  0  0  0  0  0  0  0  0  0  0  0
   -0.4863    0.4964    0.5365 C   0  0  0  0  0  0  0  0  0  0  0  0
   -0.4859    0.9993    1.7738 C   0  0  0  0  0  0  0  0  0  0  0  0
   -1.7480    1.4931    2.3244 C   0  0  0  0  0  0  0  0  0  0  0  0
   -1.8177    1.8833    3.4994 O   0  0  0  0  0  0  0  0  0  0  0  0
   -2.8073    1.5067    1.4776 N   0  0  0  0  0  0  0  0  0  0  0  0
   -3.6833    1.8525    1.8356 H   0  0  0  0  0  0  0  0  0  0  0  0
   -2.8651    0.8490    0.2746 C   0  0  0  0  0  0  0  0  0  0  0  0
   -3.9403    0.7166   -0.2993 O   0  0  0  0  0  0  0  0  0  0  0  0
   -0.9527   -5.8755    0.6124 O   0  0  0  0  0  0  0  0  0  0  0  0
    1.2516   -5.2872   -4.6208 O   0  0  0  0  0  0  0  0  0  0  0  0
    5.6366   -5.5012   -1.9481 C   0  0  2  0  0  0  0  0  0  0  0  0
    5.6288   -6.4319   -1.3699 H   0  0  0  0  0  0  0  0  0  0  0  0
    6.5691   -4.5342   -1.2137 C   0  0  2  0  0  0  0  0  0  0  0  0
    7.5407   -5.0181   -1.0776 H   0  0  0  0  0  0  0  0  0  0  0  0
    5.9985   -4.1954    0.1832 C   0  0  2  0  0  0  0  0  0  0  0  0
    6.6372   -3.4770    0.7086 H   0  0  0  0  0  0  0  0  0  0  0  0
    5.9385   -5.3711    0.9972 O   0  0  0  0  0  0  0  0  0  0  0  0
    6.8430   -3.3898   -2.0445 O   0  0  0  0  0  0  0  0  0  0  0  0
    6.1738   -5.7737   -3.2863 N   0  0  0  0  0  0  0  0  0  0  0  0
    6.0352   -7.0191   -3.8482 C   0  0  0  0  0  0  0  0  0  0  0  0
    5.5880   -7.9959   -3.2568 O   0  0  0  0  0  0  0  0  0  0  0  0
    6.5129   -7.1367   -5.2573 C   0  0  0  0  0  0  0  0  0  0  0  0
    4.0267   -0.8050   -1.6239 H   0  0  0  0  0  0  0  0  0  0  0  0
    4.8472   -1.4922    0.4508 H   0  0  0  0  0  0  0  0  0  0  0  0
    5.6730   -1.9556   -0.9550 H   0  0  0  0  0  0  0  0  0  0  0  0
   -1.6791   -4.2415   -3.0616 H   0  0  0  0  0  0  0  0  0  0  0  0
   -0.1104   -3.6735   -3.1609 H   0  0  0  0  0  0  0  0  0  0  0  0
    0.2682   -0.2802   -4.7568 H   0  0  0  0  0  0  0  0  0  0  0  0
   -1.2076    1.8534   -2.8612 H   0  0  0  0  0  0  0  0  0  0  0  0
    0.4433    0.1325    0.1113 H   0  0  0  0  0  0  0  0  0  0  0  0
    0.4013    1.0551    2.3883 H   0  0  0  0  0  0  0  0  0  0  0  0
   -0.5731   -6.6790    1.0152 H   0  0  0  0  0  0  0  0  0  0  0  0
    0.4059   -4.8835   -4.8857 H   0  0  0  0  0  0  0  0  0  0  0  0
    6.8265   -5.7638    1.0443 H   0  0  0  0  0  0  0  0  0  0  0  0
    6.0207   -3.1122   -2.4915 H   0  0  0  0  0  0  0  0  0  0  0  0
    6.5228   -4.9948   -3.8333 H   0  0  0  0  0  0  0  0  0  0  0  0
    6.9693   -6.2131   -5.6178 H   0  0  0  0  0  0  0  0  0  0  0  0
    5.6688   -7.4014   -5.8998 H   0  0  0  0  0  0  0  0  0  0  0  0
    7.2573   -7.9358   -5.2696 H   0  0  0  0  0  0  0  0  0  0  0  0
  1  2  1  0  0  0  0
  1 50  1  0  0  0  0
  2  3  1  0  0  0  0
  2 51  1  0  0  0  0
  2 52  1  0  0  0  0
  3  4  1  1  0  0  0
  3  5  1  0  0  0  0
  3 42  1  0  0  0  0
  5  6  1  0  0  0  0
  6  7  1  6  0  0  0
  6  8  1  0  0  0  0
  6 38  1  0  0  0  0
  9 11  1  1  0  0  0
  9 37  1  0  0  0  0
  9 10  2  0  0  0  0
  9  8  1  0  0  0  0
 12 11  1  6  0  0  0
 12 13  2  0  0  0  0
 12 14  1  0  0  0  0
 12 36  1  0  0  0  0
 14 15  1  0  0  0  0
 15 16  1  0  0  0  0
 15 53  1  0  0  0  0
 15 54  1  0  0  0  0
 16 17  1  6  0  0  0
 16 18  1  0  0  0  0
 16 23  1  0  0  0  0
 18 19  1  0  0  0  0
 19 21  1  0  0  0  0
 19 27  1  0  0  0  0
 19 20  1  6  0  0  0
 21 22  1  1  0  0  0
 21 23  1  0  0  0  0
 21 26  1  0  0  0  0
 23 24  1  1  0  0  0
 23 25  1  0  0  0  0
 25 55  1  0  0  0  0
 26 56  1  0  0  0  0
 27 28  1  0  0  0  0
 27 34  1  0  0  0  0
 28 29  2  0  0  0  0
 28 57  1  0  0  0  0
 29 30  1  0  0  0  0
 29 58  1  0  0  0  0
 30 31  2  0  0  0  0
 30 32  1  0  0  0  0
 32 33  1  0  0  0  0
 32 34  1  0  0  0  0
 34 35  2  0  0  0  0
 36 59  1  0  0  0  0
 37 60  1  0  0  0  0
 38 40  1  0  0  0  0
 38 46  1  0  0  0  0
 38 39  1  1  0  0  0
 40 42  1  0  0  0  0
 40 45  1  0  0  0  0
 40 41  1  1  0  0  0
 42 43  1  1  0  0  0
 42 44  1  0  0  0  0
 44 61  1  0  0  0  0
 45 62  1  0  0  0  0
 46 47  1  0  0  0  0
 46 63  1  0  0  0  0
 47 48  2  0  0  0  0
 47 49  1  0  0  0  0
 49 64  1  0  0  0  0
 49 65  1  0  0  0  0
 49 66  1  0  0  0  0
M  END
$$$$
