ZMA
 OpenBabel04121316213D

 40 43  0  0  0  0  0  0  0  0999 V2000
    0.9010   -0.0839    0.1275 O   0  0  0  0  0  0  0  0  0  0  0  0
    2.2595   -0.0264    0.0576 C   0  0  0  0  0  0  0  0  0  0  0  0
    2.9553    1.1792    0.0386 C   0  0  0  0  0  0  0  0  0  0  0  0
    4.3429    1.1777   -0.1669 C   0  0  0  0  0  0  0  0  0  0  0  0
    5.0451   -0.0335   -0.2563 C   0  0  0  0  0  0  0  0  0  0  0  0
    4.3199   -1.2277   -0.0893 C   0  0  0  0  0  0  0  0  0  0  0  0
    2.9350   -1.2294    0.0020 C   0  0  0  0  0  0  0  0  0  0  0  0
    6.5362   -0.0498   -0.5797 C   0  0  0  0  0  0  0  0  0  0  0  0
    7.0876   -1.4884   -0.6387 C   0  0  0  0  0  0  0  0  0  0  0  0
    8.4754   -1.6257   -0.9881 N   0  0  0  0  0  0  0  0  0  0  0  0
    9.1291   -2.8342   -1.0420 C   0  0  0  0  0  0  0  0  0  0  0  0
   10.4921   -2.6795   -1.2004 N   0  0  0  0  0  0  0  0  0  0  0  0
   11.2361   -3.7293   -1.2728 C   0  0  0  0  0  0  0  0  0  0  0  0
   12.5933   -3.6676   -1.4225 N   0  0  0  0  0  0  0  0  0  0  0  0
   10.6496   -4.9838   -1.1977 N   0  0  0  0  0  0  0  0  0  0  0  0
    9.3113   -5.1371   -1.0421 C   0  0  0  0  0  0  0  0  0  0  0  0
    8.5325   -4.0053   -0.9531 N   0  0  0  0  0  0  0  0  0  0  0  0
    9.0839   -6.4540   -1.0196 N   0  0  0  0  0  0  0  0  0  0  0  0
   10.3527   -7.0388   -1.1668 C   0  0  0  0  0  0  0  0  0  0  0  0
   11.3379   -6.1306   -1.2750 N   0  0  0  0  0  0  0  0  0  0  0  0
   10.7348   -8.5249   -1.2153 C   0  0  0  0  0  0  0  0  0  0  0  0
   12.0478   -8.9736   -1.3631 C   0  0  0  0  0  0  0  0  0  0  0  0
   12.0412  -10.3889   -1.3625 C   0  0  0  0  0  0  0  0  0  0  0  0
   10.7235  -10.7461   -1.2185 C   0  0  0  0  0  0  0  0  0  0  0  0
    9.9249   -9.6379   -1.1286 O   0  0  0  0  0  0  0  0  0  0  0  0
    0.5498    0.8182    0.0757 H   0  0  0  0  0  0  0  0  0  0  0  0
    2.4350    2.1230    0.1666 H   0  0  0  0  0  0  0  0  0  0  0  0
    4.8633    2.1283   -0.2664 H   0  0  0  0  0  0  0  0  0  0  0  0
    4.8020   -2.2003   -0.0532 H   0  0  0  0  0  0  0  0  0  0  0  0
    2.3990   -2.1732    0.0215 H   0  0  0  0  0  0  0  0  0  0  0  0
    7.0752    0.5464    0.1681 H   0  0  0  0  0  0  0  0  0  0  0  0
    6.6813    0.4451   -1.5505 H   0  0  0  0  0  0  0  0  0  0  0  0
    6.5152   -2.0473   -1.3865 H   0  0  0  0  0  0  0  0  0  0  0  0
    6.9432   -1.9472    0.3453 H   0  0  0  0  0  0  0  0  0  0  0  0
    9.0479   -0.7944   -1.0655 H   0  0  0  0  0  0  0  0  0  0  0  0
   13.0569   -2.7744   -1.4779 H   0  0  0  0  0  0  0  0  0  0  0  0
   13.1226   -4.5310   -1.4806 H   0  0  0  0  0  0  0  0  0  0  0  0
   12.9208   -8.3434   -1.4594 H   0  0  0  0  0  0  0  0  0  0  0  0
   12.8887  -11.0592   -1.4554 H   0  0  0  0  0  0  0  0  0  0  0  0
   10.2287  -11.7084   -1.1652 H   0  0  0  0  0  0  0  0  0  0  0  0
  1  2  1  0  0  0  0
  1 26  1  0  0  0  0
  2  3  2  0  0  0  0
  2  7  1  0  0  0  0
  3  4  1  0  0  0  0
  3 27  1  0  0  0  0
  4  5  2  0  0  0  0
  4 28  1  0  0  0  0
  5  6  1  0  0  0  0
  5  8  1  0  0  0  0
  6  7  2  0  0  0  0
  6 29  1  0  0  0  0
  7 30  1  0  0  0  0
  8  9  1  0  0  0  0
  8 31  1  0  0  0  0
  8 32  1  0  0  0  0
  9 10  1  0  0  0  0
  9 33  1  0  0  0  0
  9 34  1  0  0  0  0
 10 11  1  0  0  0  0
 10 35  1  0  0  0  0
 11 12  1  0  0  0  0
 11 17  2  0  0  0  0
 12 13  2  0  0  0  0
 13 14  1  0  0  0  0
 13 15  1  0  0  0  0
 14 36  1  0  0  0  0
 14 37  1  0  0  0  0
 15 16  1  0  0  0  0
 15 20  1  0  0  0  0
 16 17  1  0  0  0  0
 16 18  2  0  0  0  0
 18 19  1  0  0  0  0
 19 20  2  0  0  0  0
 19 21  1  0  0  0  0
 21 22  2  0  0  0  0
 21 25  1  0  0  0  0
 22 23  1  0  0  0  0
 22 38  1  0  0  0  0
 23 24  2  0  0  0  0
 23 39  1  0  0  0  0
 24 25  1  0  0  0  0
 24 40  1  0  0  0  0
M  END
$$$$
