ZMP
 OpenBabel04121316213D

 83 82  0  0  1  0  0  0  0  0999 V2000
   44.3410   -0.8158  -24.5009 C   0  0  0  0  0  0  0  0  0  0  0  0
   43.9226   -1.9265  -23.5579 C   0  0  0  0  0  0  0  0  0  0  0  0
   42.6227   -1.5632  -22.8549 C   0  0  0  0  0  0  0  0  0  0  0  0
   42.2009   -2.6753  -21.9087 C   0  0  0  0  0  0  0  0  0  0  0  0
   40.9029   -2.3040  -21.2117 C   0  0  0  0  0  0  0  0  0  0  0  0
   40.4835   -3.4162  -20.2671 C   0  0  0  0  0  0  0  0  0  0  0  0
   39.1867   -3.0447  -19.5710 C   0  0  0  0  0  0  0  0  0  0  0  0
   38.7678   -4.1571  -18.6266 C   0  0  0  0  0  0  0  0  0  0  0  0
   37.4703   -3.7848  -17.9306 C   0  0  0  0  0  0  0  0  0  0  0  0
   37.0469   -4.8952  -16.9842 C   0  0  0  0  0  0  0  0  0  0  0  0
   35.7462   -4.5245  -16.2850 C   0  0  0  0  0  0  0  0  0  0  0  0
   35.3260   -5.6398  -15.3380 C   0  0  0  0  0  0  0  0  0  0  0  0
   34.0245   -5.3056  -14.6169 C   0  0  0  0  0  0  0  0  0  0  0  0
   33.6193   -6.4262  -13.6773 C   0  0  0  0  0  0  0  0  0  0  0  0
   34.2557   -7.4645  -13.5190 O   0  0  0  0  0  0  0  0  0  0  0  0
   32.1232   -6.1160  -12.8052 S   0  0  0  0  0  0  0  0  0  0  0  0
   31.9763   -7.6402  -11.8119 C   0  0  0  0  0  0  0  0  0  0  0  0
   30.7075   -7.5635  -10.9633 C   0  0  0  0  0  0  0  0  0  0  0  0
   30.4876   -8.7327  -10.1245 N   0  0  0  0  0  0  0  0  0  0  0  0
   29.3715   -8.7761   -9.3128 C   0  0  0  0  0  0  0  0  0  0  0  0
   28.5613   -7.8548   -9.2795 O   0  0  0  0  0  0  0  0  0  0  0  0
   29.2360  -10.0381   -8.4797 C   0  0  0  0  0  0  0  0  0  0  0  0
   27.9680   -9.9513   -7.6441 C   0  0  0  0  0  0  0  0  0  0  0  0
   27.7145  -11.1031   -6.8031 N   0  0  0  0  0  0  0  0  0  0  0  0
   26.5306  -11.1491   -6.0864 C   0  0  0  0  0  0  0  0  0  0  0  0
   25.7306  -10.2143   -6.1093 O   0  0  0  0  0  0  0  0  0  0  0  0
   26.3098  -12.4057   -5.2045 C   0  0  2  0  0  0  0  0  0  0  0  0
   25.2502  -12.6643   -5.3204 H   0  0  0  0  0  0  0  0  0  0  0  0
   26.6636  -12.1477   -3.7136 C   0  0  0  0  0  0  0  0  0  0  0  0
   26.3198  -13.3841   -2.8302 C   0  0  0  0  0  0  0  0  0  0  0  0
   24.9393  -13.7350   -2.8772 O   0  0  0  0  0  0  0  0  0  0  0  0
   24.5755  -15.1213   -2.1020 P   0  3  3  0  0  0  0  0  0  0  0  0
   24.7591  -14.6392   -0.7373 O   0  0  0  0  0  0  0  0  0  0  0  0
   22.9577  -15.0104   -2.1742 O   0  5  0  0  0  0  0  0  0  0  0  0
   28.1792  -11.8870   -3.5773 C   0  0  0  0  0  0  0  0  0  0  0  0
   25.8981  -10.9250   -3.1727 C   0  0  0  0  0  0  0  0  0  0  0  0
   27.0740  -13.5128   -5.7123 O   0  0  0  0  0  0  0  0  0  0  0  0
   45.2746   -1.0783  -25.0049 H   0  0  0  0  0  0  0  0  0  0  0  0
   44.4944    0.1192  -23.9527 H   0  0  0  0  0  0  0  0  0  0  0  0
   43.5728   -0.6452  -25.2619 H   0  0  0  0  0  0  0  0  0  0  0  0
   44.7122   -2.0980  -22.8170 H   0  0  0  0  0  0  0  0  0  0  0  0
   43.7948   -2.8589  -24.1202 H   0  0  0  0  0  0  0  0  0  0  0  0
   41.8326   -1.3898  -23.5961 H   0  0  0  0  0  0  0  0  0  0  0  0
   42.7496   -0.6293  -22.2934 H   0  0  0  0  0  0  0  0  0  0  0  0
   42.9859   -2.8497  -21.1626 H   0  0  0  0  0  0  0  0  0  0  0  0
   42.0683   -3.6107  -22.4660 H   0  0  0  0  0  0  0  0  0  0  0  0
   40.1151   -2.1303  -21.9551 H   0  0  0  0  0  0  0  0  0  0  0  0
   41.0325   -1.3694  -20.6520 H   0  0  0  0  0  0  0  0  0  0  0  0
   41.2699   -3.5902  -19.5223 H   0  0  0  0  0  0  0  0  0  0  0  0
   40.3524   -4.3512  -20.8256 H   0  0  0  0  0  0  0  0  0  0  0  0
   38.4000   -2.8707  -20.3155 H   0  0  0  0  0  0  0  0  0  0  0  0
   39.3174   -2.1098  -19.0122 H   0  0  0  0  0  0  0  0  0  0  0  0
   39.5552   -4.3308  -17.8828 H   0  0  0  0  0  0  0  0  0  0  0  0
   38.6377   -5.0918  -19.1861 H   0  0  0  0  0  0  0  0  0  0  0  0
   36.6853   -3.6105  -18.6766 H   0  0  0  0  0  0  0  0  0  0  0  0
   37.6029   -2.8495  -17.3732 H   0  0  0  0  0  0  0  0  0  0  0  0
   37.8354   -5.0693  -16.2415 H   0  0  0  0  0  0  0  0  0  0  0  0
   36.9184   -5.8299  -17.5442 H   0  0  0  0  0  0  0  0  0  0  0  0
   34.9627   -4.3499  -17.0324 H   0  0  0  0  0  0  0  0  0  0  0  0
   35.8804   -3.5888  -15.7288 H   0  0  0  0  0  0  0  0  0  0  0  0
   36.1220   -5.8136  -14.6032 H   0  0  0  0  0  0  0  0  0  0  0  0
   35.2068   -6.5726  -15.9032 H   0  0  0  0  0  0  0  0  0  0  0  0
   33.2290   -5.1470  -15.3552 H   0  0  0  0  0  0  0  0  0  0  0  0
   34.1534   -4.3803  -14.0422 H   0  0  0  0  0  0  0  0  0  0  0  0
   32.8511   -7.7510  -11.1618 H   0  0  0  0  0  0  0  0  0  0  0  0
   31.9301   -8.5149  -12.4700 H   0  0  0  0  0  0  0  0  0  0  0  0
   29.8216   -7.4543  -11.6024 H   0  0  0  0  0  0  0  0  0  0  0  0
   30.7407   -6.6915  -10.2974 H   0  0  0  0  0  0  0  0  0  0  0  0
   31.1392   -9.5069  -10.1342 H   0  0  0  0  0  0  0  0  0  0  0  0
   30.1136  -10.1421   -7.8327 H   0  0  0  0  0  0  0  0  0  0  0  0
   29.1917  -10.9072   -9.1452 H   0  0  0  0  0  0  0  0  0  0  0  0
   27.0949   -9.8213   -8.2965 H   0  0  0  0  0  0  0  0  0  0  0  0
   28.0049   -9.0720   -6.9874 H   0  0  0  0  0  0  0  0  0  0  0  0
   28.2981  -11.9345   -6.8024 H   0  0  0  0  0  0  0  0  0  0  0  0
   26.6066  -13.1625   -1.7933 H   0  0  0  0  0  0  0  0  0  0  0  0
   26.9177  -14.2412   -3.1650 H   0  0  0  0  0  0  0  0  0  0  0  0
   28.7654  -12.7399   -3.9377 H   0  0  0  0  0  0  0  0  0  0  0  0
   28.4592  -11.7097   -2.5340 H   0  0  0  0  0  0  0  0  0  0  0  0
   28.4878  -11.0059   -4.1491 H   0  0  0  0  0  0  0  0  0  0  0  0
   24.8153  -11.0574   -3.2677 H   0  0  0  0  0  0  0  0  0  0  0  0
   26.1734  -10.0054   -3.6993 H   0  0  0  0  0  0  0  0  0  0  0  0
   26.1300  -10.7524   -2.1165 H   0  0  0  0  0  0  0  0  0  0  0  0
   26.7085  -14.3034   -5.2717 H   0  0  0  0  0  0  0  0  0  0  0  0
  1  2  1  0  0  0  0
  1 38  1  0  0  0  0
  1 39  1  0  0  0  0
  1 40  1  0  0  0  0
  2  3  1  0  0  0  0
  2 41  1  0  0  0  0
  2 42  1  0  0  0  0
  3  4  1  0  0  0  0
  3 43  1  0  0  0  0
  3 44  1  0  0  0  0
  4  5  1  0  0  0  0
  4 45  1  0  0  0  0
  4 46  1  0  0  0  0
  5  6  1  0  0  0  0
  5 47  1  0  0  0  0
  5 48  1  0  0  0  0
  6  7  1  0  0  0  0
  6 49  1  0  0  0  0
  6 50  1  0  0  0  0
  7  8  1  0  0  0  0
  7 51  1  0  0  0  0
  7 52  1  0  0  0  0
  8  9  1  0  0  0  0
  8 53  1  0  0  0  0
  8 54  1  0  0  0  0
  9 10  1  0  0  0  0
  9 55  1  0  0  0  0
  9 56  1  0  0  0  0
 10 11  1  0  0  0  0
 10 57  1  0  0  0  0
 10 58  1  0  0  0  0
 11 12  1  0  0  0  0
 11 59  1  0  0  0  0
 11 60  1  0  0  0  0
 12 13  1  0  0  0  0
 12 61  1  0  0  0  0
 12 62  1  0  0  0  0
 13 14  1  0  0  0  0
 13 63  1  0  0  0  0
 13 64  1  0  0  0  0
 14 15  2  0  0  0  0
 14 16  1  0  0  0  0
 16 17  1  0  0  0  0
 17 18  1  0  0  0  0
 17 65  1  0  0  0  0
 17 66  1  0  0  0  0
 18 19  1  0  0  0  0
 18 67  1  0  0  0  0
 18 68  1  0  0  0  0
 19 20  1  0  0  0  0
 19 69  1  0  0  0  0
 20 21  2  0  0  0  0
 20 22  1  0  0  0  0
 22 23  1  0  0  0  0
 22 70  1  0  0  0  0
 22 71  1  0  0  0  0
 23 24  1  0  0  0  0
 23 72  1  0  0  0  0
 23 73  1  0  0  0  0
 24 25  1  0  0  0  0
 24 74  1  0  0  0  0
 25 26  2  0  0  0  0
 27 29  1  0  0  0  0
 27 37  1  0  0  0  0
 27 28  1  6  0  0  0
 27 25  1  0  0  0  0
 29 30  1  0  0  0  0
 29 35  1  0  0  0  0
 29 36  1  0  0  0  0
 30 31  1  0  0  0  0
 30 75  1  0  0  0  0
 30 76  1  0  0  0  0
 31 32  1  0  0  0  0
 32 33  2  0  0  0  0
 32 34  1  0  0  0  0
 35 77  1  0  0  0  0
 35 78  1  0  0  0  0
 35 79  1  0  0  0  0
 36 80  1  0  0  0  0
 36 81  1  0  0  0  0
 36 82  1  0  0  0  0
 37 83  1  0  0  0  0
M  CHG  2  32   1  34  -1
M  END
$$$$
