ZOL
 OpenBabel04121316213D

 26 26  0  0  0  0  0  0  0  0999 V2000
    1.0998    0.0001    0.0060 O   0  0  0  0  0  0  0  0  0  0  0  0
    2.8298    0.0001    0.0060 P   0  0  0  0  0  0  0  0  0  0  0  0
    2.7810    0.6136    1.3976 O   0  0  0  0  0  0  0  0  0  0  0  0
    2.8298   -1.8298   -0.0122 C   0  0  0  0  0  0  0  0  0  0  0  0
    3.6925   -2.4250   -1.5124 P   0  0  0  0  0  0  0  0  0  0  0  0
    4.4846   -3.4907   -0.7651 O   0  0  0  0  0  0  0  0  0  0  0  0
    2.3364   -3.2074   -2.0217 O   0  0  0  0  0  0  0  0  0  0  0  0
    4.5080   -2.9876   -2.9306 O   0  0  0  0  0  0  0  0  0  0  0  0
    3.5622   -2.3101    1.3589 C   0  0  0  0  0  0  0  0  0  0  0  0
    4.9733   -1.9790    1.6271 N   0  0  0  0  0  0  0  0  0  0  0  0
    5.4956   -0.7940    2.0947 C   0  0  0  0  0  0  0  0  0  0  0  0
    6.7925   -0.6993    1.8313 N   0  0  0  0  0  0  0  0  0  0  0  0
    7.1525   -1.9503    1.4278 C   0  0  0  0  0  0  0  0  0  0  0  0
    6.0623   -2.7945    1.4348 C   0  0  0  0  0  0  0  0  0  0  0  0
    1.4751   -2.3919    0.0252 O   0  0  0  0  0  0  0  0  0  0  0  0
    4.5598    0.0001    0.0060 O   0  0  0  0  0  0  0  0  0  0  0  0
    0.8206    0.7646    0.5584 H   0  0  0  0  0  0  0  0  0  0  0  0
    1.9644   -3.7359   -1.2749 H   0  0  0  0  0  0  0  0  0  0  0  0
    5.4693   -2.9017   -2.7859 H   0  0  0  0  0  0  0  0  0  0  0  0
    3.4939   -3.4045    1.4181 H   0  0  0  0  0  0  0  0  0  0  0  0
    2.9921   -1.9409    2.2189 H   0  0  0  0  0  0  0  0  0  0  0  0
    4.8924    0.0320    2.4336 H   0  0  0  0  0  0  0  0  0  0  0  0
    8.1774   -2.1886    1.1712 H   0  0  0  0  0  0  0  0  0  0  0  0
    5.9710   -3.8460    1.2181 H   0  0  0  0  0  0  0  0  0  0  0  0
    0.9227   -1.7321   -0.4526 H   0  0  0  0  0  0  0  0  0  0  0  0
    4.9448    0.8904    0.1622 H   0  0  0  0  0  0  0  0  0  0  0  0
  1  2  1  0  0  0  0
  1 17  1  0  0  0  0
  2  3  2  0  0  0  0
  2  4  1  0  0  0  0
  2 16  1  0  0  0  0
  4  5  1  0  0  0  0
  4  9  1  0  0  0  0
  4 15  1  0  0  0  0
  5  6  2  0  0  0  0
  5  7  1  0  0  0  0
  5  8  1  0  0  0  0
  7 18  1  0  0  0  0
  8 19  1  0  0  0  0
  9 10  1  0  0  0  0
  9 20  1  0  0  0  0
  9 21  1  0  0  0  0
 10 11  1  0  0  0  0
 10 14  1  0  0  0  0
 11 12  2  0  0  0  0
 11 22  1  0  0  0  0
 12 13  1  0  0  0  0
 13 14  2  0  0  0  0
 13 23  1  0  0  0  0
 14 24  1  0  0  0  0
 15 25  1  0  0  0  0
 16 26  1  0  0  0  0
M  END
$$$$
