ZRG
 OpenBabel04121316213D

 42 41  0  0  1  0  0  0  0  0999 V2000
    1.0831   -0.0382    0.0837 C   0  0  0  0  0  0  0  0  0  0  0  0
    2.5290   -0.0885    0.0507 N   0  0  0  0  0  0  0  0  0  0  0  0
    3.1104   -1.1178   -0.6448 C   0  0  0  0  0  0  0  0  0  0  0  0
    2.4237   -1.9579   -1.2122 O   0  0  0  0  0  0  0  0  0  0  0  0
    4.4875   -1.1299   -0.6521 N   0  0  0  0  0  0  0  0  0  0  0  0
    5.2132   -2.0887   -1.3194 C   0  0  0  0  0  0  0  0  0  0  0  0
    4.6403   -3.0485   -1.9614 N   0  0  0  0  0  0  0  0  0  0  0  0
    6.5715   -2.0377   -1.3189 N   0  0  0  0  0  0  0  0  0  0  0  0
    7.3072   -3.0770   -2.0351 C   0  0  0  0  0  0  0  0  0  0  0  0
    8.7912   -2.8723   -1.8662 C   0  0  0  0  0  0  0  0  0  0  0  0
    9.6344   -3.9451   -2.5597 C   0  0  0  0  0  0  0  0  0  0  0  0
   11.1489   -3.7251   -2.3778 C   0  0  1  0  0  0  0  0  0  0  0  0
   11.4387   -2.7367   -2.7559 H   0  0  0  0  0  0  0  0  0  0  0  0
   11.5557   -3.8443   -0.8753 C   0  0  0  0  0  0  0  0  0  0  0  0
   12.1796   -4.8073   -0.4300 O   0  0  0  0  0  0  0  0  0  0  0  0
   11.1223   -2.8225   -0.0531 N   0  0  0  0  0  0  0  0  0  0  0  0
   11.3255   -2.8666    1.3694 C   0  0  0  0  0  0  0  0  0  0  0  0
   11.8997   -4.7173   -3.1510 N   0  0  0  0  0  0  0  0  0  0  0  0
   13.2774   -4.6636   -3.1656 C   0  0  0  0  0  0  0  0  0  0  0  0
   13.9178   -3.7444   -2.6627 O   0  0  0  0  0  0  0  0  0  0  0  0
   13.9585   -5.8175   -3.8475 C   0  0  0  0  0  0  0  0  0  0  0  0
    0.7522    0.8227    0.6655 H   0  0  0  0  0  0  0  0  0  0  0  0
    0.7015   -0.9621    0.5317 H   0  0  0  0  0  0  0  0  0  0  0  0
    0.7021    0.0334   -0.9409 H   0  0  0  0  0  0  0  0  0  0  0  0
    3.0639    0.6189    0.5282 H   0  0  0  0  0  0  0  0  0  0  0  0
    4.9830   -0.4044   -0.1688 H   0  0  0  0  0  0  0  0  0  0  0  0
    3.6163   -2.9446   -1.8737 H   0  0  0  0  0  0  0  0  0  0  0  0
    7.0854   -1.3428   -0.7996 H   0  0  0  0  0  0  0  0  0  0  0  0
    7.0450   -3.0650   -3.0977 H   0  0  0  0  0  0  0  0  0  0  0  0
    7.0465   -4.0596   -1.6205 H   0  0  0  0  0  0  0  0  0  0  0  0
    8.9369   -2.9227   -0.7876 H   0  0  0  0  0  0  0  0  0  0  0  0
    9.0892   -1.8760   -2.2135 H   0  0  0  0  0  0  0  0  0  0  0  0
    9.3904   -3.9606   -3.6307 H   0  0  0  0  0  0  0  0  0  0  0  0
    9.3580   -4.9330   -2.1673 H   0  0  0  0  0  0  0  0  0  0  0  0
   10.6203   -2.0313   -0.4292 H   0  0  0  0  0  0  0  0  0  0  0  0
   12.0216   -3.6594    1.6464 H   0  0  0  0  0  0  0  0  0  0  0  0
   10.3609   -3.0401    1.8560 H   0  0  0  0  0  0  0  0  0  0  0  0
   11.7186   -1.8957    1.6732 H   0  0  0  0  0  0  0  0  0  0  0  0
   11.4227   -5.5238   -3.5325 H   0  0  0  0  0  0  0  0  0  0  0  0
   13.2464   -6.5130   -4.2982 H   0  0  0  0  0  0  0  0  0  0  0  0
   14.5686   -6.3614   -3.1197 H   0  0  0  0  0  0  0  0  0  0  0  0
   14.6021   -5.4136   -4.6332 H   0  0  0  0  0  0  0  0  0  0  0  0
  1  2  1  0  0  0  0
  1 22  1  0  0  0  0
  1 23  1  0  0  0  0
  1 24  1  0  0  0  0
  2  3  1  0  0  0  0
  2 25  1  0  0  0  0
  3  4  2  0  0  0  0
  3  5  1  0  0  0  0
  5  6  1  0  0  0  0
  5 26  1  0  0  0  0
  6  7  2  0  0  0  0
  6  8  1  0  0  0  0
  7 27  1  0  0  0  0
  8  9  1  0  0  0  0
  8 28  1  0  0  0  0
  9 10  1  0  0  0  0
  9 29  1  0  0  0  0
  9 30  1  0  0  0  0
 10 11  1  0  0  0  0
 10 31  1  0  0  0  0
 10 32  1  0  0  0  0
 11 12  1  0  0  0  0
 11 33  1  0  0  0  0
 11 34  1  0  0  0  0
 12 13  1  6  0  0  0
 12 14  1  0  0  0  0
 12 18  1  0  0  0  0
 14 15  2  0  0  0  0
 14 16  1  0  0  0  0
 16 17  1  0  0  0  0
 16 35  1  0  0  0  0
 17 36  1  0  0  0  0
 17 37  1  0  0  0  0
 17 38  1  0  0  0  0
 18 19  1  0  0  0  0
 18 39  1  0  0  0  0
 19 20  2  0  0  0  0
 19 21  1  0  0  0  0
 21 40  1  0  0  0  0
 21 41  1  0  0  0  0
 21 42  1  0  0  0  0
M  END
$$$$
