ZU5
 OpenBabel04121316213D

 97 99  0  0  1  0  0  0  0  0999 V2000
    7.8820    5.5774   -1.3303 C   0  0  0  0  0  0  0  0  0  0  0  0
    6.6481    6.2923   -0.7474 C   0  0  0  0  0  0  0  0  0  0  0  0
    5.9284    5.6873    0.4934 C   0  0  0  0  0  0  0  0  0  0  0  0
    5.0925    4.4556    0.1210 C   0  0  1  0  0  0  0  0  0  0  0  0
    4.3051    4.6780   -0.6075 H   0  0  0  0  0  0  0  0  0  0  0  0
    6.2454    3.6204   -0.4708 C   0  0  0  0  0  0  0  0  0  0  0  0
    7.2138    3.2952    0.2282 O   0  0  0  0  0  0  0  0  0  0  0  0
    6.2601    3.3901   -1.8649 N   0  0  0  0  0  0  0  0  0  0  0  0
    7.3111    2.4877   -2.3737 C   0  0  1  0  0  0  0  0  0  0  0  0
    8.0855    2.3294   -1.6125 H   0  0  0  0  0  0  0  0  0  0  0  0
    6.6520    1.1597   -2.7061 C   0  0  0  0  0  0  0  0  0  0  0  0
    5.9288    0.3998   -1.5967 C   0  0  2  0  0  0  0  0  0  0  0  0
    6.5653   -0.3717   -1.1558 H   0  0  0  0  0  0  0  0  0  0  0  0
    4.5337    0.0072   -2.0919 C   0  0  0  0  0  0  0  0  0  0  0  0
    3.7419    1.2969   -2.0733 C   0  0  0  0  0  0  0  0  0  0  0  0
    4.3358    1.8834   -0.9639 N   0  0  0  0  0  0  0  0  0  0  0  0
    5.4373    1.2112   -0.4777 C   0  0  0  0  0  0  0  0  0  0  0  0
    5.9795    1.3197    0.5885 O   0  0  0  0  0  0  0  0  0  0  0  0
    8.0191    3.0838   -3.6023 C   0  0  0  0  0  0  0  0  0  0  0  0
    8.9900    2.1142   -4.2567 C   0  0  0  0  0  0  0  0  0  0  0  0
    9.5474    2.7274   -5.5109 C   0  0  0  0  0  0  0  0  0  0  0  0
    9.3019    3.8598   -5.9042 O   0  0  0  0  0  0  0  0  0  0  0  0
   10.4387    1.8333   -6.2809 C   0  0  0  0  0  0  0  0  0  0  0  0
    9.8499    0.6342   -6.9913 C   0  0  0  0  0  0  0  0  0  0  0  0
   10.3575    1.8022   -7.7862 C   0  0  0  0  0  0  0  0  0  0  0  0
    4.4569    3.8691    1.3411 N   0  0  0  0  0  0  0  0  0  0  0  0
    3.5956    2.8023    1.4115 C   0  0  0  0  0  0  0  0  0  0  0  0
    2.7171    2.6129    0.5566 O   0  0  0  0  0  0  0  0  0  0  0  0
    3.5476    1.9393    2.6401 C   0  0  2  0  0  0  0  0  0  0  0  0
    2.6927    2.5026    2.9079 H   0  0  0  0  0  0  0  0  0  0  0  0
    4.5569    2.0553    3.7753 C   0  0  2  0  0  0  0  0  0  0  0  0
    4.5701    1.1284    4.3570 H   0  0  0  0  0  0  0  0  0  0  0  0
    4.1718    3.1255    4.6575 O   0  0  0  0  0  0  0  0  0  0  0  0
    2.9285    2.9428    5.3883 C   0  0  0  0  0  0  0  0  0  0  0  0
    1.6402    3.0699    4.5486 C   0  0  0  0  0  0  0  0  0  0  0  0
    2.9041    1.6061    6.1322 C   0  0  0  0  0  0  0  0  0  0  0  0
    2.8654    4.1121    6.3628 C   0  0  0  0  0  0  0  0  0  0  0  0
    5.9984    2.1864    3.3156 C   0  0  0  0  0  0  0  0  0  0  0  0
    3.0008    0.5951    2.4893 N   0  0  0  0  0  0  0  0  0  0  0  0
    3.8215   -0.3916    2.1046 C   0  0  0  0  0  0  0  0  0  0  0  0
    5.0496   -0.2834    1.9909 O   0  0  0  0  0  0  0  0  0  0  0  0
    3.2197   -1.5530    1.8774 O   0  0  0  0  0  0  0  0  0  0  0  0
    4.2127   -2.4953    1.4520 C   0  0  0  0  0  0  0  0  0  0  0  0
    3.6086   -3.8542    1.4269 C   0  0  0  0  0  0  0  0  0  0  0  0
    2.4043   -4.0912    2.0971 C   0  0  0  0  0  0  0  0  0  0  0  0
    1.9749   -5.3856    2.3094 C   0  0  0  0  0  0  0  0  0  0  0  0
    2.6716   -6.4384    1.7276 C   0  0  0  0  0  0  0  0  0  0  0  0
    3.7880   -6.1945    0.9254 C   0  0  0  0  0  0  0  0  0  0  0  0
    4.3003   -4.9082    0.8277 C   0  0  0  0  0  0  0  0  0  0  0  0
    7.3045    7.5951   -0.3793 C   0  0  0  0  0  0  0  0  0  0  0  0
    7.8368    4.5472   -1.5261 H   0  0  0  0  0  0  0  0  0  0  0  0
    8.7247    5.5341   -0.6392 H   0  0  0  0  0  0  0  0  0  0  0  0
    8.1110    5.9488   -2.3305 H   0  0  0  0  0  0  0  0  0  0  0  0
    5.8795    6.4299   -1.5225 H   0  0  0  0  0  0  0  0  0  0  0  0
    5.2750    6.4129    0.9872 H   0  0  0  0  0  0  0  0  0  0  0  0
    6.6810    5.4005    1.2448 H   0  0  0  0  0  0  0  0  0  0  0  0
    5.9102    4.1241   -2.4743 H   0  0  0  0  0  0  0  0  0  0  0  0
    7.3790    0.4473   -3.0925 H   0  0  0  0  0  0  0  0  0  0  0  0
    5.9596    1.3767   -3.5266 H   0  0  0  0  0  0  0  0  0  0  0  0
    4.0935   -0.6674   -1.3476 H   0  0  0  0  0  0  0  0  0  0  0  0
    4.5437   -0.4287   -3.0787 H   0  0  0  0  0  0  0  0  0  0  0  0
    2.6829    1.2049   -1.8269 H   0  0  0  0  0  0  0  0  0  0  0  0
    3.8778    2.0213   -2.8819 H   0  0  0  0  0  0  0  0  0  0  0  0
    3.7980    2.5879   -0.4973 H   0  0  0  0  0  0  0  0  0  0  0  0
    8.6041    3.9704   -3.3308 H   0  0  0  0  0  0  0  0  0  0  0  0
    7.2742    3.4311   -4.3279 H   0  0  0  0  0  0  0  0  0  0  0  0
    8.4842    1.1929   -4.5521 H   0  0  0  0  0  0  0  0  0  0  0  0
    9.8087    1.8616   -3.5723 H   0  0  0  0  0  0  0  0  0  0  0  0
   11.4280    1.7423   -5.8462 H   0  0  0  0  0  0  0  0  0  0  0  0
    8.7749    0.4838   -6.9663 H   0  0  0  0  0  0  0  0  0  0  0  0
   10.4142   -0.2907   -6.9864 H   0  0  0  0  0  0  0  0  0  0  0  0
    9.6308    2.4481   -8.2690 H   0  0  0  0  0  0  0  0  0  0  0  0
   11.2852    1.7070   -8.3368 H   0  0  0  0  0  0  0  0  0  0  0  0
    4.7748    4.2263    2.2310 H   0  0  0  0  0  0  0  0  0  0  0  0
    1.4266    2.1388    4.0101 H   0  0  0  0  0  0  0  0  0  0  0  0
    1.7271    3.9146    3.8477 H   0  0  0  0  0  0  0  0  0  0  0  0
    0.7311    3.1904    5.1316 H   0  0  0  0  0  0  0  0  0  0  0  0
    2.9607    0.7528    5.4463 H   0  0  0  0  0  0  0  0  0  0  0  0
    1.9690    1.4872    6.6823 H   0  0  0  0  0  0  0  0  0  0  0  0
    3.7557    1.5219    6.8134 H   0  0  0  0  0  0  0  0  0  0  0  0
    2.9330    5.0624    5.8174 H   0  0  0  0  0  0  0  0  0  0  0  0
    3.6943    4.0858    7.0730 H   0  0  0  0  0  0  0  0  0  0  0  0
    1.9181    4.0946    6.9100 H   0  0  0  0  0  0  0  0  0  0  0  0
    6.7063    2.2241    4.1397 H   0  0  0  0  0  0  0  0  0  0  0  0
    6.1915    3.0596    2.7018 H   0  0  0  0  0  0  0  0  0  0  0  0
    6.2732    1.3048    2.7499 H   0  0  0  0  0  0  0  0  0  0  0  0
    2.0163    0.3929    2.6317 H   0  0  0  0  0  0  0  0  0  0  0  0
    5.0638   -2.5320    2.1558 H   0  0  0  0  0  0  0  0  0  0  0  0
    4.5793   -2.2154    0.4559 H   0  0  0  0  0  0  0  0  0  0  0  0
    1.8162   -3.2649    2.4897 H   0  0  0  0  0  0  0  0  0  0  0  0
    1.1042   -5.5585    2.9319 H   0  0  0  0  0  0  0  0  0  0  0  0
    2.3372   -7.4547    1.9003 H   0  0  0  0  0  0  0  0  0  0  0  0
    4.2726   -7.0107    0.4003 H   0  0  0  0  0  0  0  0  0  0  0  0
    5.2381   -4.7299    0.3038 H   0  0  0  0  0  0  0  0  0  0  0  0
    8.1213    7.3807    0.3228 H   0  0  0  0  0  0  0  0  0  0  0  0
    6.6129    8.2970    0.0704 H   0  0  0  0  0  0  0  0  0  0  0  0
    7.7448    8.0200   -1.2881 H   0  0  0  0  0  0  0  0  0  0  0  0
  1  2  1  0  0  0  0
  1 51  1  0  0  0  0
  1 52  1  0  0  0  0
  1 53  1  0  0  0  0
  2  3  1  0  0  0  0
  2 50  1  0  0  0  0
  2 54  1  0  0  0  0
  3  4  1  0  0  0  0
  3 55  1  0  0  0  0
  3 56  1  0  0  0  0
  4  5  1  6  0  0  0
  4  6  1  0  0  0  0
  4 26  1  0  0  0  0
  6  7  2  0  0  0  0
  6  8  1  0  0  0  0
  8  9  1  0  0  0  0
  8 57  1  0  0  0  0
  9 10  1  1  0  0  0
  9 11  1  0  0  0  0
  9 19  1  0  0  0  0
 11 58  1  0  0  0  0
 11 59  1  0  0  0  0
 12 14  1  0  0  0  0
 12 17  1  0  0  0  0
 12 13  1  1  0  0  0
 12 11  1  0  0  0  0
 14 15  1  0  0  0  0
 14 60  1  0  0  0  0
 14 61  1  0  0  0  0
 15 16  1  0  0  0  0
 15 62  1  0  0  0  0
 15 63  1  0  0  0  0
 16 17  1  0  0  0  0
 16 64  1  0  0  0  0
 17 18  2  0  0  0  0
 19 20  1  0  0  0  0
 19 65  1  0  0  0  0
 19 66  1  0  0  0  0
 20 21  1  0  0  0  0
 20 67  1  0  0  0  0
 20 68  1  0  0  0  0
 21 22  2  0  0  0  0
 21 23  1  0  0  0  0
 23 24  1  0  0  0  0
 23 25  1  0  0  0  0
 23 69  1  0  0  0  0
 24 25  1  0  0  0  0
 24 70  1  0  0  0  0
 24 71  1  0  0  0  0
 25 72  1  0  0  0  0
 25 73  1  0  0  0  0
 26 27  1  0  0  0  0
 26 74  1  0  0  0  0
 27 28  2  0  0  0  0
 29 39  1  0  0  0  0
 29 30  1  1  0  0  0
 29 27  1  0  0  0  0
 31 33  1  0  0  0  0
 31 38  1  0  0  0  0
 31 32  1  1  0  0  0
 31 29  1  0  0  0  0
 33 34  1  0  0  0  0
 34 35  1  0  0  0  0
 34 36  1  0  0  0  0
 34 37  1  0  0  0  0
 35 75  1  0  0  0  0
 35 76  1  0  0  0  0
 35 77  1  0  0  0  0
 36 78  1  0  0  0  0
 36 79  1  0  0  0  0
 36 80  1  0  0  0  0
 37 81  1  0  0  0  0
 37 82  1  0  0  0  0
 37 83  1  0  0  0  0
 38 84  1  0  0  0  0
 38 85  1  0  0  0  0
 38 86  1  0  0  0  0
 39 40  1  0  0  0  0
 39 87  1  0  0  0  0
 40 41  2  0  0  0  0
 40 42  1  0  0  0  0
 42 43  1  0  0  0  0
 43 44  1  0  0  0  0
 43 88  1  0  0  0  0
 43 89  1  0  0  0  0
 44 45  2  0  0  0  0
 44 49  1  0  0  0  0
 45 46  1  0  0  0  0
 45 90  1  0  0  0  0
 46 47  2  0  0  0  0
 46 91  1  0  0  0  0
 47 48  1  0  0  0  0
 47 92  1  0  0  0  0
 48 49  2  0  0  0  0
 48 93  1  0  0  0  0
 49 94  1  0  0  0  0
 50 95  1  0  0  0  0
 50 96  1  0  0  0  0
 50 97  1  0  0  0  0
M  END
$$$$
