ZXD
 OpenBabel04121316213D

 29 29  0  0  1  0  0  0  0  0999 V2000
    2.3629    3.2076    2.4025 C   0  0  0  0  0  0  0  0  0  0  0  0
    2.5321    1.7103    2.0871 C   0  0  0  0  0  0  0  0  0  0  0  0
    3.0705    1.3621    0.6474 C   0  0  2  0  0  0  0  0  0  0  0  0
    2.4148    0.5596    0.2741 H   0  0  0  0  0  0  0  0  0  0  0  0
    4.4444    0.8042    0.5827 N   0  0  0  0  0  0  0  0  0  0  0  0
    4.8626    0.4993   -0.7938 C   0  0  0  0  0  0  0  0  0  0  0  0
    4.7527    1.7042   -1.7494 C   0  0  2  0  0  0  0  0  0  0  0  0
    5.4595    2.4882   -1.4516 H   0  0  0  0  0  0  0  0  0  0  0  0
    3.3148    2.2304   -1.7280 C   0  0  1  0  0  0  0  0  0  0  0  0
    2.6279    1.4848   -2.1448 H   0  0  0  0  0  0  0  0  0  0  0  0
    2.9278    2.5768   -0.3034 C   0  0  2  0  0  0  0  0  0  0  0  0
    1.8959    2.9418   -0.2987 H   0  0  0  0  0  0  0  0  0  0  0  0
    3.7760    3.6536    0.1299 O   0  0  0  0  0  0  0  0  0  0  0  0
    3.1733    3.4157   -2.5272 O   0  0  0  0  0  0  0  0  0  0  0  0
    5.0887    1.3472   -3.0969 O   0  0  0  0  0  0  0  0  0  0  0  0
    3.3315    1.0792    3.2259 C   0  0  0  0  0  0  0  0  0  0  0  0
    1.8722    3.3586    3.3678 H   0  0  0  0  0  0  0  0  0  0  0  0
    1.7295    3.7161    1.6679 H   0  0  0  0  0  0  0  0  0  0  0  0
    3.3329    3.7126    2.4498 H   0  0  0  0  0  0  0  0  0  0  0  0
    1.5194    1.2826    2.1365 H   0  0  0  0  0  0  0  0  0  0  0  0
    4.5192   -0.0355    1.1570 H   0  0  0  0  0  0  0  0  0  0  0  0
    4.2623   -0.3332   -1.1853 H   0  0  0  0  0  0  0  0  0  0  0  0
    5.8969    0.1349   -0.7929 H   0  0  0  0  0  0  0  0  0  0  0  0
    3.6010    4.3929   -0.4858 H   0  0  0  0  0  0  0  0  0  0  0  0
    3.6660    3.2482   -3.3514 H   0  0  0  0  0  0  0  0  0  0  0  0
    4.5002    0.6251   -3.3730 H   0  0  0  0  0  0  0  0  0  0  0  0
    4.3646    1.4425    3.2234 H   0  0  0  0  0  0  0  0  0  0  0  0
    3.3358   -0.0116    3.1543 H   0  0  0  0  0  0  0  0  0  0  0  0
    2.8941    1.3479    4.1941 H   0  0  0  0  0  0  0  0  0  0  0  0
  1  2  1  0  0  0  0
  1 17  1  0  0  0  0
  1 18  1  0  0  0  0
  1 19  1  0  0  0  0
  2 16  1  0  0  0  0
  2 20  1  0  0  0  0
  3  5  1  0  0  0  0
  3 11  1  0  0  0  0
  3  4  1  6  0  0  0
  3  2  1  0  0  0  0
  5  6  1  0  0  0  0
  5 21  1  0  0  0  0
  6  7  1  0  0  0  0
  6 22  1  0  0  0  0
  6 23  1  0  0  0  0
  7  9  1  0  0  0  0
  7 15  1  0  0  0  0
  7  8  1  1  0  0  0
  9 10  1  6  0  0  0
  9 11  1  0  0  0  0
  9 14  1  0  0  0  0
 11 12  1  1  0  0  0
 11 13  1  0  0  0  0
 13 24  1  0  0  0  0
 14 25  1  0  0  0  0
 15 26  1  0  0  0  0
 16 27  1  0  0  0  0
 16 28  1  0  0  0  0
 16 29  1  0  0  0  0
M  END
$$$$
