ZY1
 OpenBabel04121316213D

 80 84  0  0  1  0  0  0  0  0999 V2000
   -0.7780   -5.9292    4.5247 C   0  0  0  0  0  0  0  0  0  0  0  0
    0.0374   -4.6697    4.1906 C   0  0  0  0  0  0  0  0  0  0  0  0
    1.1662   -4.3799    5.1579 C   0  0  0  0  0  0  0  0  0  0  0  0
    1.0402   -3.7638    6.3869 C   0  0  0  0  0  0  0  0  0  0  0  0
    2.2587   -3.8099    7.0027 N   0  0  0  0  0  0  0  0  0  0  0  0
    3.1584   -4.5417    6.2853 C   0  0  0  0  0  0  0  0  0  0  0  0
    2.5779   -4.6403    5.0532 C   0  0  0  0  0  0  0  0  0  0  0  0
    3.4430   -5.0699    4.0625 C   0  0  0  0  0  0  0  0  0  0  0  0
    4.6469   -5.7548    4.3447 C   0  0  0  0  0  0  0  0  0  0  0  0
    5.1597   -5.7280    5.6198 C   0  0  0  0  0  0  0  0  0  0  0  0
    4.4346   -5.0573    6.5920 C   0  0  0  0  0  0  0  0  0  0  0  0
    4.9214   -5.0014    7.9155 N   0  0  0  0  0  0  0  0  0  0  0  0
    3.8478   -5.4564    9.1133 S   0  0  0  0  0  0  0  0  0  0  0  0
    4.6303   -5.6572   10.3447 O   0  0  0  0  0  0  0  0  0  0  0  0
    2.9834   -6.4861    8.6325 O   0  0  0  0  0  0  0  0  0  0  0  0
    2.8707   -3.9832    9.3710 C   0  0  0  0  0  0  0  0  0  0  0  0
    2.6901   -3.0909    8.1693 C   0  0  0  0  0  0  0  0  0  0  0  0
    6.2723   -4.5344    8.1963 C   0  0  0  0  0  0  0  0  0  0  0  0
    5.3455   -6.5968    3.3570 C   0  0  0  0  0  0  0  0  0  0  0  0
    6.4512   -7.0950    3.5670 O   0  0  0  0  0  0  0  0  0  0  0  0
    4.7733   -6.7942    2.1519 N   0  0  0  0  0  0  0  0  0  0  0  0
    3.3782   -6.7340    1.7253 C   0  0  2  0  0  0  0  0  0  0  0  0
    3.1890   -5.6645    1.6481 H   0  0  0  0  0  0  0  0  0  0  0  0
    2.2552   -7.4807    2.6456 C   0  0  1  0  0  0  0  0  0  0  0  0
    1.2890   -7.0233    2.3783 H   0  0  0  0  0  0  0  0  0  0  0  0
    2.1107   -9.0080    2.6192 C   0  0  0  0  0  0  0  0  0  0  0  0
    1.3328   -9.3938    1.4458 N   0  0  0  0  0  0  0  0  0  0  0  0
    1.2769  -10.8380    1.1896 C   0  0  0  0  0  0  0  0  0  0  0  0
    0.7928  -11.1996   -0.3089 C   0  0  0  0  0  0  0  0  0  0  0  0
    1.0953  -12.5007   -0.7898 C   0  0  0  0  0  0  0  0  0  0  0  0
    1.2171  -12.7573   -2.1856 C   0  0  0  0  0  0  0  0  0  0  0  0
    1.1419  -11.7105   -3.1376 C   0  0  0  0  0  0  0  0  0  0  0  0
    0.8242  -10.3948   -2.7234 C   0  0  0  0  0  0  0  0  0  0  0  0
    0.4905  -10.1919   -1.3307 C   0  0  0  0  0  0  0  0  0  0  0  0
    1.2530   -9.4454   -3.6633 O   0  0  0  0  0  0  0  0  0  0  0  0
    1.4848   -8.0478   -3.4112 C   0  0  0  0  0  0  0  0  0  0  0  0
    2.4204   -7.3284    4.0534 O   0  0  0  0  0  0  0  0  0  0  0  0
    3.3086   -7.0229    0.2471 C   0  0  0  0  0  0  0  0  0  0  0  0
    3.8618   -8.3855   -0.0690 C   0  0  0  0  0  0  0  0  0  0  0  0
    3.2211   -9.0289   -1.0643 C   0  0  0  0  0  0  0  0  0  0  0  0
    3.4230  -10.3843   -1.2538 C   0  0  0  0  0  0  0  0  0  0  0  0
    4.0814  -11.1921   -0.3687 C   0  0  0  0  0  0  0  0  0  0  0  0
    4.8229  -10.5773    0.5720 C   0  0  0  0  0  0  0  0  0  0  0  0
    4.7118   -9.1972    0.7012 C   0  0  0  0  0  0  0  0  0  0  0  0
   -1.6033   -6.0567    3.8128 H   0  0  0  0  0  0  0  0  0  0  0  0
   -1.2100   -5.8781    5.5293 H   0  0  0  0  0  0  0  0  0  0  0  0
   -0.1880   -6.8474    4.4772 H   0  0  0  0  0  0  0  0  0  0  0  0
   -0.6576   -3.8217    4.1994 H   0  0  0  0  0  0  0  0  0  0  0  0
    0.4130   -4.7568    3.1645 H   0  0  0  0  0  0  0  0  0  0  0  0
    0.1783   -3.2987    6.8433 H   0  0  0  0  0  0  0  0  0  0  0  0
    2.9373   -5.0387    3.1390 H   0  0  0  0  0  0  0  0  0  0  0  0
    6.0918   -6.2400    5.8519 H   0  0  0  0  0  0  0  0  0  0  0  0
    3.3472   -3.4078   10.1641 H   0  0  0  0  0  0  0  0  0  0  0  0
    1.8942   -4.3439    9.7062 H   0  0  0  0  0  0  0  0  0  0  0  0
    3.6253   -2.5869    7.8867 H   0  0  0  0  0  0  0  0  0  0  0  0
    1.9571   -2.3018    8.3583 H   0  0  0  0  0  0  0  0  0  0  0  0
    6.8504   -4.3691    7.2793 H   0  0  0  0  0  0  0  0  0  0  0  0
    6.8096   -5.2829    8.7838 H   0  0  0  0  0  0  0  0  0  0  0  0
    6.2381   -3.5839    8.7334 H   0  0  0  0  0  0  0  0  0  0  0  0
    5.4545   -7.1473    1.4894 H   0  0  0  0  0  0  0  0  0  0  0  0
    1.5820   -9.3478    3.5222 H   0  0  0  0  0  0  0  0  0  0  0  0
    3.1224   -9.4203    2.7290 H   0  0  0  0  0  0  0  0  0  0  0  0
    1.8910   -9.0386    0.6906 H   0  0  0  0  0  0  0  0  0  0  0  0
    0.7048  -11.3418    1.9735 H   0  0  0  0  0  0  0  0  0  0  0  0
    2.3013  -11.2106    1.3509 H   0  0  0  0  0  0  0  0  0  0  0  0
    1.4689  -13.2683   -0.1052 H   0  0  0  0  0  0  0  0  0  0  0  0
    1.5831  -13.7318   -2.5171 H   0  0  0  0  0  0  0  0  0  0  0  0
    1.5850  -11.8743   -4.1288 H   0  0  0  0  0  0  0  0  0  0  0  0
    0.2726   -9.1847   -0.9884 H   0  0  0  0  0  0  0  0  0  0  0  0
    1.5335   -7.4869   -4.3538 H   0  0  0  0  0  0  0  0  0  0  0  0
    2.4808   -7.8062   -3.0071 H   0  0  0  0  0  0  0  0  0  0  0  0
    0.6932   -7.6340   -2.7906 H   0  0  0  0  0  0  0  0  0  0  0  0
    1.7237   -6.7467    4.3936 H   0  0  0  0  0  0  0  0  0  0  0  0
    3.8579   -6.2715   -0.3412 H   0  0  0  0  0  0  0  0  0  0  0  0
    2.2502   -6.8655   -0.0436 H   0  0  0  0  0  0  0  0  0  0  0  0
    2.2976   -8.5562   -1.3781 H   0  0  0  0  0  0  0  0  0  0  0  0
    2.7855  -10.9218   -1.8950 H   0  0  0  0  0  0  0  0  0  0  0  0
    3.7942  -12.2361   -0.2651 H   0  0  0  0  0  0  0  0  0  0  0  0
    5.3002  -11.1691    1.3368 H   0  0  0  0  0  0  0  0  0  0  0  0
    5.1281   -8.8951    1.6437 H   0  0  0  0  0  0  0  0  0  0  0  0
  1  2  1  0  0  0  0
  1 45  1  0  0  0  0
  1 46  1  0  0  0  0
  1 47  1  0  0  0  0
  2  3  1  0  0  0  0
  2 48  1  0  0  0  0
  2 49  1  0  0  0  0
  3  4  2  0  0  0  0
  3  7  1  0  0  0  0
  4  5  1  0  0  0  0
  4 50  1  0  0  0  0
  5  6  1  0  0  0  0
  5 17  1  0  0  0  0
  6  7  2  0  0  0  0
  6 11  1  0  0  0  0
  7  8  1  0  0  0  0
  8  9  2  0  0  0  0
  8 51  1  0  0  0  0
  9 10  1  0  0  0  0
  9 19  1  0  0  0  0
 10 11  2  0  0  0  0
 10 52  1  0  0  0  0
 11 12  1  0  0  0  0
 12 13  1  0  0  0  0
 12 18  1  0  0  0  0
 13 14  2  0  0  0  0
 13 15  2  0  0  0  0
 13 16  1  0  0  0  0
 16 17  1  0  0  0  0
 16 53  1  0  0  0  0
 16 54  1  0  0  0  0
 17 55  1  0  0  0  0
 17 56  1  0  0  0  0
 18 57  1  0  0  0  0
 18 58  1  0  0  0  0
 18 59  1  0  0  0  0
 19 20  2  0  0  0  0
 19 21  1  0  0  0  0
 21 60  1  0  0  0  0
 22 24  1  0  0  0  0
 22 38  1  0  0  0  0
 22 23  1  1  0  0  0
 22 21  1  0  0  0  0
 24 25  1  6  0  0  0
 24 26  1  0  0  0  0
 24 37  1  0  0  0  0
 26 27  1  0  0  0  0
 26 61  1  0  0  0  0
 26 62  1  0  0  0  0
 27 28  1  0  0  0  0
 27 63  1  0  0  0  0
 28 29  1  0  0  0  0
 28 64  1  0  0  0  0
 28 65  1  0  0  0  0
 29 30  2  0  0  0  0
 29 34  1  0  0  0  0
 30 31  1  0  0  0  0
 30 66  1  0  0  0  0
 31 32  2  0  0  0  0
 31 67  1  0  0  0  0
 32 33  1  0  0  0  0
 32 68  1  0  0  0  0
 33 34  2  0  0  0  0
 33 35  1  0  0  0  0
 34 69  1  0  0  0  0
 35 36  1  0  0  0  0
 36 70  1  0  0  0  0
 36 71  1  0  0  0  0
 36 72  1  0  0  0  0
 37 73  1  0  0  0  0
 38 39  1  0  0  0  0
 38 74  1  0  0  0  0
 38 75  1  0  0  0  0
 39 40  2  0  0  0  0
 39 44  1  0  0  0  0
 40 41  1  0  0  0  0
 40 76  1  0  0  0  0
 41 42  2  0  0  0  0
 41 77  1  0  0  0  0
 42 43  1  0  0  0  0
 42 78  1  0  0  0  0
 43 44  2  0  0  0  0
 43 79  1  0  0  0  0
 44 80  1  0  0  0  0
M  END
$$$$
