ZYO
 OpenBabel04121316213D

 60 64  0  0  1  0  0  0  0  0999 V2000
    1.0871   -0.0357   -0.0951 C   0  0  0  0  0  0  0  0  0  0  0  0
    2.6090   -0.1141   -0.1113 C   0  0  0  0  0  0  0  0  0  0  0  0
    3.2716    1.1700   -0.0861 N   0  0  0  0  0  0  0  0  0  0  0  0
    3.2076    2.0862   -1.1997 C   0  0  0  0  0  0  0  0  0  0  0  0
    3.0954    3.4916   -0.6569 C   0  0  2  0  0  0  0  0  0  0  0  0
    2.0575    3.5056   -0.2990 H   0  0  0  0  0  0  0  0  0  0  0  0
    3.5681    4.4107   -1.7696 C   0  0  0  0  0  0  0  0  0  0  0  0
    3.8276    3.7570    0.5579 N   0  0  0  0  0  0  0  0  0  0  0  0
    4.4803    2.7327    1.1924 C   0  0  0  0  0  0  0  0  0  0  0  0
    4.3467    1.3595    0.7815 C   0  0  0  0  0  0  0  0  0  0  0  0
    5.0389    0.4534    1.2248 O   0  0  0  0  0  0  0  0  0  0  0  0
    5.1602    3.2965    2.2403 C   0  0  0  0  0  0  0  0  0  0  0  0
    5.9378    2.6188    3.0946 O   0  0  0  0  0  0  0  0  0  0  0  0
    4.8672    4.6708    2.2693 C   0  0  0  0  0  0  0  0  0  0  0  0
    3.9487    4.9358    1.2419 C   0  0  0  0  0  0  0  0  0  0  0  0
    3.4479    6.2762    1.0305 C   0  0  0  0  0  0  0  0  0  0  0  0
    3.9644    7.1825    1.7950 N   0  0  0  0  0  0  0  0  0  0  0  0
    4.8740    6.9772    2.8295 N   0  0  0  0  0  0  0  0  0  0  0  0
    5.3659    5.7097    3.1562 C   0  0  0  0  0  0  0  0  0  0  0  0
    6.1416    5.5007    4.0851 O   0  0  0  0  0  0  0  0  0  0  0  0
    5.2784    8.1259    3.6809 C   0  0  0  0  0  0  0  0  0  0  0  0
    4.7569    9.5194    3.3386 C   0  0  0  0  0  0  0  0  0  0  0  0
    3.7730    9.7543    2.3799 C   0  0  0  0  0  0  0  0  0  0  0  0
    3.4154   10.9912    1.8784 C   0  0  0  0  0  0  0  0  0  0  0  0
    4.0641   12.0853    2.3673 C   0  0  0  0  0  0  0  0  0  0  0  0
    4.9530   11.9360    3.4315 C   0  0  0  0  0  0  0  0  0  0  0  0
    5.2550   10.6645    3.9603 C   0  0  0  0  0  0  0  0  0  0  0  0
    5.7353   13.3253    4.0721 Cl  0  0  0  0  0  0  0  0  0  0  0  0
    3.8076   13.2723    1.8050 F   0  0  0  0  0  0  0  0  0  0  0  0
    2.4659    6.6856    0.0461 N   0  0  0  0  0  0  0  0  0  0  0  0
    1.4479    6.0284   -0.7940 C   0  0  0  0  0  0  0  0  0  0  0  0
    1.6483    6.6022   -2.2228 C   0  0  0  0  0  0  0  0  0  0  0  0
    1.7751    8.0454   -2.0323 N   0  0  0  0  0  0  0  0  0  0  0  0
    2.2837    8.3230   -0.4101 S   0  0  0  0  0  0  0  0  0  0  0  0
    1.1125    8.8357    0.2858 O   0  0  0  0  0  0  0  0  0  0  0  0
    3.5479    8.9814   -0.4730 O   0  0  0  0  0  0  0  0  0  0  0  0
    2.6945    8.6805   -3.0060 C   0  0  0  0  0  0  0  0  0  0  0  0
    0.6793   -1.0444    0.0341 H   0  0  0  0  0  0  0  0  0  0  0  0
    0.6798    0.3777   -1.0221 H   0  0  0  0  0  0  0  0  0  0  0  0
    0.7205    0.5766    0.7376 H   0  0  0  0  0  0  0  0  0  0  0  0
    2.9789   -0.6841   -0.9650 H   0  0  0  0  0  0  0  0  0  0  0  0
    2.8992   -0.6323    0.8067 H   0  0  0  0  0  0  0  0  0  0  0  0
    2.3568    1.8967   -1.8693 H   0  0  0  0  0  0  0  0  0  0  0  0
    4.1305    2.0081   -1.7844 H   0  0  0  0  0  0  0  0  0  0  0  0
    4.5568    4.1981   -2.1697 H   0  0  0  0  0  0  0  0  0  0  0  0
    3.7146    5.4297   -1.4205 H   0  0  0  0  0  0  0  0  0  0  0  0
    2.8452    4.3574   -2.5904 H   0  0  0  0  0  0  0  0  0  0  0  0
    5.9573    1.6707    2.8610 H   0  0  0  0  0  0  0  0  0  0  0  0
    6.3798    8.1571    3.6471 H   0  0  0  0  0  0  0  0  0  0  0  0
    5.0111    7.8834    4.7175 H   0  0  0  0  0  0  0  0  0  0  0  0
    3.2205    8.9651    1.9305 H   0  0  0  0  0  0  0  0  0  0  0  0
    2.6721   11.0493    1.0906 H   0  0  0  0  0  0  0  0  0  0  0  0
    5.8892   10.5790    4.8387 H   0  0  0  0  0  0  0  0  0  0  0  0
    0.4335    6.1745   -0.4159 H   0  0  0  0  0  0  0  0  0  0  0  0
    1.4997    4.9783   -0.8416 H   0  0  0  0  0  0  0  0  0  0  0  0
    0.8638    6.2691   -2.9037 H   0  0  0  0  0  0  0  0  0  0  0  0
    2.5812    6.3101   -2.7189 H   0  0  0  0  0  0  0  0  0  0  0  0
    2.3705    8.4788   -4.0298 H   0  0  0  0  0  0  0  0  0  0  0  0
    3.7200    8.3047   -2.8947 H   0  0  0  0  0  0  0  0  0  0  0  0
    2.6791    9.7601   -2.8414 H   0  0  0  0  0  0  0  0  0  0  0  0
  1  2  1  0  0  0  0
  1 38  1  0  0  0  0
  1 39  1  0  0  0  0
  1 40  1  0  0  0  0
  2  3  1  0  0  0  0
  2 41  1  0  0  0  0
  2 42  1  0  0  0  0
  3  4  1  0  0  0  0
  3 10  1  0  0  0  0
  4  5  1  0  0  0  0
  4 43  1  0  0  0  0
  4 44  1  0  0  0  0
  5  8  1  0  0  0  0
  5  7  1  0  0  0  0
  5  6  1  1  0  0  0
  7 45  1  0  0  0  0
  7 46  1  0  0  0  0
  7 47  1  0  0  0  0
  8  9  1  0  0  0  0
  8 15  1  0  0  0  0
  9 10  1  0  0  0  0
  9 12  2  0  0  0  0
 10 11  2  0  0  0  0
 12 13  1  0  0  0  0
 12 14  1  0  0  0  0
 13 48  1  0  0  0  0
 14 15  2  0  0  0  0
 14 19  1  0  0  0  0
 15 16  1  0  0  0  0
 16 17  2  0  0  0  0
 16 30  1  0  0  0  0
 17 18  1  0  0  0  0
 18 19  1  0  0  0  0
 18 21  1  0  0  0  0
 19 20  2  0  0  0  0
 21 22  1  0  0  0  0
 21 49  1  0  0  0  0
 21 50  1  0  0  0  0
 22 23  2  0  0  0  0
 22 27  1  0  0  0  0
 23 24  1  0  0  0  0
 23 51  1  0  0  0  0
 24 25  2  0  0  0  0
 24 52  1  0  0  0  0
 25 26  1  0  0  0  0
 25 29  1  0  0  0  0
 26 27  2  0  0  0  0
 26 28  1  0  0  0  0
 27 53  1  0  0  0  0
 30 31  1  0  0  0  0
 30 34  1  0  0  0  0
 31 32  1  0  0  0  0
 31 54  1  0  0  0  0
 31 55  1  0  0  0  0
 32 33  1  0  0  0  0
 32 56  1  0  0  0  0
 32 57  1  0  0  0  0
 33 34  1  0  0  0  0
 33 37  1  0  0  0  0
 34 35  2  0  0  0  0
 34 36  2  0  0  0  0
 37 58  1  0  0  0  0
 37 59  1  0  0  0  0
 37 60  1  0  0  0  0
M  END
$$$$
