ZYV
 OpenBabel04121316213D

 31 33  0  0  1  0  0  0  0  0999 V2000
    1.4659   -1.0979    2.9670 N   0  0  0  0  0  0  0  0  0  0  0  0
    2.7403   -0.5313    2.4866 C   0  0  0  0  0  0  0  0  0  0  0  0
    2.9705   -1.0376    1.0426 C   0  0  2  0  0  0  0  0  0  0  0  0
    2.4334   -0.3812    0.3450 H   0  0  0  0  0  0  0  0  0  0  0  0
    2.3520   -2.3595    1.0121 O   0  0  0  0  0  0  0  0  0  0  0  0
    2.3474   -2.8803   -0.3063 C   0  0  0  0  0  0  0  0  0  0  0  0
    3.7850   -3.1440   -0.7237 C   0  0  0  0  0  0  0  0  0  0  0  0
    4.5948   -1.9220   -0.6289 N   0  0  0  0  0  0  0  0  0  0  0  0
    4.4554   -1.1528    0.6246 C   0  0  0  0  0  0  0  0  0  0  0  0
    5.0901   -1.3562   -1.7819 C   0  0  0  0  0  0  0  0  0  0  0  0
    5.0358   -0.0299   -2.0306 N   0  0  0  0  0  0  0  0  0  0  0  0
    5.5508    0.4345   -3.1981 C   0  0  0  0  0  0  0  0  0  0  0  0
    6.1622   -0.2534   -4.1760 N   0  0  0  0  0  0  0  0  0  0  0  0
    6.2457   -1.5626   -3.8990 C   0  0  0  0  0  0  0  0  0  0  0  0
    5.7312   -2.1224   -2.7436 C   0  0  0  0  0  0  0  0  0  0  0  0
    6.0627   -3.4442   -2.8336 N   0  0  0  0  0  0  0  0  0  0  0  0
    5.8617   -4.1467   -2.1311 H   0  0  0  0  0  0  0  0  0  0  0  0
    6.6996   -3.6463   -4.0190 C   0  0  0  0  0  0  0  0  0  0  0  0
    6.8331   -2.5197   -4.6876 N   0  0  0  0  0  0  0  0  0  0  0  0
    1.3949   -1.0971    3.9777 H   0  0  0  0  0  0  0  0  0  0  0  0
    1.4978   -2.0871    2.6739 H   0  0  0  0  0  0  0  0  0  0  0  0
    3.5465   -0.8625    3.1506 H   0  0  0  0  0  0  0  0  0  0  0  0
    2.6945    0.5613    2.5277 H   0  0  0  0  0  0  0  0  0  0  0  0
    1.8303   -2.1921   -0.9851 H   0  0  0  0  0  0  0  0  0  0  0  0
    1.7869   -3.8191   -0.2826 H   0  0  0  0  0  0  0  0  0  0  0  0
    3.7568   -3.5840   -1.7239 H   0  0  0  0  0  0  0  0  0  0  0  0
    4.2306   -3.8780   -0.0425 H   0  0  0  0  0  0  0  0  0  0  0  0
    4.9500   -0.1749    0.5855 H   0  0  0  0  0  0  0  0  0  0  0  0
    4.9862   -1.7380    1.3878 H   0  0  0  0  0  0  0  0  0  0  0  0
    5.4557    1.5025   -3.3699 H   0  0  0  0  0  0  0  0  0  0  0  0
    7.0419   -4.6226   -4.3302 H   0  0  0  0  0  0  0  0  0  0  0  0
  1  2  1  0  0  0  0
  1 20  1  0  0  0  0
  1 21  1  0  0  0  0
  2 22  1  0  0  0  0
  2 23  1  0  0  0  0
  3  5  1  0  0  0  0
  3  9  1  0  0  0  0
  3  4  1  6  0  0  0
  3  2  1  0  0  0  0
  5  6  1  0  0  0  0
  6  7  1  0  0  0  0
  6 24  1  0  0  0  0
  6 25  1  0  0  0  0
  7  8  1  0  0  0  0
  7 26  1  0  0  0  0
  7 27  1  0  0  0  0
  8  9  1  0  0  0  0
  8 10  1  0  0  0  0
  9 28  1  0  0  0  0
  9 29  1  0  0  0  0
 10 11  2  0  0  0  0
 10 15  1  0  0  0  0
 11 12  1  0  0  0  0
 12 13  2  0  0  0  0
 12 30  1  0  0  0  0
 13 14  1  0  0  0  0
 14 15  2  0  0  0  0
 14 19  1  0  0  0  0
 15 16  1  0  0  0  0
 16 17  1  0  0  0  0
 16 18  1  0  0  0  0
 18 19  2  0  0  0  0
 18 31  1  0  0  0  0
M  END
$$$$
