ZZ7
 OpenBabel04121316213D

 46 47  0  0  1  0  0  0  0  0999 V2000
    1.6288   -1.3062    0.4830 N   0  0  0  0  0  0  0  0  0  0  0  0
    1.1007   -1.9298    1.7109 C   0  0  2  0  0  0  0  0  0  0  0  0
    1.2752   -3.0104    1.6237 H   0  0  0  0  0  0  0  0  0  0  0  0
   -0.3666   -1.7099    1.9933 C   0  0  0  0  0  0  0  0  0  0  0  0
   -0.8543   -1.8855    3.3105 C   0  0  0  0  0  0  0  0  0  0  0  0
   -2.2125   -1.9420    3.5647 C   0  0  0  0  0  0  0  0  0  0  0  0
   -3.0998   -1.7146    2.5237 C   0  0  0  0  0  0  0  0  0  0  0  0
   -2.6296   -1.3921    1.2505 C   0  0  0  0  0  0  0  0  0  0  0  0
   -1.2705   -1.4332    0.9729 C   0  0  0  0  0  0  0  0  0  0  0  0
    1.8728   -1.4635    2.9256 C   0  0  0  0  0  0  0  0  0  0  0  0
    2.1808   -2.2790    3.7913 O   0  0  0  0  0  0  0  0  0  0  0  0
    1.9907   -0.0992    3.0826 N   0  0  0  0  0  0  0  0  0  0  0  0
    2.8241    0.4741    4.1335 C   0  0  1  0  0  0  0  0  0  0  0  0
    2.4796    0.0511    5.0871 H   0  0  0  0  0  0  0  0  0  0  0  0
    4.3192    0.1571    3.8246 C   0  0  2  0  0  0  0  0  0  0  0  0
    4.6231    0.7559    2.9586 H   0  0  0  0  0  0  0  0  0  0  0  0
    4.6411   -1.2564    3.5552 N   0  0  0  0  0  0  0  0  0  0  0  0
    4.6880   -1.9947    4.8449 C   0  0  2  0  0  0  0  0  0  0  0  0
    3.6791   -2.0750    5.2682 H   0  0  0  0  0  0  0  0  0  0  0  0
    5.4700   -1.1287    5.8516 C   0  0  0  0  0  0  0  0  0  0  0  0
    5.3245    0.6039    5.2550 S   0  0  0  0  0  0  0  0  0  0  0  0
    6.9623   -1.3714    5.8936 C   0  0  0  0  0  0  0  0  0  0  0  0
    4.8422   -1.1747    7.2414 C   0  0  0  0  0  0  0  0  0  0  0  0
    5.0703   -3.4898    4.6391 C   0  0  0  0  0  0  0  0  0  0  0  0
    4.2613   -4.4183    4.6504 O   0  0  0  0  0  0  0  0  0  0  0  0
    6.3673   -3.7645    4.3936 O   0  0  0  0  0  0  0  0  0  0  0  0
    2.5495    1.9940    4.1655 C   0  0  0  0  0  0  0  0  0  0  0  0
    1.7908    2.5554    3.3812 O   0  0  0  0  0  0  0  0  0  0  0  0
    3.1618    2.6881    5.1530 O   0  0  0  0  0  0  0  0  0  0  0  0
    1.4100   -0.3158    0.4775 H   0  0  0  0  0  0  0  0  0  0  0  0
    1.1553   -1.7310   -0.3111 H   0  0  0  0  0  0  0  0  0  0  0  0
   -0.1840   -2.0158    4.1620 H   0  0  0  0  0  0  0  0  0  0  0  0
   -2.5613   -2.1830    4.5646 H   0  0  0  0  0  0  0  0  0  0  0  0
   -4.1653   -1.7926    2.7040 H   0  0  0  0  0  0  0  0  0  0  0  0
   -3.3230   -1.1408    0.4560 H   0  0  0  0  0  0  0  0  0  0  0  0
   -0.9342   -1.2707   -0.0454 H   0  0  0  0  0  0  0  0  0  0  0  0
    1.4301    0.5310    2.5160 H   0  0  0  0  0  0  0  0  0  0  0  0
    5.4617   -1.3743    2.9763 H   0  0  0  0  0  0  0  0  0  0  0  0
    7.4032   -1.2769    4.8936 H   0  0  0  0  0  0  0  0  0  0  0  0
    7.1643   -2.3678    6.2942 H   0  0  0  0  0  0  0  0  0  0  0  0
    7.4769   -0.6564    6.5399 H   0  0  0  0  0  0  0  0  0  0  0  0
    3.7841   -0.8782    7.2289 H   0  0  0  0  0  0  0  0  0  0  0  0
    5.3659   -0.5006    7.9268 H   0  0  0  0  0  0  0  0  0  0  0  0
    4.8945   -2.1872    7.6516 H   0  0  0  0  0  0  0  0  0  0  0  0
    6.9473   -3.0015    4.2596 H   0  0  0  0  0  0  0  0  0  0  0  0
    3.8013    2.1767    5.6948 H   0  0  0  0  0  0  0  0  0  0  0  0
  1 30  1  0  0  0  0
  1 31  1  0  0  0  0
  2  4  1  0  0  0  0
  2 10  1  0  0  0  0
  2  3  1  6  0  0  0
  2  1  1  0  0  0  0
  4  5  2  0  0  0  0
  4  9  1  0  0  0  0
  5  6  1  0  0  0  0
  5 32  1  0  0  0  0
  6  7  2  0  0  0  0
  6 33  1  0  0  0  0
  7  8  1  0  0  0  0
  7 34  1  0  0  0  0
  8  9  2  0  0  0  0
  8 35  1  0  0  0  0
  9 36  1  0  0  0  0
 10 11  2  0  0  0  0
 10 12  1  0  0  0  0
 12 13  1  0  0  0  0
 12 37  1  0  0  0  0
 13 14  1  1  0  0  0
 13 27  1  0  0  0  0
 15 17  1  0  0  0  0
 15 21  1  0  0  0  0
 15 16  1  6  0  0  0
 15 13  1  0  0  0  0
 17 18  1  0  0  0  0
 17 38  1  0  0  0  0
 18 20  1  0  0  0  0
 18 24  1  0  0  0  0
 18 19  1  1  0  0  0
 20 21  1  0  0  0  0
 20 22  1  0  0  0  0
 20 23  1  0  0  0  0
 22 39  1  0  0  0  0
 22 40  1  0  0  0  0
 22 41  1  0  0  0  0
 23 42  1  0  0  0  0
 23 43  1  0  0  0  0
 23 44  1  0  0  0  0
 24 25  2  0  0  0  0
 24 26  1  0  0  0  0
 26 45  1  0  0  0  0
 27 28  2  0  0  0  0
 27 29  1  0  0  0  0
 29 46  1  0  0  0  0
M  END
$$$$
