ZZD
 OpenBabel04121316213D

 47 49  0  0  1  0  0  0  0  0999 V2000
    2.8817   -0.3121   -1.3021 N   0  0  0  0  0  0  0  0  0  0  0  0
    2.4593    0.0008    0.0912 C   0  0  2  0  0  0  0  0  0  0  0  0
    1.3637   -0.0091    0.1200 H   0  0  0  0  0  0  0  0  0  0  0  0
    2.9285    1.3968    0.5452 C   0  0  0  0  0  0  0  0  0  0  0  0
    3.5310    1.6384    1.5938 O   0  0  0  0  0  0  0  0  0  0  0  0
    2.5824    2.3972   -0.2941 O   0  0  0  0  0  0  0  0  0  0  0  0
    2.9905   -1.0640    1.0781 C   0  0  0  0  0  0  0  0  0  0  0  0
    4.8291   -1.1216    0.9202 S   0  0  0  0  0  0  0  0  0  0  0  0
    5.3590   -2.4407    2.2314 C   0  0  0  0  0  0  0  0  0  0  0  0
    4.8060   -2.0614    3.6384 C   0  0  0  0  0  0  0  0  0  0  0  0
    4.2561   -3.0229    4.5132 C   0  0  0  0  0  0  0  0  0  0  0  0
    3.7072   -2.7031    5.7461 C   0  0  0  0  0  0  0  0  0  0  0  0
    3.7651   -1.3991    6.1913 C   0  0  0  0  0  0  0  0  0  0  0  0
    4.3897   -0.4325    5.4093 C   0  0  0  0  0  0  0  0  0  0  0  0
    4.8627   -0.7471    4.1317 C   0  0  0  0  0  0  0  0  0  0  0  0
    4.8616   -3.8471    1.7450 C   0  0  0  0  0  0  0  0  0  0  0  0
    5.2376   -5.0024    2.4717 C   0  0  0  0  0  0  0  0  0  0  0  0
    5.0264   -6.2840    1.9953 C   0  0  0  0  0  0  0  0  0  0  0  0
    4.2919   -6.4554    0.8369 C   0  0  0  0  0  0  0  0  0  0  0  0
    3.7805   -5.3526    0.1673 C   0  0  0  0  0  0  0  0  0  0  0  0
    4.1314   -4.0706    0.5713 C   0  0  0  0  0  0  0  0  0  0  0  0
    6.9366   -2.3624    2.2119 C   0  0  0  0  0  0  0  0  0  0  0  0
    7.6276   -1.1350    2.2394 C   0  0  0  0  0  0  0  0  0  0  0  0
    9.0083   -1.0812    2.0266 C   0  0  0  0  0  0  0  0  0  0  0  0
    9.7549   -2.2509    1.9403 C   0  0  0  0  0  0  0  0  0  0  0  0
    9.1265   -3.4709    2.0640 C   0  0  0  0  0  0  0  0  0  0  0  0
    7.7436   -3.5114    2.1149 C   0  0  0  0  0  0  0  0  0  0  0  0
    3.9072   -0.3900   -1.2978 H   0  0  0  0  0  0  0  0  0  0  0  0
    2.6498    0.4075   -1.9753 H   0  0  0  0  0  0  0  0  0  0  0  0
    2.0336    2.1042   -1.0424 H   0  0  0  0  0  0  0  0  0  0  0  0
    2.5315   -2.0225    0.8217 H   0  0  0  0  0  0  0  0  0  0  0  0
    2.6870   -0.8276    2.1010 H   0  0  0  0  0  0  0  0  0  0  0  0
    4.2050   -4.0767    4.2876 H   0  0  0  0  0  0  0  0  0  0  0  0
    3.2469   -3.4917    6.3343 H   0  0  0  0  0  0  0  0  0  0  0  0
    3.3254   -1.1434    7.1475 H   0  0  0  0  0  0  0  0  0  0  0  0
    4.5037    0.5794    5.7853 H   0  0  0  0  0  0  0  0  0  0  0  0
    5.2598    0.0668    3.5287 H   0  0  0  0  0  0  0  0  0  0  0  0
    5.8224   -4.9073    3.3908 H   0  0  0  0  0  0  0  0  0  0  0  0
    5.4708   -7.1219    2.5213 H   0  0  0  0  0  0  0  0  0  0  0  0
    4.1393   -7.4493    0.4378 H   0  0  0  0  0  0  0  0  0  0  0  0
    3.1498   -5.4714   -0.7072 H   0  0  0  0  0  0  0  0  0  0  0  0
    3.8416   -3.2745   -0.1046 H   0  0  0  0  0  0  0  0  0  0  0  0
    7.1036   -0.1896    2.3592 H   0  0  0  0  0  0  0  0  0  0  0  0
    9.4969   -0.1183    1.9176 H   0  0  0  0  0  0  0  0  0  0  0  0
   10.8228   -2.2201    1.7656 H   0  0  0  0  0  0  0  0  0  0  0  0
    9.6750   -4.4071    2.0713 H   0  0  0  0  0  0  0  0  0  0  0  0
    7.3502   -4.5099    2.0273 H   0  0  0  0  0  0  0  0  0  0  0  0
  1 28  1  0  0  0  0
  1 29  1  0  0  0  0
  2  4  1  0  0  0  0
  2  7  1  0  0  0  0
  2  3  1  1  0  0  0
  2  1  1  0  0  0  0
  4  5  2  0  0  0  0
  4  6  1  0  0  0  0
  6 30  1  0  0  0  0
  7  8  1  0  0  0  0
  7 31  1  0  0  0  0
  7 32  1  0  0  0  0
  8  9  1  0  0  0  0
  9 10  1  0  0  0  0
  9 16  1  0  0  0  0
  9 22  1  0  0  0  0
 10 11  2  0  0  0  0
 10 15  1  0  0  0  0
 11 12  1  0  0  0  0
 11 33  1  0  0  0  0
 12 13  2  0  0  0  0
 12 34  1  0  0  0  0
 13 14  1  0  0  0  0
 13 35  1  0  0  0  0
 14 15  2  0  0  0  0
 14 36  1  0  0  0  0
 15 37  1  0  0  0  0
 16 17  2  0  0  0  0
 16 21  1  0  0  0  0
 17 18  1  0  0  0  0
 17 38  1  0  0  0  0
 18 19  2  0  0  0  0
 18 39  1  0  0  0  0
 19 20  1  0  0  0  0
 19 40  1  0  0  0  0
 20 21  2  0  0  0  0
 20 41  1  0  0  0  0
 21 42  1  0  0  0  0
 22 23  2  0  0  0  0
 22 27  1  0  0  0  0
 23 24  1  0  0  0  0
 23 43  1  0  0  0  0
 24 25  2  0  0  0  0
 24 44  1  0  0  0  0
 25 26  1  0  0  0  0
 25 45  1  0  0  0  0
 26 27  2  0  0  0  0
 26 46  1  0  0  0  0
 27 47  1  0  0  0  0
M  END
$$$$
