ZZJ
 OpenBabel04121316213D

 17 16  0  0  1  0  0  0  0  0999 V2000
    1.0106    0.0822   -0.0198 C   0  0  0  0  0  0  0  0  0  0  0  0
    2.5400    0.1282   -0.0123 C   0  0  1  0  0  0  0  0  0  0  0  0
    2.9067   -0.2776   -0.9643 H   0  0  0  0  0  0  0  0  0  0  0  0
    3.0058    1.6037    0.1124 C   0  0  0  0  0  0  0  0  0  0  0  0
    3.6371    2.0868    1.0445 O   0  0  0  0  0  0  0  0  0  0  0  0
    2.7027    2.4143   -0.9450 N   0  0  0  0  0  0  0  0  0  0  0  0
    3.0450   -0.7091    1.0970 N   0  0  0  0  0  0  0  0  0  0  0  0
    4.5035   -0.7749    1.1100 C   0  0  0  0  0  0  0  0  0  0  0  0
    0.6029    0.6489   -0.8644 H   0  0  0  0  0  0  0  0  0  0  0  0
    0.5982    0.5231    0.8948 H   0  0  0  0  0  0  0  0  0  0  0  0
    0.6361   -0.9437   -0.1074 H   0  0  0  0  0  0  0  0  0  0  0  0
    2.0930    2.1522   -1.7035 H   0  0  0  0  0  0  0  0  0  0  0  0
    2.9853    3.3809   -0.8471 H   0  0  0  0  0  0  0  0  0  0  0  0
    2.6720   -1.6535    1.0135 H   0  0  0  0  0  0  0  0  0  0  0  0
    4.9742    0.2016    1.2446 H   0  0  0  0  0  0  0  0  0  0  0  0
    4.8877   -1.2184    0.1868 H   0  0  0  0  0  0  0  0  0  0  0  0
    4.8333   -1.3876    1.9537 H   0  0  0  0  0  0  0  0  0  0  0  0
  1  2  1  0  0  0  0
  1  9  1  0  0  0  0
  1 10  1  0  0  0  0
  1 11  1  0  0  0  0
  2  3  1  6  0  0  0
  2  4  1  0  0  0  0
  2  7  1  0  0  0  0
  4  5  2  0  0  0  0
  4  6  1  0  0  0  0
  6 12  1  0  0  0  0
  6 13  1  0  0  0  0
  7  8  1  0  0  0  0
  7 14  1  0  0  0  0
  8 15  1  0  0  0  0
  8 16  1  0  0  0  0
  8 17  1  0  0  0  0
M  END
$$$$
