ZZR
 OpenBabel04121316213D

 16 17  0  0  0  0  0  0  0  0999 V2000
    1.1160    0.0301    0.0876 N   0  0  0  0  0  0  0  0  0  0  0  0
    2.4649    0.0181    0.0886 C   0  0  0  0  0  0  0  0  0  0  0  0
    3.2277    1.1647    0.0899 N   0  0  0  0  0  0  0  0  0  0  0  0
    4.4238    0.6301    0.0911 C   0  0  0  0  0  0  0  0  0  0  0  0
    4.4810   -0.6447    0.0939 N   0  3  0  0  0  0  0  0  0  0  0  0
    3.2564   -1.1261    0.0883 N   0  0  0  0  0  0  0  0  0  0  0  0
    2.9406   -2.0921    0.0844 H   0  0  0  0  0  0  0  0  0  0  0  0
    5.6998   -0.9584    0.0870 C   0  0  0  0  0  0  0  0  0  0  0  0
    6.5135    0.0649    0.0859 N   0  0  0  0  0  0  0  0  0  0  0  0
    5.6292    1.1656    0.0886 N   0  0  0  0  0  0  0  0  0  0  0  0
    5.9082    2.1383    0.0877 H   0  0  0  0  0  0  0  0  0  0  0  0
    6.1643   -2.2265    0.0811 N   0  0  0  0  0  0  0  0  0  0  0  0
    0.5802    0.8955    0.0890 H   0  0  0  0  0  0  0  0  0  0  0  0
    0.5107   -0.7836    0.0885 H   0  0  0  0  0  0  0  0  0  0  0  0
    5.6101   -3.0717    0.0834 H   0  0  0  0  0  0  0  0  0  0  0  0
    7.1637   -2.4199    0.0781 H   0  0  0  0  0  0  0  0  0  0  0  0
  1  2  1  0  0  0  0
  1 13  1  0  0  0  0
  1 14  1  0  0  0  0
  2  3  2  0  0  0  0
  2  6  1  0  0  0  0
  3  4  1  0  0  0  0
  4  5  2  0  0  0  0
  4 10  1  0  0  0  0
  5  6  1  0  0  0  0
  5  8  1  0  0  0  0
  6  7  1  0  0  0  0
  8  9  2  0  0  0  0
  8 12  1  0  0  0  0
  9 10  1  0  0  0  0
 10 11  1  0  0  0  0
 12 15  1  0  0  0  0
 12 16  1  0  0  0  0
M  CHG  1   5   1
M  END
$$$$
