ZZW
 OpenBabel04121316213D

 39 42  0  0  0  0  0  0  0  0999 V2000
    1.0003   -0.0161   -0.0398 O   0  0  0  0  0  0  0  0  0  0  0  0
    2.4074   -0.1005   -0.0266 N   0  0  0  0  0  0  0  0  0  0  0  0
    2.9557   -1.1599    0.6748 C   0  0  0  0  0  0  0  0  0  0  0  0
    2.3349   -2.0257    1.2677 O   0  0  0  0  0  0  0  0  0  0  0  0
    4.4471   -1.1773    0.7016 C   0  0  0  0  0  0  0  0  0  0  0  0
    5.0098    0.0207    0.9283 N   0  0  0  0  0  0  0  0  0  0  0  0
    6.3084    0.0456    1.2863 C   0  0  0  0  0  0  0  0  0  0  0  0
    7.1474   -1.0332    0.9960 C   0  0  0  0  0  0  0  0  0  0  0  0
    6.5650   -2.2782    0.7474 C   0  0  0  0  0  0  0  0  0  0  0  0
    5.1565   -2.3717    0.6860 C   0  0  0  0  0  0  0  0  0  0  0  0
    7.6268   -3.2278    0.7200 C   0  0  0  0  0  0  0  0  0  0  0  0
    7.6473   -4.6367    0.6726 C   0  0  0  0  0  0  0  0  0  0  0  0
    8.8672   -5.3150    0.6747 C   0  0  0  0  0  0  0  0  0  0  0  0
   10.0640   -4.6079    0.6780 C   0  0  0  0  0  0  0  0  0  0  0  0
   10.0749   -3.2075    0.7016 C   0  0  0  0  0  0  0  0  0  0  0  0
    8.8399   -2.5306    0.7577 C   0  0  0  0  0  0  0  0  0  0  0  0
    8.5362   -1.1693    0.8567 N   0  0  0  0  0  0  0  0  0  0  0  0
    9.6065   -0.1238    0.7176 C   0  0  0  0  0  0  0  0  0  0  0  0
    9.1570    1.3082    0.4833 C   0  0  0  0  0  0  0  0  0  0  0  0
    8.0022    1.5347   -0.2681 C   0  0  0  0  0  0  0  0  0  0  0  0
    7.2947    2.7255   -0.1679 C   0  0  0  0  0  0  0  0  0  0  0  0
    7.9195    3.8206    0.3795 C   0  0  0  0  0  0  0  0  0  0  0  0
    9.2149    3.7066    0.8749 C   0  0  0  0  0  0  0  0  0  0  0  0
    9.8364    2.4442    0.9468 C   0  0  0  0  0  0  0  0  0  0  0  0
    7.2902    5.0013    0.3623 F   0  0  0  0  0  0  0  0  0  0  0  0
    0.8108    0.7438   -0.6160 H   0  0  0  0  0  0  0  0  0  0  0  0
    2.9675    0.6201   -0.4706 H   0  0  0  0  0  0  0  0  0  0  0  0
    6.6421    0.9956    1.6773 H   0  0  0  0  0  0  0  0  0  0  0  0
    4.6417   -3.3226    0.6206 H   0  0  0  0  0  0  0  0  0  0  0  0
    6.7146   -5.1936    0.6725 H   0  0  0  0  0  0  0  0  0  0  0  0
    8.8745   -6.4021    0.6792 H   0  0  0  0  0  0  0  0  0  0  0  0
   11.0048   -5.1552    0.6761 H   0  0  0  0  0  0  0  0  0  0  0  0
   11.0236   -2.6789    0.7087 H   0  0  0  0  0  0  0  0  0  0  0  0
   10.2092   -0.4182   -0.1516 H   0  0  0  0  0  0  0  0  0  0  0  0
   10.2237   -0.2245    1.6212 H   0  0  0  0  0  0  0  0  0  0  0  0
    7.5290    0.7038   -0.7841 H   0  0  0  0  0  0  0  0  0  0  0  0
    6.2529    2.7595   -0.4716 H   0  0  0  0  0  0  0  0  0  0  0  0
    9.7180    4.6057    1.2163 H   0  0  0  0  0  0  0  0  0  0  0  0
   10.8499    2.3804    1.3409 H   0  0  0  0  0  0  0  0  0  0  0  0
  1  2  1  0  0  0  0
  1 26  1  0  0  0  0
  2  3  1  0  0  0  0
  2 27  1  0  0  0  0
  3  4  2  0  0  0  0
  3  5  1  0  0  0  0
  5  6  2  0  0  0  0
  5 10  1  0  0  0  0
  6  7  1  0  0  0  0
  7  8  2  0  0  0  0
  7 28  1  0  0  0  0
  8  9  1  0  0  0  0
  8 17  1  0  0  0  0
  9 10  2  0  0  0  0
  9 11  1  0  0  0  0
 10 29  1  0  0  0  0
 11 12  2  0  0  0  0
 11 16  1  0  0  0  0
 12 13  1  0  0  0  0
 12 30  1  0  0  0  0
 13 14  2  0  0  0  0
 13 31  1  0  0  0  0
 14 15  1  0  0  0  0
 14 32  1  0  0  0  0
 15 16  2  0  0  0  0
 15 33  1  0  0  0  0
 16 17  1  0  0  0  0
 17 18  1  0  0  0  0
 18 19  1  0  0  0  0
 18 34  1  0  0  0  0
 18 35  1  0  0  0  0
 19 20  2  0  0  0  0
 19 24  1  0  0  0  0
 20 21  1  0  0  0  0
 20 36  1  0  0  0  0
 21 22  2  0  0  0  0
 21 37  1  0  0  0  0
 22 23  1  0  0  0  0
 22 25  1  0  0  0  0
 23 24  2  0  0  0  0
 23 38  1  0  0  0  0
 24 39  1  0  0  0  0
M  END
$$$$
