ZZY
 OpenBabel04121316213D

 34 36  0  0  0  0  0  0  0  0999 V2000
    1.5735   -0.2270    1.1941 O   0  5  0  0  0  0  0  0  0  0  0  0
    2.7800   -0.1265    0.8880 N   0  3  0  0  0  0  0  0  0  0  0  0
    3.4098   -0.0944   -0.1825 O   0  0  0  0  0  0  0  0  0  0  0  0
    3.5040   -0.6375    1.8743 C   0  0  0  0  0  0  0  0  0  0  0  0
    4.1707    0.2925    2.6422 C   0  0  0  0  0  0  0  0  0  0  0  0
    4.9008   -0.2617    3.6328 C   0  0  0  0  0  0  0  0  0  0  0  0
    4.8029   -1.6671    3.8117 C   0  0  0  0  0  0  0  0  0  0  0  0
    3.9919   -2.5536    2.9745 C   0  0  0  0  0  0  0  0  0  0  0  0
    3.3201   -1.9983    1.8968 C   0  0  0  0  0  0  0  0  0  0  0  0
    2.1895   -2.7741    0.4697 S   0  0  0  0  0  0  0  0  0  0  0  0
    3.1009   -3.6241   -0.2809 O   0  0  0  0  0  0  0  0  0  0  0  0
    1.0290   -3.3466    1.1316 O   0  0  0  0  0  0  0  0  0  0  0  0
    1.3287   -1.6734   -1.0130 N   0  0  0  0  0  0  0  0  0  0  0  0
    0.8715   -2.4196   -2.1003 C   0  0  0  0  0  0  0  0  0  0  0  0
    0.6384   -1.5606   -3.1677 C   0  0  0  0  0  0  0  0  0  0  0  0
    1.0052   -0.2429   -2.7927 C   0  0  0  0  0  0  0  0  0  0  0  0
    1.2023   -0.2670   -1.4065 C   0  0  0  0  0  0  0  0  0  0  0  0
    1.2332    1.0638   -0.8551 C   0  0  0  0  0  0  0  0  0  0  0  0
    1.7636    2.1281   -1.5617 C   0  0  0  0  0  0  0  0  0  0  0  0
    1.5536    2.0332   -2.9047 C   0  0  0  0  0  0  0  0  0  0  0  0
    1.0691    0.9130   -3.5394 N   0  0  0  0  0  0  0  0  0  0  0  0
    2.5292    3.1319   -0.7329 C   0  0  0  0  0  0  0  0  0  0  0  0
    3.0028    2.8120    0.3609 O   0  0  0  0  0  0  0  0  0  0  0  0
    2.7202    4.4150   -1.1469 N   0  0  0  0  0  0  0  0  0  0  0  0
    4.0957    1.3545    2.4029 H   0  0  0  0  0  0  0  0  0  0  0  0
    5.5245    0.4010    4.2259 H   0  0  0  0  0  0  0  0  0  0  0  0
    5.3949   -2.0695    4.6321 H   0  0  0  0  0  0  0  0  0  0  0  0
    3.9553   -3.6077    3.2298 H   0  0  0  0  0  0  0  0  0  0  0  0
    0.7794   -3.4968   -2.0316 H   0  0  0  0  0  0  0  0  0  0  0  0
    0.2737   -1.8486   -4.1454 H   0  0  0  0  0  0  0  0  0  0  0  0
    1.1008    1.3243    0.1865 H   0  0  0  0  0  0  0  0  0  0  0  0
    1.7235    2.8911   -3.5489 H   0  0  0  0  0  0  0  0  0  0  0  0
    2.3120    4.8377   -1.9623 H   0  0  0  0  0  0  0  0  0  0  0  0
    3.1649    5.0291   -0.4670 H   0  0  0  0  0  0  0  0  0  0  0  0
  1  2  1  0  0  0  0
  2  3  2  0  0  0  0
  2  4  1  0  0  0  0
  4  5  2  0  0  0  0
  4  9  1  0  0  0  0
  5  6  1  0  0  0  0
  5 25  1  0  0  0  0
  6  7  2  0  0  0  0
  6 26  1  0  0  0  0
  7  8  1  0  0  0  0
  7 27  1  0  0  0  0
  8  9  2  0  0  0  0
  8 28  1  0  0  0  0
  9 10  1  0  0  0  0
 10 11  2  0  0  0  0
 10 12  2  0  0  0  0
 10 13  1  0  0  0  0
 13 14  1  0  0  0  0
 13 17  1  0  0  0  0
 14 15  2  0  0  0  0
 14 29  1  0  0  0  0
 15 16  1  0  0  0  0
 15 30  1  0  0  0  0
 16 17  2  0  0  0  0
 16 21  1  0  0  0  0
 17 18  1  0  0  0  0
 18 19  2  0  0  0  0
 18 31  1  0  0  0  0
 19 20  1  0  0  0  0
 19 22  1  0  0  0  0
 20 21  2  0  0  0  0
 20 32  1  0  0  0  0
 22 23  2  0  0  0  0
 22 24  1  0  0  0  0
 24 33  1  0  0  0  0
 24 34  1  0  0  0  0
M  CHG  2   1  -1   2   1
M  END
$$$$
