ZZZ
 OpenBabel04121316213D

 23 24  0  0  1  0  0  0  0  0999 V2000
    1.1658   -0.0493    0.1129 N   0  0  0  0  0  0  0  0  0  0  0  0
    2.5160   -0.1044    0.0851 C   0  0  0  0  0  0  0  0  0  0  0  0
    3.1366   -1.2405    0.1382 N   0  0  0  0  0  0  0  0  0  0  0  0
    4.5085   -1.2416    0.0720 C   0  0  0  0  0  0  0  0  0  0  0  0
    5.2147   -2.4493    0.1124 N   0  0  0  0  0  0  0  0  0  0  0  0
    6.6421   -2.5059   -0.2231 C   0  0  0  0  0  0  0  0  0  0  0  0
    7.3556   -1.2909    0.4228 C   0  0  1  0  0  0  0  0  0  0  0  0
    8.4123   -1.2680    0.1412 H   0  0  0  0  0  0  0  0  0  0  0  0
    6.6526   -0.0968   -0.0731 N   0  0  0  0  0  0  0  0  0  0  0  0
    5.2500   -0.1005   -0.0226 C   0  0  0  0  0  0  0  0  0  0  0  0
    4.5154    1.1878   -0.0340 C   0  0  0  0  0  0  0  0  0  0  0  0
    5.1009    2.2740   -0.0655 O   0  0  0  0  0  0  0  0  0  0  0  0
    3.1618    1.0898    0.0008 N   0  0  0  0  0  0  0  0  0  0  0  0
    2.6548    1.9575   -0.0121 H   0  0  0  0  0  0  0  0  0  0  0  0
    7.2761   -1.3564    1.9484 C   0  0  0  0  0  0  0  0  0  0  0  0
    7.8833   -0.5897    2.6959 O   0  0  0  0  0  0  0  0  0  0  0  0
    0.6584   -0.9251    0.1072 H   0  0  0  0  0  0  0  0  0  0  0  0
    0.6386    0.8050    0.0185 H   0  0  0  0  0  0  0  0  0  0  0  0
    4.6680   -3.2852    0.2770 H   0  0  0  0  0  0  0  0  0  0  0  0
    6.7364   -2.4140   -1.3155 H   0  0  0  0  0  0  0  0  0  0  0  0
    7.0889   -3.4604    0.0673 H   0  0  0  0  0  0  0  0  0  0  0  0
    7.0903    0.8175    0.0170 H   0  0  0  0  0  0  0  0  0  0  0  0
    6.5773   -2.0988    2.3750 H   0  0  0  0  0  0  0  0  0  0  0  0
  1  2  1  0  0  0  0
  1 17  1  0  0  0  0
  1 18  1  0  0  0  0
  2  3  2  0  0  0  0
  2 13  1  0  0  0  0
  3  4  1  0  0  0  0
  4  5  1  0  0  0  0
  4 10  2  0  0  0  0
  5  6  1  0  0  0  0
  5 19  1  0  0  0  0
  6  7  1  0  0  0  0
  6 20  1  0  0  0  0
  6 21  1  0  0  0  0
  7  9  1  0  0  0  0
  7 15  1  0  0  0  0
  7  8  1  6  0  0  0
  9 10  1  0  0  0  0
  9 22  1  0  0  0  0
 10 11  1  0  0  0  0
 11 12  2  0  0  0  0
 11 13  1  0  0  0  0
 13 14  1  0  0  0  0
 15 16  2  0  0  0  0
 15 23  1  0  0  0  0
M  END
$$$$
